MODEL        1
REMARK 921   NORMALIZED FREE ENERGY PREDICTED BY IDOCK:   -6.92 KCAL/MOL
REMARK 922        TOTAL FREE ENERGY PREDICTED BY IDOCK:  -10.30 KCAL/MOL
REMARK 923 INTER-LIGAND FREE ENERGY PREDICTED BY IDOCK:   -9.34 KCAL/MOL
REMARK 924 INTRA-LIGAND FREE ENERGY PREDICTED BY IDOCK:   -0.96 KCAL/MOL
REMARK 927      BINDING AFFINITY PREDICTED BY RF-SCORE:    0.00 PKD
ROOT
HETATM    1  O   UNL     1     -11.336  12.081  63.385  1.00  0.00    -0.415 OA 
HETATM    2  C   UNL     1     -12.055  12.223  64.525  1.00  0.00    -0.383 C  
HETATM    3  O   UNL     1     -13.241  12.510  64.512  1.00  0.00    -0.832 OA 
HETATM    4  C   UNL     1     -11.227  11.987  65.784  1.00  0.00    -0.334 C  
ENDROOT
BRANCH   4   5
HETATM    5  O   UNL     1     -12.017  12.216  66.958  1.00  0.00    -0.593 OA 
BRANCH   5   6
HETATM    6  C   UNL     1     -11.858  13.423  67.561  1.00  0.00    -0.366 C  
HETATM    7  O   UNL     1     -12.279  14.485  67.132  1.00  0.00    -0.355 OA 
BRANCH   6   8
HETATM    8  C   UNL     1     -11.072  13.263  68.850  1.00  0.00    -0.304 C  
BRANCH   8   9
HETATM    9  C   UNL     1     -11.917  13.342  70.100  1.00  0.00    -0.396 A  
HETATM   10  C   UNL     1     -12.119  14.619  70.664  1.00  0.00    -0.385 A  
HETATM   11  C   UNL     1     -12.909  14.790  71.798  1.00  0.00    -0.396 A  
HETATM   12  C   UNL     1     -13.544  13.696  72.367  1.00  0.00    -0.703 A  
HETATM   13  C   UNL     1     -13.334  12.422  71.837  1.00  0.00    -0.450 A  
HETATM   14  C   UNL     1     -12.484  12.217  70.742  1.00  0.00    -0.265 A  
BRANCH  14  15
HETATM   15  N   UNL     1     -12.164  10.896  70.358  1.00  0.00    -0.335 NA 
HETATM   16  H   UNL     1     -12.376  10.683  69.383  1.00  0.00     0.000 HD 
BRANCH  15  17
HETATM   17  C   UNL     1     -11.598   9.806  71.084  1.00  0.00    -0.392 A  
HETATM   18  C   UNL     1     -10.213   9.556  70.909  1.00  0.00    -0.286 A  
HETATM   19  C   UNL     1      -9.514   8.640  71.704  1.00  0.00    -0.339 A  
HETATM   20 CL   UNL     1      -9.305  10.389  69.686  1.00  0.00    -0.157 Cl 
HETATM   21  C   UNL     1     -10.181   7.927  72.688  1.00  0.00    -0.361 A  
HETATM   22  C   UNL     1     -11.558   8.076  72.819  1.00  0.00    -0.390 A  
HETATM   23  C   UNL     1     -12.271   8.987  72.017  1.00  0.00    -0.375 A  
HETATM   24 CL   UNL     1     -13.967   9.056  72.352  1.00  0.00    -0.528 Cl 
ENDBRANCH  15  17
ENDBRANCH  14  15
ENDBRANCH   8   9
ENDBRANCH   6   8
ENDBRANCH   5   6
ENDBRANCH   4   5
TORSDOF 6
ENDMDL
MODEL        2
REMARK 921   NORMALIZED FREE ENERGY PREDICTED BY IDOCK:   -6.88 KCAL/MOL
REMARK 922        TOTAL FREE ENERGY PREDICTED BY IDOCK:  -10.26 KCAL/MOL
REMARK 923 INTER-LIGAND FREE ENERGY PREDICTED BY IDOCK:   -9.25 KCAL/MOL
REMARK 924 INTRA-LIGAND FREE ENERGY PREDICTED BY IDOCK:   -1.01 KCAL/MOL
REMARK 927      BINDING AFFINITY PREDICTED BY RF-SCORE:    0.00 PKD
ROOT
HETATM    1  O   UNL     1     -10.697  16.259  64.731  1.00  0.00    -0.680 OA 
HETATM    2  C   UNL     1     -11.510  15.213  65.019  1.00  0.00    -0.339 C  
HETATM    3  O   UNL     1     -12.333  14.793  64.221  1.00  0.00    -0.571 OA 
HETATM    4  C   UNL     1     -11.278  14.645  66.415  1.00  0.00    -0.336 C  
ENDROOT
BRANCH   4   5
HETATM    5  O   UNL     1     -12.208  13.589  66.691  1.00  0.00    -0.398 OA 
BRANCH   5   6
HETATM    6  C   UNL     1     -11.763  12.599  67.509  1.00  0.00    -0.368 C  
HETATM    7  O   UNL     1     -11.914  11.404  67.313  1.00  0.00    -0.580 OA 
BRANCH   6   8
HETATM    8  C   UNL     1     -11.054  13.194  68.711  1.00  0.00    -0.309 C  
BRANCH   8   9
HETATM    9  C   UNL     1     -11.901  13.248  69.962  1.00  0.00    -0.365 A  
HETATM   10  C   UNL     1     -12.183  14.522  70.497  1.00  0.00    -0.399 A  
HETATM   11  C   UNL     1     -12.981  14.668  71.629  1.00  0.00    -0.408 A  
HETATM   12  C   UNL     1     -13.545  13.549  72.224  1.00  0.00    -0.690 A  
HETATM   13  C   UNL     1     -13.255  12.280  71.723  1.00  0.00    -0.428 A  
HETATM   14  C   UNL     1     -12.394  12.105  70.630  1.00  0.00    -0.295 A  
BRANCH  14  15
HETATM   15  N   UNL     1     -11.991  10.798  70.276  1.00  0.00    -0.320 NA 
HETATM   16  H   UNL     1     -12.162  10.560  69.299  1.00  0.00     0.000 HD 
BRANCH  15  17
HETATM   17  C   UNL     1     -11.388   9.750  71.035  1.00  0.00    -0.387 A  
HETATM   18  C   UNL     1      -9.991   9.560  70.885  1.00  0.00    -0.238 A  
HETATM   19  C   UNL     1      -9.263   8.694  71.710  1.00  0.00    -0.338 A  
HETATM   20 CL   UNL     1      -9.103  10.405  69.657  1.00  0.00    -0.141 Cl 
HETATM   21  C   UNL     1      -9.913   7.974  72.702  1.00  0.00    -0.358 A  
HETATM   22  C   UNL     1     -11.297   8.064  72.810  1.00  0.00    -0.439 A  
HETATM   23  C   UNL     1     -12.037   8.923  71.977  1.00  0.00    -0.371 A  
HETATM   24 CL   UNL     1     -13.740   8.924  72.287  1.00  0.00    -0.489 Cl 
ENDBRANCH  15  17
ENDBRANCH  14  15
ENDBRANCH   8   9
ENDBRANCH   6   8
ENDBRANCH   5   6
ENDBRANCH   4   5
TORSDOF 6
ENDMDL
MODEL        3
REMARK 921   NORMALIZED FREE ENERGY PREDICTED BY IDOCK:   -6.86 KCAL/MOL
REMARK 922        TOTAL FREE ENERGY PREDICTED BY IDOCK:  -10.23 KCAL/MOL
REMARK 923 INTER-LIGAND FREE ENERGY PREDICTED BY IDOCK:   -9.27 KCAL/MOL
REMARK 924 INTRA-LIGAND FREE ENERGY PREDICTED BY IDOCK:   -0.96 KCAL/MOL
REMARK 927      BINDING AFFINITY PREDICTED BY RF-SCORE:    0.00 PKD
ROOT
HETATM    1  O   UNL     1     -11.652  16.826  63.973  1.00  0.00    -1.195 OA 
HETATM    2  C   UNL     1     -10.981  16.060  64.868  1.00  0.00    -0.384 C  
HETATM    3  O   UNL     1     -10.025  16.486  65.497  1.00  0.00    -0.541 OA 
HETATM    4  C   UNL     1     -11.549  14.650  64.989  1.00  0.00    -0.385 C  
ENDROOT
BRANCH   4   5
HETATM    5  O   UNL     1     -10.762  13.866  65.896  1.00  0.00    -0.279 OA 
BRANCH   5   6
HETATM    6  C   UNL     1     -11.388  12.804  66.467  1.00  0.00    -0.322 C  
HETATM    7  O   UNL     1     -12.378  12.247  66.021  1.00  0.00    -0.609 OA 
BRANCH   6   8
HETATM    8  C   UNL     1     -10.681  12.409  67.751  1.00  0.00    -0.247 C  
BRANCH   8   9
HETATM    9  C   UNL     1     -11.402  12.838  69.008  1.00  0.00    -0.346 A  
HETATM   10  C   UNL     1     -11.440  14.219  69.292  1.00  0.00    -0.330 A  
HETATM   11  C   UNL     1     -12.109  14.707  70.412  1.00  0.00    -0.383 A  
HETATM   12  C   UNL     1     -12.785  13.830  71.248  1.00  0.00    -0.450 A  
HETATM   13  C   UNL     1     -12.735  12.458  70.996  1.00  0.00    -0.315 A  
HETATM   14  C   UNL     1     -12.006  11.939  69.916  1.00  0.00    -0.325 A  
BRANCH  14  15
HETATM   15  N   UNL     1     -11.838  10.541  69.809  1.00  0.00    -0.377 NA 
HETATM   16  H   UNL     1     -12.067  10.163  68.890  1.00  0.00     0.000 HD 
BRANCH  15  17
HETATM   17  C   UNL     1     -11.407   9.560  70.752  1.00  0.00    -0.321 A  
HETATM   18  C   UNL     1     -10.013   9.325  70.855  1.00  0.00    -0.297 A  
HETATM   19  C   UNL     1      -9.463   8.529  71.867  1.00  0.00    -0.350 A  
HETATM   20 CL   UNL     1      -8.905  10.025  69.717  1.00  0.00    -0.221 Cl 
HETATM   21  C   UNL     1     -10.293   7.924  72.799  1.00  0.00    -0.399 A  
HETATM   22  C   UNL     1     -11.671   8.055  72.668  1.00  0.00    -0.418 A  
HETATM   23  C   UNL     1     -12.233   8.844  71.647  1.00  0.00    -0.343 A  
HETATM   24 CL   UNL     1     -13.961   8.913  71.668  1.00  0.00    -0.436 Cl 
ENDBRANCH  15  17
ENDBRANCH  14  15
ENDBRANCH   8   9
ENDBRANCH   6   8
ENDBRANCH   5   6
ENDBRANCH   4   5
TORSDOF 6
ENDMDL
MODEL        4
REMARK 921   NORMALIZED FREE ENERGY PREDICTED BY IDOCK:   -6.81 KCAL/MOL
REMARK 922        TOTAL FREE ENERGY PREDICTED BY IDOCK:  -10.16 KCAL/MOL
REMARK 923 INTER-LIGAND FREE ENERGY PREDICTED BY IDOCK:   -8.61 KCAL/MOL
REMARK 924 INTRA-LIGAND FREE ENERGY PREDICTED BY IDOCK:   -1.55 KCAL/MOL
REMARK 927      BINDING AFFINITY PREDICTED BY RF-SCORE:    0.00 PKD
ROOT
HETATM    1  O   UNL     1     -13.393  12.116  63.780  1.00  0.00    -0.701 OA 
HETATM    2  C   UNL     1     -12.476  12.692  64.595  1.00  0.00    -0.466 C  
HETATM    3  O   UNL     1     -12.381  12.395  65.775  1.00  0.00    -0.644 OA 
HETATM    4  C   UNL     1     -11.608  13.723  63.881  1.00  0.00    -0.195 C  
ENDROOT
BRANCH   4   5
HETATM    5  O   UNL     1     -10.706  14.348  64.803  1.00  0.00    -0.408 OA 
BRANCH   5   6
HETATM    6  C   UNL     1     -10.886  15.679  65.008  1.00  0.00    -0.450 C  
HETATM    7  O   UNL     1     -11.193  16.489  64.148  1.00  0.00    -1.004 OA 
BRANCH   6   8
HETATM    8  C   UNL     1     -10.644  16.020  66.467  1.00  0.00    -0.284 C  
BRANCH   8   9
HETATM    9  C   UNL     1      -9.460  15.306  67.078  1.00  0.00    -0.235 A  
HETATM   10  C   UNL     1      -8.181  15.844  66.827  1.00  0.00    -0.307 A  
HETATM   11  C   UNL     1      -7.036  15.270  67.374  1.00  0.00    -0.212 A  
HETATM   12  C   UNL     1      -7.150  14.172  68.215  1.00  0.00    -0.112 A  
HETATM   13  C   UNL     1      -8.405  13.611  68.453  1.00  0.00    -0.147 A  
HETATM   14  C   UNL     1      -9.562  14.128  67.853  1.00  0.00    -0.223 A  
BRANCH  14  15
HETATM   15  N   UNL     1     -10.778  13.420  67.981  1.00  0.00    -0.242 NA 
HETATM   16  H   UNL     1     -11.159  13.085  67.096  1.00  0.00     0.000 HD 
BRANCH  15  17
HETATM   17  C   UNL     1     -11.569  13.088  69.121  1.00  0.00    -0.316 A  
HETATM   18  C   UNL     1     -11.779  11.711  69.389  1.00  0.00    -0.340 A  
HETATM   19  C   UNL     1     -12.376  11.263  70.573  1.00  0.00    -0.446 A  
HETATM   20 CL   UNL     1     -11.296  10.497  68.246  1.00  0.00    -0.353 Cl 
HETATM   21  C   UNL     1     -12.802  12.181  71.522  1.00  0.00    -0.394 A  
HETATM   22  C   UNL     1     -12.700  13.540  71.247  1.00  0.00    -0.432 A  
HETATM   23  C   UNL     1     -12.111  13.998  70.054  1.00  0.00    -0.348 A  
HETATM   24 CL   UNL     1     -12.044  15.721  69.908  1.00  0.00    -0.351 Cl 
ENDBRANCH  15  17
ENDBRANCH  14  15
ENDBRANCH   8   9
ENDBRANCH   6   8
ENDBRANCH   5   6
ENDBRANCH   4   5
TORSDOF 6
ENDMDL
MODEL        5
REMARK 921   NORMALIZED FREE ENERGY PREDICTED BY IDOCK:   -6.78 KCAL/MOL
REMARK 922        TOTAL FREE ENERGY PREDICTED BY IDOCK:  -10.11 KCAL/MOL
REMARK 923 INTER-LIGAND FREE ENERGY PREDICTED BY IDOCK:   -9.33 KCAL/MOL
REMARK 924 INTRA-LIGAND FREE ENERGY PREDICTED BY IDOCK:   -0.78 KCAL/MOL
REMARK 927      BINDING AFFINITY PREDICTED BY RF-SCORE:    0.00 PKD
ROOT
HETATM    1  O   UNL     1     -13.186  11.875  63.652  1.00  0.00    -0.675 OA 
HETATM    2  C   UNL     1     -12.575  12.607  64.615  1.00  0.00    -0.440 C  
HETATM    3  O   UNL     1     -12.306  12.141  65.711  1.00  0.00    -0.564 OA 
HETATM    4  C   UNL     1     -12.277  14.037  64.176  1.00  0.00    -0.396 C  
ENDROOT
BRANCH   4   5
HETATM    5  O   UNL     1     -11.695  14.784  65.253  1.00  0.00    -0.351 OA 
BRANCH   5   6
HETATM    6  C   UNL     1     -11.058  15.934  64.908  1.00  0.00    -0.389 C  
HETATM    7  O   UNL     1     -11.426  16.709  64.040  1.00  0.00    -1.192 OA 
BRANCH   6   8
HETATM    8  C   UNL     1      -9.813  16.116  65.758  1.00  0.00    -0.354 C  
BRANCH   8   9
HETATM    9  C   UNL     1      -9.930  17.209  66.795  1.00  0.00    -0.291 A  
HETATM   10  C   UNL     1     -10.018  18.536  66.327  1.00  0.00    -0.384 A  
HETATM   11  C   UNL     1     -10.159  19.604  67.210  1.00  0.00    -0.534 A  
HETATM   12  C   UNL     1     -10.255  19.364  68.573  1.00  0.00    -0.492 A  
HETATM   13  C   UNL     1     -10.143  18.059  69.054  1.00  0.00    -0.301 A  
HETATM   14  C   UNL     1      -9.926  16.977  68.189  1.00  0.00    -0.287 A  
BRANCH  14  15
HETATM   15  N   UNL     1      -9.641  15.707  68.736  1.00  0.00    -0.204 NA 
HETATM   16  H   UNL     1      -8.666  15.579  69.006  1.00  0.00     0.000 HD 
BRANCH  15  17
HETATM   17  C   UNL     1     -10.468  14.569  68.980  1.00  0.00    -0.237 A  
HETATM   18  C   UNL     1     -10.134  13.366  68.307  1.00  0.00    -0.247 A  
HETATM   19  C   UNL     1     -10.753  12.147  68.607  1.00  0.00    -0.261 A  
HETATM   20 CL   UNL     1      -8.923  13.347  67.064  1.00  0.00    -0.226 Cl 
HETATM   21  C   UNL     1     -11.742  12.094  69.578  1.00  0.00    -0.402 A  
HETATM   22  C   UNL     1     -12.161  13.272  70.186  1.00  0.00    -0.403 A  
HETATM   23  C   UNL     1     -11.552  14.504  69.883  1.00  0.00    -0.287 A  
HETATM   24 CL   UNL     1     -12.185  15.850  70.766  1.00  0.00    -0.415 Cl 
ENDBRANCH  15  17
ENDBRANCH  14  15
ENDBRANCH   8   9
ENDBRANCH   6   8
ENDBRANCH   5   6
ENDBRANCH   4   5
TORSDOF 6
ENDMDL
MODEL        6
REMARK 921   NORMALIZED FREE ENERGY PREDICTED BY IDOCK:   -6.67 KCAL/MOL
REMARK 922        TOTAL FREE ENERGY PREDICTED BY IDOCK:   -9.98 KCAL/MOL
REMARK 923 INTER-LIGAND FREE ENERGY PREDICTED BY IDOCK:   -8.53 KCAL/MOL
REMARK 924 INTRA-LIGAND FREE ENERGY PREDICTED BY IDOCK:   -1.45 KCAL/MOL
REMARK 927      BINDING AFFINITY PREDICTED BY RF-SCORE:    0.00 PKD
ROOT
HETATM    1  O   UNL     1     -13.437  11.947  64.191  1.00  0.00    -0.591 OA 
HETATM    2  C   UNL     1     -12.465  12.637  64.836  1.00  0.00    -0.494 C  
HETATM    3  O   UNL     1     -12.170  12.405  65.998  1.00  0.00    -0.636 OA 
HETATM    4  C   UNL     1     -11.810  13.700  63.963  1.00  0.00    -0.400 C  
ENDROOT
BRANCH   4   5
HETATM    5  O   UNL     1     -10.840  14.443  64.714  1.00  0.00    -0.395 OA 
BRANCH   5   6
HETATM    6  C   UNL     1     -11.112  15.760  64.907  1.00  0.00    -0.399 C  
HETATM    7  O   UNL     1     -11.430  16.549  64.032  1.00  0.00    -1.137 OA 
BRANCH   6   8
HETATM    8  C   UNL     1     -10.959  16.115  66.375  1.00  0.00    -0.036 C  
BRANCH   8   9
HETATM    9  C   UNL     1      -9.808  15.415  67.061  1.00  0.00    -0.236 A  
HETATM   10  C   UNL     1      -8.504  15.766  66.656  1.00  0.00    -0.323 A  
HETATM   11  C   UNL     1      -7.384  15.195  67.254  1.00  0.00    -0.216 A  
HETATM   12  C   UNL     1      -7.544  14.292  68.295  1.00  0.00    -0.130 A  
HETATM   13  C   UNL     1      -8.828  13.914  68.691  1.00  0.00    -0.076 A  
HETATM   14  C   UNL     1      -9.968  14.420  68.052  1.00  0.00    -0.225 A  
BRANCH  14  15
HETATM   15  N   UNL     1     -11.232  13.873  68.367  1.00  0.00    -0.250 NA 
HETATM   16  H   UNL     1     -11.930  13.989  67.632  1.00  0.00     0.000 HD 
BRANCH  15  17
HETATM   17  C   UNL     1     -11.710  13.188  69.524  1.00  0.00    -0.319 A  
HETATM   18  C   UNL     1     -12.435  13.948  70.477  1.00  0.00    -0.352 A  
HETATM   19  C   UNL     1     -13.108  13.352  71.550  1.00  0.00    -0.427 A  
HETATM   20 CL   UNL     1     -12.527  15.677  70.354  1.00  0.00    -0.439 Cl 
HETATM   21  C   UNL     1     -13.061  11.976  71.718  1.00  0.00    -0.460 A  
HETATM   22  C   UNL     1     -12.278  11.213  70.859  1.00  0.00    -0.468 A  
HETATM   23  C   UNL     1     -11.590  11.805  69.783  1.00  0.00    -0.299 A  
HETATM   24 CL   UNL     1     -10.700  10.689  68.806  1.00  0.00    -0.223 Cl 
ENDBRANCH  15  17
ENDBRANCH  14  15
ENDBRANCH   8   9
ENDBRANCH   6   8
ENDBRANCH   5   6
ENDBRANCH   4   5
TORSDOF 6
ENDMDL
MODEL        7
REMARK 921   NORMALIZED FREE ENERGY PREDICTED BY IDOCK:   -6.67 KCAL/MOL
REMARK 922        TOTAL FREE ENERGY PREDICTED BY IDOCK:   -9.98 KCAL/MOL
REMARK 923 INTER-LIGAND FREE ENERGY PREDICTED BY IDOCK:   -8.97 KCAL/MOL
REMARK 924 INTRA-LIGAND FREE ENERGY PREDICTED BY IDOCK:   -1.00 KCAL/MOL
REMARK 927      BINDING AFFINITY PREDICTED BY RF-SCORE:    0.00 PKD
ROOT
HETATM    1  O   UNL     1     -11.656  16.546  63.954  1.00  0.00    -1.175 OA 
HETATM    2  C   UNL     1     -11.796  15.223  64.217  1.00  0.00    -0.225 C  
HETATM    3  O   UNL     1     -12.751  14.580  63.810  1.00  0.00    -0.780 OA 
HETATM    4  C   UNL     1     -10.654  14.658  65.054  1.00  0.00    -0.439 C  
ENDROOT
BRANCH   4   5
HETATM    5  O   UNL     1     -10.888  13.277  65.359  1.00  0.00    -0.282 OA 
BRANCH   5   6
HETATM    6  C   UNL     1     -10.421  12.841  66.558  1.00  0.00    -0.263 C  
HETATM    7  O   UNL     1      -9.270  12.956  66.949  1.00  0.00    -0.222 OA 
BRANCH   6   8
HETATM    8  C   UNL     1     -11.538  12.181  67.345  1.00  0.00    -0.410 C  
BRANCH   8   9
HETATM    9  C   UNL     1     -11.851  12.859  68.659  1.00  0.00    -0.347 A  
HETATM   10  C   UNL     1     -11.719  14.262  68.709  1.00  0.00    -0.378 A  
HETATM   11  C   UNL     1     -12.015  14.974  69.869  1.00  0.00    -0.374 A  
HETATM   12  C   UNL     1     -12.487  14.303  70.988  1.00  0.00    -0.432 A  
HETATM   13  C   UNL     1     -12.598  12.912  70.963  1.00  0.00    -0.376 A  
HETATM   14  C   UNL     1     -12.235  12.170  69.831  1.00  0.00    -0.170 A  
BRANCH  14  15
HETATM   15  N   UNL     1     -12.195  10.760  69.918  1.00  0.00    -0.405 NA 
HETATM   16  H   UNL     1     -12.832  10.286  69.279  1.00  0.00     0.000 HD 
BRANCH  15  17
HETATM   17  C   UNL     1     -11.426   9.880  70.737  1.00  0.00    -0.354 A  
HETATM   18  C   UNL     1     -12.101   9.220  71.796  1.00  0.00    -0.387 A  
HETATM   19  C   UNL     1     -11.501   8.200  72.543  1.00  0.00    -0.470 A  
HETATM   20 CL   UNL     1     -13.729   9.651  72.219  1.00  0.00    -0.445 Cl 
HETATM   21  C   UNL     1     -10.196   7.818  72.269  1.00  0.00    -0.285 A  
HETATM   22  C   UNL     1      -9.474   8.511  71.303  1.00  0.00    -0.265 A  
HETATM   23  C   UNL     1     -10.066   9.546  70.555  1.00  0.00    -0.285 A  
HETATM   24 CL   UNL     1      -9.020  10.263  69.379  1.00  0.00    -0.201 Cl 
ENDBRANCH  15  17
ENDBRANCH  14  15
ENDBRANCH   8   9
ENDBRANCH   6   8
ENDBRANCH   5   6
ENDBRANCH   4   5
TORSDOF 6
ENDMDL
MODEL        8
REMARK 921   NORMALIZED FREE ENERGY PREDICTED BY IDOCK:   -6.65 KCAL/MOL
REMARK 922        TOTAL FREE ENERGY PREDICTED BY IDOCK:   -9.94 KCAL/MOL
REMARK 923 INTER-LIGAND FREE ENERGY PREDICTED BY IDOCK:   -9.16 KCAL/MOL
REMARK 924 INTRA-LIGAND FREE ENERGY PREDICTED BY IDOCK:   -0.77 KCAL/MOL
REMARK 927      BINDING AFFINITY PREDICTED BY RF-SCORE:    0.00 PKD
ROOT
HETATM    1  O   UNL     1     -11.648  16.239  63.860  1.00  0.00    -0.987 OA 
HETATM    2  C   UNL     1     -12.100  15.022  64.248  1.00  0.00    -0.306 C  
HETATM    3  O   UNL     1     -12.707  14.284  63.488  1.00  0.00    -0.767 OA 
HETATM    4  C   UNL     1     -11.768  14.699  65.700  1.00  0.00    -0.304 C  
ENDROOT
BRANCH   4   5
HETATM    5  O   UNL     1     -12.327  13.433  66.076  1.00  0.00    -0.430 OA 
BRANCH   5   6
HETATM    6  C   UNL     1     -11.669  12.754  67.052  1.00  0.00    -0.374 C  
HETATM    7  O   UNL     1     -11.852  11.583  67.340  1.00  0.00    -0.607 OA 
BRANCH   6   8
HETATM    8  C   UNL     1     -10.672  13.667  67.742  1.00  0.00    -0.255 C  
BRANCH   8   9
HETATM    9  C   UNL     1     -11.197  14.308  69.006  1.00  0.00    -0.294 A  
HETATM   10  C   UNL     1     -11.935  13.491  69.887  1.00  0.00    -0.416 A  
HETATM   11  C   UNL     1     -12.430  13.990  71.090  1.00  0.00    -0.447 A  
HETATM   12  C   UNL     1     -12.164  15.301  71.454  1.00  0.00    -0.414 A  
HETATM   13  C   UNL     1     -11.457  16.131  70.583  1.00  0.00    -0.386 A  
HETATM   14  C   UNL     1     -11.014  15.671  69.334  1.00  0.00    -0.283 A  
BRANCH  14  15
HETATM   15  N   UNL     1     -10.464  16.595  68.418  1.00  0.00    -0.303 NA 
HETATM   16  H   UNL     1     -11.008  16.705  67.562  1.00  0.00     0.000 HD 
BRANCH  15  17
HETATM   17  C   UNL     1      -9.288  17.401  68.470  1.00  0.00    -0.281 A  
HETATM   18  C   UNL     1      -9.414  18.762  68.093  1.00  0.00    -0.326 A  
HETATM   19  C   UNL     1      -8.381  19.687  68.280  1.00  0.00    -0.354 A  
HETATM   20 CL   UNL     1     -10.879  19.355  67.374  1.00  0.00    -0.598 Cl 
HETATM   21  C   UNL     1      -7.176  19.277  68.833  1.00  0.00    -0.393 A  
HETATM   22  C   UNL     1      -6.986  17.930  69.122  1.00  0.00    -0.208 A  
HETATM   23  C   UNL     1      -8.016  16.991  68.926  1.00  0.00    -0.217 A  
HETATM   24 CL   UNL     1      -7.600  15.373  69.376  1.00  0.00    -0.213 Cl 
ENDBRANCH  15  17
ENDBRANCH  14  15
ENDBRANCH   8   9
ENDBRANCH   6   8
ENDBRANCH   5   6
ENDBRANCH   4   5
TORSDOF 6
ENDMDL
MODEL        9
REMARK 921   NORMALIZED FREE ENERGY PREDICTED BY IDOCK:   -6.65 KCAL/MOL
REMARK 922        TOTAL FREE ENERGY PREDICTED BY IDOCK:   -9.94 KCAL/MOL
REMARK 923 INTER-LIGAND FREE ENERGY PREDICTED BY IDOCK:   -8.99 KCAL/MOL
REMARK 924 INTRA-LIGAND FREE ENERGY PREDICTED BY IDOCK:   -0.95 KCAL/MOL
REMARK 927      BINDING AFFINITY PREDICTED BY RF-SCORE:    0.00 PKD
ROOT
HETATM    1  O   UNL     1     -12.747  12.230  63.723  1.00  0.00    -0.693 OA 
HETATM    2  C   UNL     1     -11.877  12.994  64.427  1.00  0.00    -0.386 C  
HETATM    3  O   UNL     1     -10.727  12.641  64.636  1.00  0.00    -0.294 OA 
HETATM    4  C   UNL     1     -12.490  14.304  64.909  1.00  0.00    -0.390 C  
ENDROOT
BRANCH   4   5
HETATM    5  O   UNL     1     -11.550  15.039  65.703  1.00  0.00    -0.302 OA 
BRANCH   5   6
HETATM    6  C   UNL     1     -10.932  16.081  65.088  1.00  0.00    -0.348 C  
HETATM    7  O   UNL     1     -11.331  16.640  64.080  1.00  0.00    -1.120 OA 
BRANCH   6   8
HETATM    8  C   UNL     1      -9.661  16.448  65.833  1.00  0.00    -0.327 C  
BRANCH   8   9
HETATM    9  C   UNL     1      -9.828  17.589  66.810  1.00  0.00    -0.306 A  
HETATM   10  C   UNL     1     -10.036  18.875  66.271  1.00  0.00    -0.460 A  
HETATM   11  C   UNL     1     -10.231  19.981  67.096  1.00  0.00    -0.580 A  
HETATM   12  C   UNL     1     -10.262  19.816  68.473  1.00  0.00    -0.547 A  
HETATM   13  C   UNL     1     -10.032  18.555  69.024  1.00  0.00    -0.323 A  
HETATM   14  C   UNL     1      -9.760  17.442  68.214  1.00  0.00    -0.299 A  
BRANCH  14  15
HETATM   15  N   UNL     1      -9.358  16.232  68.822  1.00  0.00    -0.225 NA 
HETATM   16  H   UNL     1      -8.432  16.269  69.248  1.00  0.00     0.000 HD 
BRANCH  15  17
HETATM   17  C   UNL     1     -10.010  14.969  68.948  1.00  0.00    -0.236 A  
HETATM   18  C   UNL     1     -11.118  14.894  69.831  1.00  0.00    -0.259 A  
HETATM   19  C   UNL     1     -11.945  13.767  69.895  1.00  0.00    -0.412 A  
HETATM   20 CL   UNL     1     -11.508  16.216  70.885  1.00  0.00    -0.444 Cl 
HETATM   21  C   UNL     1     -11.680  12.667  69.093  1.00  0.00    -0.375 A  
HETATM   22  C   UNL     1     -10.545  12.671  68.289  1.00  0.00    -0.250 A  
HETATM   23  C   UNL     1      -9.702  13.796  68.226  1.00  0.00    -0.231 A  
HETATM   24 CL   UNL     1      -8.362  13.623  67.145  1.00  0.00    -0.181 Cl 
ENDBRANCH  15  17
ENDBRANCH  14  15
ENDBRANCH   8   9
ENDBRANCH   6   8
ENDBRANCH   5   6
ENDBRANCH   4   5
TORSDOF 6
ENDMDL
MODEL       10
REMARK 921   NORMALIZED FREE ENERGY PREDICTED BY IDOCK:   -6.60 KCAL/MOL
REMARK 922        TOTAL FREE ENERGY PREDICTED BY IDOCK:   -9.87 KCAL/MOL
REMARK 923 INTER-LIGAND FREE ENERGY PREDICTED BY IDOCK:   -9.02 KCAL/MOL
REMARK 924 INTRA-LIGAND FREE ENERGY PREDICTED BY IDOCK:   -0.86 KCAL/MOL
REMARK 927      BINDING AFFINITY PREDICTED BY RF-SCORE:    0.00 PKD
ROOT
HETATM    1  O   UNL     1     -11.089  10.986  63.476  1.00  0.00    -0.193 OA 
HETATM    2  C   UNL     1     -11.813  12.116  63.666  1.00  0.00    -0.516 C  
HETATM    3  O   UNL     1     -13.009  12.167  63.426  1.00  0.00    -0.776 OA 
HETATM    4  C   UNL     1     -10.978  13.276  64.198  1.00  0.00    -0.354 C  
ENDROOT
BRANCH   4   5
HETATM    5  O   UNL     1     -11.776  14.461  64.315  1.00  0.00    -0.376 OA 
BRANCH   5   6
HETATM    6  C   UNL     1     -11.151  15.557  64.818  1.00  0.00    -0.407 C  
HETATM    7  O   UNL     1     -11.315  16.701  64.427  1.00  0.00    -1.023 OA 
BRANCH   6   8
HETATM    8  C   UNL     1     -10.209  15.153  65.938  1.00  0.00    -0.345 C  
BRANCH   8   9
HETATM    9  C   UNL     1     -10.858  15.106  67.302  1.00  0.00    -0.316 A  
HETATM   10  C   UNL     1     -11.427  13.881  67.705  1.00  0.00    -0.354 A  
HETATM   11  C   UNL     1     -12.019  13.737  68.957  1.00  0.00    -0.399 A  
HETATM   12  C   UNL     1     -12.019  14.802  69.846  1.00  0.00    -0.378 A  
HETATM   13  C   UNL     1     -11.484  16.030  69.454  1.00  0.00    -0.336 A  
HETATM   14  C   UNL     1     -10.950  16.217  68.170  1.00  0.00    -0.343 A  
BRANCH  14  15
HETATM   15  N   UNL     1     -10.588  17.520  67.761  1.00  0.00    -0.381 NA 
HETATM   16  H   UNL     1     -11.381  18.129  67.563  1.00  0.00     0.000 HD 
BRANCH  15  17
HETATM   17  C   UNL     1      -9.315  18.138  67.574  1.00  0.00    -0.258 A  
HETATM   18  C   UNL     1      -9.262  19.273  66.725  1.00  0.00    -0.323 A  
HETATM   19  C   UNL     1      -8.115  20.068  66.615  1.00  0.00    -0.351 A  
HETATM   20 CL   UNL     1     -10.636  19.738  65.772  1.00  0.00    -0.597 Cl 
HETATM   21  C   UNL     1      -6.976  19.744  67.335  1.00  0.00    -0.251 A  
HETATM   22  C   UNL     1      -6.964  18.582  68.100  1.00  0.00    -0.246 A  
HETATM   23  C   UNL     1      -8.108  17.771  68.209  1.00  0.00    -0.283 A  
HETATM   24 CL   UNL     1      -7.910  16.391  69.232  1.00  0.00    -0.212 Cl 
ENDBRANCH  15  17
ENDBRANCH  14  15
ENDBRANCH   8   9
ENDBRANCH   6   8
ENDBRANCH   5   6
ENDBRANCH   4   5
TORSDOF 6
ENDMDL
MODEL       11
REMARK 921   NORMALIZED FREE ENERGY PREDICTED BY IDOCK:   -6.50 KCAL/MOL
REMARK 922        TOTAL FREE ENERGY PREDICTED BY IDOCK:   -9.74 KCAL/MOL
REMARK 923 INTER-LIGAND FREE ENERGY PREDICTED BY IDOCK:   -8.86 KCAL/MOL
REMARK 924 INTRA-LIGAND FREE ENERGY PREDICTED BY IDOCK:   -0.88 KCAL/MOL
REMARK 927      BINDING AFFINITY PREDICTED BY RF-SCORE:    0.00 PKD
ROOT
HETATM    1  O   UNL     1      -9.200  10.601  62.833  1.00  0.00    -0.237 OA 
HETATM    2  C   UNL     1     -10.105  10.954  63.779  1.00  0.00    -0.353 C  
HETATM    3  O   UNL     1     -10.231  10.330  64.820  1.00  0.00    -0.329 OA 
HETATM    4  C   UNL     1     -10.918  12.185  63.393  1.00  0.00    -0.412 C  
ENDROOT
BRANCH   4   5
HETATM    5  O   UNL     1     -11.903  12.472  64.395  1.00  0.00    -0.345 OA 
BRANCH   5   6
HETATM    6  C   UNL     1     -12.364  13.750  64.432  1.00  0.00    -0.344 C  
HETATM    7  O   UNL     1     -12.562  14.455  63.456  1.00  0.00    -0.784 OA 
BRANCH   6   8
HETATM    8  C   UNL     1     -12.594  14.180  65.869  1.00  0.00    -0.447 C  
BRANCH   8   9
HETATM    9  C   UNL     1     -11.373  14.765  66.540  1.00  0.00    -0.344 A  
HETATM   10  C   UNL     1     -10.235  14.980  65.736  1.00  0.00    -0.361 A  
HETATM   11  C   UNL     1      -9.075  15.543  66.262  1.00  0.00    -0.369 A  
HETATM   12  C   UNL     1      -9.043  15.940  67.591  1.00  0.00    -0.200 A  
HETATM   13  C   UNL     1     -10.152  15.711  68.407  1.00  0.00    -0.214 A  
HETATM   14  C   UNL     1     -11.302  15.078  67.916  1.00  0.00    -0.333 A  
BRANCH  14  15
HETATM   15  N   UNL     1     -12.322  14.708  68.821  1.00  0.00    -0.588 NA 
HETATM   16  H   UNL     1     -13.167  15.275  68.750  1.00  0.00     0.000 HD 
BRANCH  15  17
HETATM   17  C   UNL     1     -12.386  13.688  69.817  1.00  0.00    -0.228 A  
HETATM   18  C   UNL     1     -12.923  14.045  71.080  1.00  0.00    -0.332 A  
HETATM   19  C   UNL     1     -13.207  13.093  72.066  1.00  0.00    -0.543 A  
HETATM   20 CL   UNL     1     -13.264  15.702  71.468  1.00  0.00    -0.565 Cl 
HETATM   21  C   UNL     1     -12.943  11.752  71.829  1.00  0.00    -0.466 A  
HETATM   22  C   UNL     1     -12.324  11.381  70.640  1.00  0.00    -0.466 A  
HETATM   23  C   UNL     1     -12.026  12.333  69.648  1.00  0.00    -0.279 A  
HETATM   24 CL   UNL     1     -11.292  11.676  68.226  1.00  0.00    -0.318 Cl 
ENDBRANCH  15  17
ENDBRANCH  14  15
ENDBRANCH   8   9
ENDBRANCH   6   8
ENDBRANCH   5   6
ENDBRANCH   4   5
TORSDOF 6
ENDMDL
MODEL       12
REMARK 921   NORMALIZED FREE ENERGY PREDICTED BY IDOCK:   -6.48 KCAL/MOL
REMARK 922        TOTAL FREE ENERGY PREDICTED BY IDOCK:   -9.71 KCAL/MOL
REMARK 923 INTER-LIGAND FREE ENERGY PREDICTED BY IDOCK:   -8.85 KCAL/MOL
REMARK 924 INTRA-LIGAND FREE ENERGY PREDICTED BY IDOCK:   -0.86 KCAL/MOL
REMARK 927      BINDING AFFINITY PREDICTED BY RF-SCORE:    0.00 PKD
ROOT
HETATM    1  O   UNL     1     -12.765  14.890  63.834  1.00  0.00    -0.789 OA 
HETATM    2  C   UNL     1     -12.698  13.714  64.504  1.00  0.00    -0.089 C  
HETATM    3  O   UNL     1     -12.979  12.650  63.975  1.00  0.00    -0.712 OA 
HETATM    4  C   UNL     1     -12.244  13.878  65.950  1.00  0.00    -0.467 C  
ENDROOT
BRANCH   4   5
HETATM    5  O   UNL     1     -12.256  12.615  66.630  1.00  0.00    -0.517 OA 
BRANCH   5   6
HETATM    6  C   UNL     1     -11.106  12.263  67.260  1.00  0.00    -0.275 C  
HETATM    7  O   UNL     1     -10.015  12.778  67.074  1.00  0.00    -0.225 OA 
BRANCH   6   8
HETATM    8  C   UNL     1     -11.369  11.127  68.232  1.00  0.00    -0.365 C  
BRANCH   8   9
HETATM    9  C   UNL     1     -11.967  11.569  69.548  1.00  0.00    -0.402 A  
HETATM   10  C   UNL     1     -11.917  12.945  69.851  1.00  0.00    -0.377 A  
HETATM   11  C   UNL     1     -12.470  13.445  71.028  1.00  0.00    -0.437 A  
HETATM   12  C   UNL     1     -13.118  12.588  71.904  1.00  0.00    -0.473 A  
HETATM   13  C   UNL     1     -13.154  11.219  71.632  1.00  0.00    -0.513 A  
HETATM   14  C   UNL     1     -12.539  10.685  70.491  1.00  0.00    -0.348 A  
BRANCH  14  15
HETATM   15  N   UNL     1     -12.447   9.282  70.354  1.00  0.00    -0.404 NA 
HETATM   16  H   UNL     1     -12.955   8.908  69.553  1.00  0.00     0.000 HD 
BRANCH  15  17
HETATM   17  C   UNL     1     -11.774   8.292  71.132  1.00  0.00    -0.280 A  
HETATM   18  C   UNL     1     -12.563   7.254  71.688  1.00  0.00    -0.368 A  
HETATM   19  C   UNL     1     -11.994   6.135  72.307  1.00  0.00    -0.285 A  
HETATM   20 CL   UNL     1     -14.296   7.320  71.624  1.00  0.00    -0.588 Cl 
HETATM   21  C   UNL     1     -10.615   6.026  72.409  1.00  0.00    -0.254 A  
HETATM   22  C   UNL     1      -9.817   7.073  71.962  1.00  0.00    -0.171 A  
HETATM   23  C   UNL     1     -10.381   8.207  71.348  1.00  0.00    -0.208 A  
HETATM   24 CL   UNL     1      -9.225   9.385  70.827  1.00  0.00    -0.305 Cl 
ENDBRANCH  15  17
ENDBRANCH  14  15
ENDBRANCH   8   9
ENDBRANCH   6   8
ENDBRANCH   5   6
ENDBRANCH   4   5
TORSDOF 6
ENDMDL
MODEL       13
REMARK 921   NORMALIZED FREE ENERGY PREDICTED BY IDOCK:   -6.45 KCAL/MOL
REMARK 922        TOTAL FREE ENERGY PREDICTED BY IDOCK:   -9.67 KCAL/MOL
REMARK 923 INTER-LIGAND FREE ENERGY PREDICTED BY IDOCK:   -8.60 KCAL/MOL
REMARK 924 INTRA-LIGAND FREE ENERGY PREDICTED BY IDOCK:   -1.08 KCAL/MOL
REMARK 927      BINDING AFFINITY PREDICTED BY RF-SCORE:    0.00 PKD
ROOT
HETATM    1  O   UNL     1     -12.782  15.889  74.411  1.00  0.00    -0.629 OA 
HETATM    2  C   UNL     1     -13.057  15.848  73.085  1.00  0.00    -0.572 C  
HETATM    3  O   UNL     1     -14.175  15.597  72.663  1.00  0.00    -0.546 OA 
HETATM    4  C   UNL     1     -11.840  16.142  72.215  1.00  0.00    -0.536 C  
ENDROOT
BRANCH   4   5
HETATM    5  O   UNL     1     -12.171  16.018  70.825  1.00  0.00    -0.374 OA 
BRANCH   5   6
HETATM    6  C   UNL     1     -11.278  15.342  70.055  1.00  0.00    -0.300 C  
HETATM    7  O   UNL     1     -10.065  15.449  70.126  1.00  0.00    -0.281 OA 
BRANCH   6   8
HETATM    8  C   UNL     1     -12.010  14.433  69.084  1.00  0.00    -0.357 C  
BRANCH   8   9
HETATM    9  C   UNL     1     -11.816  12.959  69.355  1.00  0.00    -0.371 A  
HETATM   10  C   UNL     1     -12.378  12.441  70.540  1.00  0.00    -0.346 A  
HETATM   11  C   UNL     1     -12.275  11.088  70.855  1.00  0.00    -0.471 A  
HETATM   12  C   UNL     1     -11.645  10.221  69.975  1.00  0.00    -0.349 A  
HETATM   13  C   UNL     1     -11.062  10.721  68.810  1.00  0.00    -0.312 A  
HETATM   14  C   UNL     1     -11.089  12.091  68.510  1.00  0.00    -0.244 A  
BRANCH  14  15
HETATM   15  N   UNL     1     -10.332  12.569  67.417  1.00  0.00    -0.215 NA 
HETATM   16  H   UNL     1      -9.624  13.258  67.671  1.00  0.00     0.000 HD 
BRANCH  15  17
HETATM   17  C   UNL     1     -10.377  12.265  66.023  1.00  0.00    -0.245 A  
HETATM   18  C   UNL     1      -9.389  11.382  65.518  1.00  0.00    -0.208 A  
HETATM   19  C   UNL     1      -9.444  10.868  64.217  1.00  0.00    -0.289 A  
HETATM   20 CL   UNL     1      -8.048  10.887  66.502  1.00  0.00    -0.149 Cl 
HETATM   21  C   UNL     1     -10.479  11.236  63.370  1.00  0.00    -0.424 A  
HETATM   22  C   UNL     1     -11.409  12.176  63.802  1.00  0.00    -0.529 A  
HETATM   23  C   UNL     1     -11.355  12.706  65.105  1.00  0.00    -0.308 A  
HETATM   24 CL   UNL     1     -12.616  13.833  65.468  1.00  0.00    -0.542 Cl 
ENDBRANCH  15  17
ENDBRANCH  14  15
ENDBRANCH   8   9
ENDBRANCH   6   8
ENDBRANCH   5   6
ENDBRANCH   4   5
TORSDOF 6
ENDMDL
MODEL       14
REMARK 921   NORMALIZED FREE ENERGY PREDICTED BY IDOCK:   -6.45 KCAL/MOL
REMARK 922        TOTAL FREE ENERGY PREDICTED BY IDOCK:   -9.67 KCAL/MOL
REMARK 923 INTER-LIGAND FREE ENERGY PREDICTED BY IDOCK:   -8.81 KCAL/MOL
REMARK 924 INTRA-LIGAND FREE ENERGY PREDICTED BY IDOCK:   -0.86 KCAL/MOL
REMARK 927      BINDING AFFINITY PREDICTED BY RF-SCORE:    0.00 PKD
ROOT
HETATM    1  O   UNL     1      -9.712  10.394  62.818  1.00  0.00    -0.312 OA 
HETATM    2  C   UNL     1      -9.811  11.318  63.804  1.00  0.00    -0.322 C  
HETATM    3  O   UNL     1      -9.130  11.262  64.816  1.00  0.00    -0.142 OA 
HETATM    4  C   UNL     1     -10.844  12.399  63.505  1.00  0.00    -0.438 C  
ENDROOT
BRANCH   4   5
HETATM    5  O   UNL     1     -10.957  13.308  64.608  1.00  0.00    -0.331 OA 
BRANCH   5   6
HETATM    6  C   UNL     1     -12.089  13.209  65.352  1.00  0.00    -0.433 C  
HETATM    7  O   UNL     1     -13.163  12.794  64.949  1.00  0.00    -0.808 OA 
BRANCH   6   8
HETATM    8  C   UNL     1     -11.829  13.699  66.766  1.00  0.00    -0.452 C  
BRANCH   8   9
HETATM    9  C   UNL     1     -11.731  12.593  67.792  1.00  0.00    -0.412 A  
HETATM   10  C   UNL     1     -11.344  11.317  67.332  1.00  0.00    -0.349 A  
HETATM   11  C   UNL     1     -11.199  10.247  68.212  1.00  0.00    -0.295 A  
HETATM   12  C   UNL     1     -11.397  10.440  69.571  1.00  0.00    -0.325 A  
HETATM   13  C   UNL     1     -11.806  11.689  70.040  1.00  0.00    -0.435 A  
HETATM   14  C   UNL     1     -12.031  12.761  69.163  1.00  0.00    -0.246 A  
BRANCH  14  15
HETATM   15  N   UNL     1     -12.614  13.946  69.663  1.00  0.00    -0.344 NA 
HETATM   16  H   UNL     1     -13.206  14.434  68.990  1.00  0.00     0.000 HD 
BRANCH  15  17
HETATM   17  C   UNL     1     -12.526  14.586  70.935  1.00  0.00    -0.345 A  
HETATM   18  C   UNL     1     -11.686  15.724  71.035  1.00  0.00    -0.422 A  
HETATM   19  C   UNL     1     -11.665  16.538  72.173  1.00  0.00    -0.330 A  
HETATM   20 CL   UNL     1     -10.631  16.170  69.731  1.00  0.00    -0.305 Cl 
HETATM   21  C   UNL     1     -12.470  16.230  73.260  1.00  0.00    -0.591 A  
HETATM   22  C   UNL     1     -13.231  15.066  73.232  1.00  0.00    -0.537 A  
HETATM   23  C   UNL     1     -13.250  14.236  72.096  1.00  0.00    -0.402 A  
HETATM   24 CL   UNL     1     -14.283  12.856  72.239  1.00  0.00    -0.239 Cl 
ENDBRANCH  15  17
ENDBRANCH  14  15
ENDBRANCH   8   9
ENDBRANCH   6   8
ENDBRANCH   5   6
ENDBRANCH   4   5
TORSDOF 6
ENDMDL
MODEL       15
REMARK 921   NORMALIZED FREE ENERGY PREDICTED BY IDOCK:   -6.43 KCAL/MOL
REMARK 922        TOTAL FREE ENERGY PREDICTED BY IDOCK:   -9.65 KCAL/MOL
REMARK 923 INTER-LIGAND FREE ENERGY PREDICTED BY IDOCK:   -8.41 KCAL/MOL
REMARK 924 INTRA-LIGAND FREE ENERGY PREDICTED BY IDOCK:   -1.23 KCAL/MOL
REMARK 927      BINDING AFFINITY PREDICTED BY RF-SCORE:    0.00 PKD
ROOT
HETATM    1  O   UNL     1     -10.962  17.697  65.034  1.00  0.00    -0.780 OA 
HETATM    2  C   UNL     1     -10.079  17.287  65.977  1.00  0.00    -0.262 C  
HETATM    3  O   UNL     1      -9.066  16.669  65.690  1.00  0.00    -0.477 OA 
HETATM    4  C   UNL     1     -10.492  17.681  67.391  1.00  0.00    -0.356 C  
ENDROOT
BRANCH   4   5
HETATM    5  O   UNL     1      -9.561  17.165  68.351  1.00  0.00    -0.261 OA 
BRANCH   5   6
HETATM    6  C   UNL     1     -10.021  16.176  69.160  1.00  0.00    -0.251 C  
HETATM    7  O   UNL     1      -9.340  15.280  69.634  1.00  0.00    -0.238 OA 
BRANCH   6   8
HETATM    8  C   UNL     1     -11.513  16.339  69.388  1.00  0.00    -0.238 C  
BRANCH   8   9
HETATM    9  C   UNL     1     -12.024  15.652  70.633  1.00  0.00    -0.438 A  
HETATM   10  C   UNL     1     -11.795  16.295  71.867  1.00  0.00    -0.538 A  
HETATM   11  C   UNL     1     -12.258  15.749  73.062  1.00  0.00    -0.593 A  
HETATM   12  C   UNL     1     -12.992  14.573  73.044  1.00  0.00    -0.596 A  
HETATM   13  C   UNL     1     -13.206  13.910  71.835  1.00  0.00    -0.480 A  
HETATM   14  C   UNL     1     -12.685  14.403  70.630  1.00  0.00    -0.357 A  
BRANCH  14  15
HETATM   15  N   UNL     1     -12.774  13.606  69.467  1.00  0.00    -0.085 NA 
HETATM   16  H   UNL     1     -13.622  13.759  68.921  1.00  0.00     0.000 HD 
BRANCH  15  17
HETATM   17  C   UNL     1     -11.895  12.625  68.916  1.00  0.00    -0.302 A  
HETATM   18  C   UNL     1     -11.304  12.914  67.660  1.00  0.00    -0.303 A  
HETATM   19  C   UNL     1     -10.289  12.119  67.113  1.00  0.00    -0.233 A  
HETATM   20 CL   UNL     1     -11.815  14.286  66.729  1.00  0.00    -0.431 Cl 
HETATM   21  C   UNL     1      -9.845  10.997  67.796  1.00  0.00    -0.190 A  
HETATM   22  C   UNL     1     -10.472  10.632  68.982  1.00  0.00    -0.237 A  
HETATM   23  C   UNL     1     -11.500  11.419  69.534  1.00  0.00    -0.312 A  
HETATM   24 CL   UNL     1     -12.130  10.821  71.030  1.00  0.00    -0.457 Cl 
ENDBRANCH  15  17
ENDBRANCH  14  15
ENDBRANCH   8   9
ENDBRANCH   6   8
ENDBRANCH   5   6
ENDBRANCH   4   5
TORSDOF 6
ENDMDL
MODEL       16
REMARK 921   NORMALIZED FREE ENERGY PREDICTED BY IDOCK:   -6.41 KCAL/MOL
REMARK 922        TOTAL FREE ENERGY PREDICTED BY IDOCK:   -9.62 KCAL/MOL
REMARK 923 INTER-LIGAND FREE ENERGY PREDICTED BY IDOCK:   -8.61 KCAL/MOL
REMARK 924 INTRA-LIGAND FREE ENERGY PREDICTED BY IDOCK:   -1.01 KCAL/MOL
REMARK 927      BINDING AFFINITY PREDICTED BY RF-SCORE:    0.00 PKD
ROOT
HETATM    1  O   UNL     1     -13.174  16.121  73.862  1.00  0.00    -0.649 OA 
HETATM    2  C   UNL     1     -13.281  15.750  72.563  1.00  0.00    -0.487 C  
HETATM    3  O   UNL     1     -14.282  15.205  72.125  1.00  0.00    -0.484 OA 
HETATM    4  C   UNL     1     -12.038  16.084  71.745  1.00  0.00    -0.499 C  
ENDROOT
BRANCH   4   5
HETATM    5  O   UNL     1     -12.178  15.609  70.399  1.00  0.00    -0.381 OA 
BRANCH   5   6
HETATM    6  C   UNL     1     -11.113  15.811  69.580  1.00  0.00    -0.306 C  
HETATM    7  O   UNL     1      -9.943  15.691  69.904  1.00  0.00    -0.283 OA 
BRANCH   6   8
HETATM    8  C   UNL     1     -11.588  16.215  68.196  1.00  0.00    -0.133 C  
BRANCH   8   9
HETATM    9  C   UNL     1     -11.281  15.200  67.119  1.00  0.00    -0.320 A  
HETATM   10  C   UNL     1     -11.754  13.886  67.316  1.00  0.00    -0.418 A  
HETATM   11  C   UNL     1     -11.544  12.893  66.362  1.00  0.00    -0.425 A  
HETATM   12  C   UNL     1     -10.894  13.203  65.176  1.00  0.00    -0.321 A  
HETATM   13  C   UNL     1     -10.397  14.492  64.976  1.00  0.00    -0.442 A  
HETATM   14  C   UNL     1     -10.532  15.486  65.955  1.00  0.00    -0.323 A  
BRANCH  14  15
HETATM   15  N   UNL     1      -9.858  16.716  65.783  1.00  0.00    -0.536 NA 
HETATM   16  H   UNL     1      -9.975  17.128  64.857  1.00  0.00     0.000 HD 
BRANCH  15  17
HETATM   17  C   UNL     1      -9.043  17.486  66.666  1.00  0.00    -0.269 A  
HETATM   18  C   UNL     1      -9.388  18.850  66.846  1.00  0.00    -0.309 A  
HETATM   19  C   UNL     1      -8.782  19.650  67.822  1.00  0.00    -0.372 A  
HETATM   20 CL   UNL     1     -10.597  19.601  65.853  1.00  0.00    -0.606 Cl 
HETATM   21  C   UNL     1      -7.795  19.118  68.638  1.00  0.00    -0.390 A  
HETATM   22  C   UNL     1      -7.365  17.813  68.421  1.00  0.00    -0.257 A  
HETATM   23  C   UNL     1      -7.961  17.005  67.435  1.00  0.00    -0.178 A  
HETATM   24 CL   UNL     1      -7.316  15.402  67.340  1.00  0.00    -0.226 Cl 
ENDBRANCH  15  17
ENDBRANCH  14  15
ENDBRANCH   8   9
ENDBRANCH   6   8
ENDBRANCH   5   6
ENDBRANCH   4   5
TORSDOF 6
ENDMDL
MODEL       17
REMARK 921   NORMALIZED FREE ENERGY PREDICTED BY IDOCK:   -6.41 KCAL/MOL
REMARK 922        TOTAL FREE ENERGY PREDICTED BY IDOCK:   -9.62 KCAL/MOL
REMARK 923 INTER-LIGAND FREE ENERGY PREDICTED BY IDOCK:   -8.84 KCAL/MOL
REMARK 924 INTRA-LIGAND FREE ENERGY PREDICTED BY IDOCK:   -0.78 KCAL/MOL
REMARK 927      BINDING AFFINITY PREDICTED BY RF-SCORE:    0.00 PKD
ROOT
HETATM    1  O   UNL     1     -11.546  16.493  63.761  1.00  0.00    -1.109 OA 
HETATM    2  C   UNL     1     -10.874  16.194  64.899  1.00  0.00    -0.334 C  
HETATM    3  O   UNL     1     -10.329  17.054  65.574  1.00  0.00    -0.585 OA 
HETATM    4  C   UNL     1     -10.881  14.704  65.221  1.00  0.00    -0.377 C  
ENDROOT
BRANCH   4   5
HETATM    5  O   UNL     1     -10.101  14.437  66.394  1.00  0.00    -0.268 OA 
BRANCH   5   6
HETATM    6  C   UNL     1      -9.872  13.128  66.676  1.00  0.00    -0.261 C  
HETATM    7  O   UNL     1      -8.772  12.603  66.735  1.00  0.00    -0.199 OA 
BRANCH   6   8
HETATM    8  C   UNL     1     -11.187  12.405  66.902  1.00  0.00    -0.359 C  
BRANCH   8   9
HETATM    9  C   UNL     1     -11.193  11.502  68.114  1.00  0.00    -0.335 A  
HETATM   10  C   UNL     1     -10.827  10.154  67.917  1.00  0.00    -0.336 A  
HETATM   11  C   UNL     1     -10.774   9.258  68.982  1.00  0.00    -0.189 A  
HETATM   12  C   UNL     1     -11.047   9.700  70.269  1.00  0.00    -0.327 A  
HETATM   13  C   UNL     1     -11.436  11.024  70.477  1.00  0.00    -0.241 A  
HETATM   14  C   UNL     1     -11.568  11.923  69.410  1.00  0.00    -0.325 A  
BRANCH  14  15
HETATM   15  N   UNL     1     -12.135  13.194  69.649  1.00  0.00    -0.287 NA 
HETATM   16  H   UNL     1     -12.597  13.603  68.837  1.00  0.00     0.000 HD 
BRANCH  15  17
HETATM   17  C   UNL     1     -12.180  14.011  70.819  1.00  0.00    -0.367 A  
HETATM   18  C   UNL     1     -11.432  15.215  70.801  1.00  0.00    -0.309 A  
HETATM   19  C   UNL     1     -11.546  16.180  71.809  1.00  0.00    -0.503 A  
HETATM   20 CL   UNL     1     -10.325  15.557  69.508  1.00  0.00    -0.252 Cl 
HETATM   21  C   UNL     1     -12.399  15.963  72.880  1.00  0.00    -0.593 A  
HETATM   22  C   UNL     1     -13.072  14.750  72.978  1.00  0.00    -0.614 A  
HETATM   23  C   UNL     1     -12.955  13.770  71.975  1.00  0.00    -0.345 A  
HETATM   24 CL   UNL     1     -13.895  12.345  72.256  1.00  0.00    -0.321 Cl 
ENDBRANCH  15  17
ENDBRANCH  14  15
ENDBRANCH   8   9
ENDBRANCH   6   8
ENDBRANCH   5   6
ENDBRANCH   4   5
TORSDOF 6
ENDMDL
MODEL       18
REMARK 921   NORMALIZED FREE ENERGY PREDICTED BY IDOCK:   -6.39 KCAL/MOL
REMARK 922        TOTAL FREE ENERGY PREDICTED BY IDOCK:   -9.59 KCAL/MOL
REMARK 923 INTER-LIGAND FREE ENERGY PREDICTED BY IDOCK:   -8.73 KCAL/MOL
REMARK 924 INTRA-LIGAND FREE ENERGY PREDICTED BY IDOCK:   -0.86 KCAL/MOL
REMARK 927      BINDING AFFINITY PREDICTED BY RF-SCORE:    0.00 PKD
ROOT
HETATM    1  O   UNL     1     -11.682  16.581  64.055  1.00  0.00    -1.111 OA 
HETATM    2  C   UNL     1     -11.728  15.248  64.298  1.00  0.00    -0.215 C  
HETATM    3  O   UNL     1     -12.649  14.549  63.904  1.00  0.00    -0.827 OA 
HETATM    4  C   UNL     1     -10.530  14.747  65.096  1.00  0.00    -0.418 C  
ENDROOT
BRANCH   4   5
HETATM    5  O   UNL     1     -10.663  13.348  65.383  1.00  0.00    -0.286 OA 
BRANCH   5   6
HETATM    6  C   UNL     1     -11.279  13.033  66.552  1.00  0.00    -0.302 C  
HETATM    7  O   UNL     1     -12.402  12.568  66.653  1.00  0.00    -0.483 OA 
BRANCH   6   8
HETATM    8  C   UNL     1     -10.366  13.349  67.724  1.00  0.00    -0.241 C  
BRANCH   8   9
HETATM    9  C   UNL     1     -11.037  14.124  68.834  1.00  0.00    -0.288 A  
HETATM   10  C   UNL     1     -11.908  13.413  69.684  1.00  0.00    -0.394 A  
HETATM   11  C   UNL     1     -12.546  14.040  70.752  1.00  0.00    -0.431 A  
HETATM   12  C   UNL     1     -12.294  15.378  71.016  1.00  0.00    -0.449 A  
HETATM   13  C   UNL     1     -11.455  16.103  70.170  1.00  0.00    -0.309 A  
HETATM   14  C   UNL     1     -10.862  15.511  69.046  1.00  0.00    -0.249 A  
BRANCH  14  15
HETATM   15  N   UNL     1     -10.170  16.327  68.124  1.00  0.00    -0.250 NA 
HETATM   16  H   UNL     1     -10.374  16.117  67.147  1.00  0.00     0.000 HD 
BRANCH  15  17
HETATM   17  C   UNL     1      -9.237  17.391  68.310  1.00  0.00    -0.271 A  
HETATM   18  C   UNL     1      -7.938  17.046  68.762  1.00  0.00    -0.248 A  
HETATM   19  C   UNL     1      -6.891  17.975  68.801  1.00  0.00    -0.260 A  
HETATM   20 CL   UNL     1      -7.578  15.433  69.292  1.00  0.00    -0.200 Cl 
HETATM   21  C   UNL     1      -7.113  19.286  68.408  1.00  0.00    -0.328 A  
HETATM   22  C   UNL     1      -8.399  19.680  68.054  1.00  0.00    -0.341 A  
HETATM   23  C   UNL     1      -9.460  18.756  68.022  1.00  0.00    -0.312 A  
HETATM   24 CL   UNL     1     -10.975  19.426  67.523  1.00  0.00    -0.520 Cl 
ENDBRANCH  15  17
ENDBRANCH  14  15
ENDBRANCH   8   9
ENDBRANCH   6   8
ENDBRANCH   5   6
ENDBRANCH   4   5
TORSDOF 6
ENDMDL
MODEL       19
REMARK 921   NORMALIZED FREE ENERGY PREDICTED BY IDOCK:   -6.39 KCAL/MOL
REMARK 922        TOTAL FREE ENERGY PREDICTED BY IDOCK:   -9.59 KCAL/MOL
REMARK 923 INTER-LIGAND FREE ENERGY PREDICTED BY IDOCK:   -8.74 KCAL/MOL
REMARK 924 INTRA-LIGAND FREE ENERGY PREDICTED BY IDOCK:   -0.85 KCAL/MOL
REMARK 927      BINDING AFFINITY PREDICTED BY RF-SCORE:    0.00 PKD
ROOT
HETATM    1  O   UNL     1     -13.034  15.926  74.069  1.00  0.00    -0.575 OA 
HETATM    2  C   UNL     1     -13.222  15.781  72.734  1.00  0.00    -0.518 C  
HETATM    3  O   UNL     1     -14.300  15.452  72.264  1.00  0.00    -0.550 OA 
HETATM    4  C   UNL     1     -11.965  16.069  71.921  1.00  0.00    -0.525 C  
ENDROOT
BRANCH   4   5
HETATM    5  O   UNL     1     -12.201  15.835  70.526  1.00  0.00    -0.387 OA 
BRANCH   5   6
HETATM    6  C   UNL     1     -11.451  14.862  69.947  1.00  0.00    -0.284 C  
HETATM    7  O   UNL     1     -10.280  14.976  69.622  1.00  0.00    -0.217 OA 
BRANCH   6   8
HETATM    8  C   UNL     1     -12.282  13.607  69.753  1.00  0.00    -0.350 C  
BRANCH   8   9
HETATM    9  C   UNL     1     -11.798  12.715  68.633  1.00  0.00    -0.342 A  
HETATM   10  C   UNL     1     -12.094  13.115  67.314  1.00  0.00    -0.329 A  
HETATM   11  C   UNL     1     -11.660  12.370  66.220  1.00  0.00    -0.449 A  
HETATM   12  C   UNL     1     -10.889  11.234  66.420  1.00  0.00    -0.306 A  
HETATM   13  C   UNL     1     -10.609  10.810  67.720  1.00  0.00    -0.266 A  
HETATM   14  C   UNL     1     -11.098  11.503  68.836  1.00  0.00    -0.232 A  
BRANCH  14  15
HETATM   15  N   UNL     1     -10.941  10.936  70.120  1.00  0.00    -0.468 NA 
HETATM   16  H   UNL     1     -10.296  11.446  70.724  1.00  0.00     0.000 HD 
BRANCH  15  17
HETATM   17  C   UNL     1     -11.517   9.780  70.726  1.00  0.00    -0.342 A  
HETATM   18  C   UNL     1     -12.662   9.974  71.541  1.00  0.00    -0.429 A  
HETATM   19  C   UNL     1     -13.418   8.904  72.033  1.00  0.00    -0.482 A  
HETATM   20 CL   UNL     1     -13.188  11.572  71.971  1.00  0.00    -0.568 Cl 
HETATM   21  C   UNL     1     -13.044   7.601  71.742  1.00  0.00    -0.359 A  
HETATM   22  C   UNL     1     -11.871   7.374  71.029  1.00  0.00    -0.336 A  
HETATM   23  C   UNL     1     -11.099   8.444  70.540  1.00  0.00    -0.252 A  
HETATM   24 CL   UNL     1      -9.697   7.962  69.647  1.00  0.00    -0.172 Cl 
ENDBRANCH  15  17
ENDBRANCH  14  15
ENDBRANCH   8   9
ENDBRANCH   6   8
ENDBRANCH   5   6
ENDBRANCH   4   5
TORSDOF 6
ENDMDL
MODEL       20
REMARK 921   NORMALIZED FREE ENERGY PREDICTED BY IDOCK:   -6.37 KCAL/MOL
REMARK 922        TOTAL FREE ENERGY PREDICTED BY IDOCK:   -9.57 KCAL/MOL
REMARK 923 INTER-LIGAND FREE ENERGY PREDICTED BY IDOCK:   -8.40 KCAL/MOL
REMARK 924 INTRA-LIGAND FREE ENERGY PREDICTED BY IDOCK:   -1.17 KCAL/MOL
REMARK 927      BINDING AFFINITY PREDICTED BY RF-SCORE:    0.00 PKD
ROOT
HETATM    1  O   UNL     1     -11.185   8.208  72.669  1.00  0.00    -0.370 OA 
HETATM    2  C   UNL     1     -10.192   8.590  71.829  1.00  0.00    -0.282 C  
HETATM    3  O   UNL     1      -9.095   8.935  72.239  1.00  0.00    -0.381 OA 
HETATM    4  C   UNL     1     -10.601   8.540  70.362  1.00  0.00    -0.223 C  
ENDROOT
BRANCH   4   5
HETATM    5  O   UNL     1      -9.539   9.019  69.525  1.00  0.00    -0.160 OA 
BRANCH   5   6
HETATM    6  C   UNL     1      -9.724  10.241  68.963  1.00  0.00    -0.205 C  
HETATM    7  O   UNL     1      -8.867  11.103  68.853  1.00  0.00    -0.153 OA 
BRANCH   6   8
HETATM    8  C   UNL     1     -11.161  10.389  68.495  1.00  0.00    -0.318 C  
BRANCH   8   9
HETATM    9  C   UNL     1     -11.417  11.633  67.677  1.00  0.00    -0.373 A  
HETATM   10  C   UNL     1     -11.510  11.479  66.278  1.00  0.00    -0.124 A  
HETATM   11  C   UNL     1     -11.775  12.566  65.448  1.00  0.00    -0.444 A  
HETATM   12  C   UNL     1     -11.991  13.820  66.002  1.00  0.00    -0.443 A  
HETATM   13  C   UNL     1     -11.878  13.994  67.382  1.00  0.00    -0.445 A  
HETATM   14  C   UNL     1     -11.538  12.929  68.228  1.00  0.00    -0.335 A  
BRANCH  14  15
HETATM   15  N   UNL     1     -11.259  13.193  69.587  1.00  0.00    -0.474 NA 
HETATM   16  H   UNL     1     -10.298  12.991  69.862  1.00  0.00     0.000 HD 
BRANCH  15  17
HETATM   17  C   UNL     1     -12.076  13.690  70.647  1.00  0.00    -0.323 A  
HETATM   18  C   UNL     1     -12.103  15.095  70.844  1.00  0.00    -0.334 A  
HETATM   19  C   UNL     1     -13.003  15.708  71.722  1.00  0.00    -0.541 A  
HETATM   20 CL   UNL     1     -11.006  16.135  69.990  1.00  0.00    -0.350 Cl 
HETATM   21  C   UNL     1     -13.896  14.934  72.450  1.00  0.00    -0.587 A  
HETATM   22  C   UNL     1     -13.829  13.549  72.353  1.00  0.00    -0.687 A  
HETATM   23  C   UNL     1     -12.919  12.923  71.480  1.00  0.00    -0.294 A  
HETATM   24 CL   UNL     1     -13.010  11.196  71.473  1.00  0.00    -0.556 Cl 
ENDBRANCH  15  17
ENDBRANCH  14  15
ENDBRANCH   8   9
ENDBRANCH   6   8
ENDBRANCH   5   6
ENDBRANCH   4   5
TORSDOF 6
ENDMDL
MODEL       21
REMARK 921   NORMALIZED FREE ENERGY PREDICTED BY IDOCK:   -6.34 KCAL/MOL
REMARK 922        TOTAL FREE ENERGY PREDICTED BY IDOCK:   -9.52 KCAL/MOL
REMARK 923 INTER-LIGAND FREE ENERGY PREDICTED BY IDOCK:   -8.68 KCAL/MOL
REMARK 924 INTRA-LIGAND FREE ENERGY PREDICTED BY IDOCK:   -0.84 KCAL/MOL
REMARK 927      BINDING AFFINITY PREDICTED BY RF-SCORE:    0.00 PKD
ROOT
HETATM    1  O   UNL     1     -12.842  11.869  63.163  1.00  0.00    -0.636 OA 
HETATM    2  C   UNL     1     -12.208  12.935  63.708  1.00  0.00    -0.476 C  
HETATM    3  O   UNL     1     -12.497  14.083  63.409  1.00  0.00    -0.826 OA 
HETATM    4  C   UNL     1     -11.125  12.538  64.705  1.00  0.00    -0.306 C  
ENDROOT
BRANCH   4   5
HETATM    5  O   UNL     1     -10.442  13.698  65.197  1.00  0.00    -0.333 OA 
BRANCH   5   6
HETATM    6  C   UNL     1     -10.432  13.860  66.546  1.00  0.00    -0.282 C  
HETATM    7  O   UNL     1      -9.460  14.184  67.209  1.00  0.00    -0.215 OA 
BRANCH   6   8
HETATM    8  C   UNL     1     -11.810  13.573  67.116  1.00  0.00    -0.430 C  
BRANCH   8   9
HETATM    9  C   UNL     1     -11.951  13.909  68.583  1.00  0.00    -0.401 A  
HETATM   10  C   UNL     1     -11.873  15.269  68.946  1.00  0.00    -0.344 A  
HETATM   11  C   UNL     1     -12.022  15.673  70.270  1.00  0.00    -0.398 A  
HETATM   12  C   UNL     1     -12.293  14.730  71.252  1.00  0.00    -0.390 A  
HETATM   13  C   UNL     1     -12.348  13.377  70.914  1.00  0.00    -0.436 A  
HETATM   14  C   UNL     1     -12.126  12.942  69.600  1.00  0.00    -0.226 A  
BRANCH  14  15
HETATM   15  N   UNL     1     -12.014  11.558  69.344  1.00  0.00    -0.326 NA 
HETATM   16  H   UNL     1     -12.561  11.236  68.546  1.00  0.00     0.000 HD 
BRANCH  15  17
HETATM   17  C   UNL     1     -11.277  10.527  70.000  1.00  0.00    -0.315 A  
HETATM   18  C   UNL     1      -9.991  10.219  69.486  1.00  0.00    -0.228 A  
HETATM   19  C   UNL     1      -9.106   9.364  70.153  1.00  0.00    -0.262 A  
HETATM   20 CL   UNL     1      -9.445  10.901  67.986  1.00  0.00    -0.160 Cl 
HETATM   21  C   UNL     1      -9.485   8.771  71.348  1.00  0.00    -0.330 A  
HETATM   22  C   UNL     1     -10.775   8.974  71.828  1.00  0.00    -0.437 A  
HETATM   23  C   UNL     1     -11.675   9.823  71.158  1.00  0.00    -0.385 A  
HETATM   24 CL   UNL     1     -13.217   9.977  71.927  1.00  0.00    -0.539 Cl 
ENDBRANCH  15  17
ENDBRANCH  14  15
ENDBRANCH   8   9
ENDBRANCH   6   8
ENDBRANCH   5   6
ENDBRANCH   4   5
TORSDOF 6
ENDMDL
MODEL       22
REMARK 921   NORMALIZED FREE ENERGY PREDICTED BY IDOCK:   -6.33 KCAL/MOL
REMARK 922        TOTAL FREE ENERGY PREDICTED BY IDOCK:   -9.51 KCAL/MOL
REMARK 923 INTER-LIGAND FREE ENERGY PREDICTED BY IDOCK:   -8.77 KCAL/MOL
REMARK 924 INTRA-LIGAND FREE ENERGY PREDICTED BY IDOCK:   -0.74 KCAL/MOL
REMARK 927      BINDING AFFINITY PREDICTED BY RF-SCORE:    0.00 PKD
ROOT
HETATM    1  O   UNL     1     -12.518  17.077  74.456  1.00  0.00    -0.611 OA 
HETATM    2  C   UNL     1     -12.297  15.896  73.829  1.00  0.00    -0.587 C  
HETATM    3  O   UNL     1     -12.322  14.831  74.427  1.00  0.00    -0.510 OA 
HETATM    4  C   UNL     1     -12.022  16.055  72.338  1.00  0.00    -0.544 C  
ENDROOT
BRANCH   4   5
HETATM    5  O   UNL     1     -11.728  14.785  71.741  1.00  0.00    -0.350 OA 
BRANCH   5   6
HETATM    6  C   UNL     1     -12.778  14.130  71.180  1.00  0.00    -0.361 C  
HETATM    7  O   UNL     1     -13.897  14.592  71.030  1.00  0.00    -0.311 OA 
BRANCH   6   8
HETATM    8  C   UNL     1     -12.360  12.730  70.768  1.00  0.00    -0.375 C  
BRANCH   8   9
HETATM    9  C   UNL     1     -11.941  12.613  69.320  1.00  0.00    -0.301 A  
HETATM   10  C   UNL     1     -11.942  13.794  68.550  1.00  0.00    -0.402 A  
HETATM   11  C   UNL     1     -11.542  13.786  67.216  1.00  0.00    -0.391 A  
HETATM   12  C   UNL     1     -11.096  12.607  66.637  1.00  0.00    -0.314 A  
HETATM   13  C   UNL     1     -11.114  11.424  67.377  1.00  0.00    -0.349 A  
HETATM   14  C   UNL     1     -11.583  11.396  68.698  1.00  0.00    -0.320 A  
BRANCH  14  15
HETATM   15  N   UNL     1     -11.749  10.149  69.341  1.00  0.00    -0.476 NA 
HETATM   16  H   UNL     1     -12.451   9.548  68.908  1.00  0.00     0.000 HD 
BRANCH  15  17
HETATM   17  C   UNL     1     -11.116   9.576  70.485  1.00  0.00    -0.283 A  
HETATM   18  C   UNL     1     -11.953   8.976  71.460  1.00  0.00    -0.344 A  
HETATM   19  C   UNL     1     -11.439   8.225  72.523  1.00  0.00    -0.454 A  
HETATM   20 CL   UNL     1     -13.679   9.145  71.378  1.00  0.00    -0.379 Cl 
HETATM   21  C   UNL     1     -10.069   8.064  72.658  1.00  0.00    -0.370 A  
HETATM   22  C   UNL     1      -9.217   8.721  71.776  1.00  0.00    -0.332 A  
HETATM   23  C   UNL     1      -9.725   9.488  70.711  1.00  0.00    -0.219 A  
HETATM   24 CL   UNL     1      -8.512  10.198  69.702  1.00  0.00    -0.186 Cl 
ENDBRANCH  15  17
ENDBRANCH  14  15
ENDBRANCH   8   9
ENDBRANCH   6   8
ENDBRANCH   5   6
ENDBRANCH   4   5
TORSDOF 6
ENDMDL
MODEL       23
REMARK 921   NORMALIZED FREE ENERGY PREDICTED BY IDOCK:   -6.33 KCAL/MOL
REMARK 922        TOTAL FREE ENERGY PREDICTED BY IDOCK:   -9.51 KCAL/MOL
REMARK 923 INTER-LIGAND FREE ENERGY PREDICTED BY IDOCK:   -8.22 KCAL/MOL
REMARK 924 INTRA-LIGAND FREE ENERGY PREDICTED BY IDOCK:   -1.28 KCAL/MOL
REMARK 927      BINDING AFFINITY PREDICTED BY RF-SCORE:    0.00 PKD
ROOT
HETATM    1  O   UNL     1     -11.034  17.786  64.839  1.00  0.00    -0.866 OA 
HETATM    2  C   UNL     1     -10.534  16.688  65.458  1.00  0.00    -0.267 C  
HETATM    3  O   UNL     1     -10.144  15.714  64.833  1.00  0.00    -0.384 OA 
HETATM    4  C   UNL     1     -10.520  16.816  66.977  1.00  0.00    -0.285 C  
ENDROOT
BRANCH   4   5
HETATM    5  O   UNL     1     -10.047  15.605  67.581  1.00  0.00    -0.242 OA 
BRANCH   5   6
HETATM    6  C   UNL     1     -10.303  15.457  68.907  1.00  0.00    -0.233 C  
HETATM    7  O   UNL     1      -9.503  15.660  69.805  1.00  0.00    -0.277 OA 
BRANCH   6   8
HETATM    8  C   UNL     1     -11.734  14.994  69.113  1.00  0.00    -0.345 C  
BRANCH   8   9
HETATM    9  C   UNL     1     -11.870  13.513  69.381  1.00  0.00    -0.389 A  
HETATM   10  C   UNL     1     -12.349  13.127  70.650  1.00  0.00    -0.405 A  
HETATM   11  C   UNL     1     -12.534  11.785  70.974  1.00  0.00    -0.411 A  
HETATM   12  C   UNL     1     -12.283  10.805  70.024  1.00  0.00    -0.409 A  
HETATM   13  C   UNL     1     -11.783  11.168  68.773  1.00  0.00    -0.394 A  
HETATM   14  C   UNL     1     -11.519  12.507  68.452  1.00  0.00    -0.312 A  
BRANCH  14  15
HETATM   15  N   UNL     1     -10.848  12.805  67.245  1.00  0.00    -0.247 NA 
HETATM   16  H   UNL     1     -10.199  13.588  67.312  1.00  0.00     0.000 HD 
BRANCH  15  17
HETATM   17  C   UNL     1     -10.912  12.209  65.949  1.00  0.00    -0.292 A  
HETATM   18  C   UNL     1     -11.886  12.713  65.049  1.00  0.00    -0.395 A  
HETATM   19  C   UNL     1     -11.919  12.340  63.701  1.00  0.00    -0.633 A  
HETATM   20 CL   UNL     1     -13.097  13.836  65.584  1.00  0.00    -0.355 Cl 
HETATM   21  C   UNL     1     -10.992  11.433  63.211  1.00  0.00    -0.250 A  
HETATM   22  C   UNL     1     -10.087  10.845  64.089  1.00  0.00    -0.416 A  
HETATM   23  C   UNL     1     -10.053  11.207  65.448  1.00  0.00    -0.264 A  
HETATM   24 CL   UNL     1      -8.836  10.395  66.372  1.00  0.00    -0.153 Cl 
ENDBRANCH  15  17
ENDBRANCH  14  15
ENDBRANCH   8   9
ENDBRANCH   6   8
ENDBRANCH   5   6
ENDBRANCH   4   5
TORSDOF 6
ENDMDL
MODEL       24
REMARK 921   NORMALIZED FREE ENERGY PREDICTED BY IDOCK:   -6.31 KCAL/MOL
REMARK 922        TOTAL FREE ENERGY PREDICTED BY IDOCK:   -9.49 KCAL/MOL
REMARK 923 INTER-LIGAND FREE ENERGY PREDICTED BY IDOCK:   -8.80 KCAL/MOL
REMARK 924 INTRA-LIGAND FREE ENERGY PREDICTED BY IDOCK:   -0.68 KCAL/MOL
REMARK 927      BINDING AFFINITY PREDICTED BY RF-SCORE:    0.00 PKD
ROOT
HETATM    1  O   UNL     1     -12.844  16.106  74.247  1.00  0.00    -0.681 OA 
HETATM    2  C   UNL     1     -13.094  15.909  72.929  1.00  0.00    -0.507 C  
HETATM    3  O   UNL     1     -14.199  15.590  72.520  1.00  0.00    -0.548 OA 
HETATM    4  C   UNL     1     -11.866  16.126  72.052  1.00  0.00    -0.530 C  
ENDROOT
BRANCH   4   5
HETATM    5  O   UNL     1     -12.169  15.838  70.680  1.00  0.00    -0.392 OA 
BRANCH   5   6
HETATM    6  C   UNL     1     -11.378  14.915  70.073  1.00  0.00    -0.274 C  
HETATM    7  O   UNL     1     -10.212  15.086  69.757  1.00  0.00    -0.207 OA 
BRANCH   6   8
HETATM    8  C   UNL     1     -12.157  13.634  69.837  1.00  0.00    -0.406 C  
BRANCH   8   9
HETATM    9  C   UNL     1     -11.725  12.869  68.607  1.00  0.00    -0.359 A  
HETATM   10  C   UNL     1     -12.118  13.385  67.354  1.00  0.00    -0.338 A  
HETATM   11  C   UNL     1     -11.739  12.763  66.167  1.00  0.00    -0.458 A  
HETATM   12  C   UNL     1     -10.929  11.638  66.206  1.00  0.00    -0.338 A  
HETATM   13  C   UNL     1     -10.553  11.099  67.437  1.00  0.00    -0.272 A  
HETATM   14  C   UNL     1     -10.984  11.666  68.645  1.00  0.00    -0.220 A  
BRANCH  14  15
HETATM   15  N   UNL     1     -10.728  10.983  69.854  1.00  0.00    -0.463 NA 
HETATM   16  H   UNL     1      -9.905  11.318  70.355  1.00  0.00     0.000 HD 
BRANCH  15  17
HETATM   17  C   UNL     1     -11.410   9.910  70.503  1.00  0.00    -0.327 A  
HETATM   18  C   UNL     1     -10.949   8.594  70.243  1.00  0.00    -0.236 A  
HETATM   19  C   UNL     1     -11.413   7.485  70.960  1.00  0.00    -0.299 A  
HETATM   20 CL   UNL     1      -9.767   8.292  69.008  1.00  0.00    -0.164 Cl 
HETATM   21  C   UNL     1     -12.371   7.652  71.949  1.00  0.00    -0.337 A  
HETATM   22  C   UNL     1     -12.915   8.915  72.161  1.00  0.00    -0.473 A  
HETATM   23  C   UNL     1     -12.462  10.033  71.437  1.00  0.00    -0.411 A  
HETATM   24 CL   UNL     1     -13.233  11.521  71.867  1.00  0.00    -0.561 Cl 
ENDBRANCH  15  17
ENDBRANCH  14  15
ENDBRANCH   8   9
ENDBRANCH   6   8
ENDBRANCH   5   6
ENDBRANCH   4   5
TORSDOF 6
ENDMDL
MODEL       25
REMARK 921   NORMALIZED FREE ENERGY PREDICTED BY IDOCK:   -6.29 KCAL/MOL
REMARK 922        TOTAL FREE ENERGY PREDICTED BY IDOCK:   -9.46 KCAL/MOL
REMARK 923 INTER-LIGAND FREE ENERGY PREDICTED BY IDOCK:   -8.52 KCAL/MOL
REMARK 924 INTRA-LIGAND FREE ENERGY PREDICTED BY IDOCK:   -0.94 KCAL/MOL
REMARK 927      BINDING AFFINITY PREDICTED BY RF-SCORE:    0.00 PKD
ROOT
HETATM    1  O   UNL     1      -9.327  18.670  68.082  1.00  0.00    -0.298 OA 
HETATM    2  C   UNL     1      -9.357  18.175  66.821  1.00  0.00    -0.286 C  
HETATM    3  O   UNL     1      -9.166  18.880  65.843  1.00  0.00    -0.455 OA 
HETATM    4  C   UNL     1      -9.650  16.679  66.776  1.00  0.00    -0.257 C  
ENDROOT
BRANCH   4   5
HETATM    5  O   UNL     1      -9.738  16.223  65.419  1.00  0.00    -0.473 OA 
BRANCH   5   6
HETATM    6  C   UNL     1     -10.990  15.999  64.943  1.00  0.00    -0.384 C  
HETATM    7  O   UNL     1     -11.514  16.609  64.025  1.00  0.00    -1.192 OA 
BRANCH   6   8
HETATM    8  C   UNL     1     -11.653  14.878  65.723  1.00  0.00    -0.234 C  
BRANCH   8   9
HETATM    9  C   UNL     1     -11.295  13.493  65.235  1.00  0.00    -0.304 A  
HETATM   10  C   UNL     1     -11.742  13.125  63.950  1.00  0.00    -0.515 A  
HETATM   11  C   UNL     1     -11.433  11.880  63.407  1.00  0.00    -0.470 A  
HETATM   12  C   UNL     1     -10.638  10.995  64.120  1.00  0.00    -0.412 A  
HETATM   13  C   UNL     1     -10.208  11.333  65.404  1.00  0.00    -0.323 A  
HETATM   14  C   UNL     1     -10.570  12.550  65.999  1.00  0.00    -0.263 A  
BRANCH  14  15
HETATM   15  N   UNL     1     -10.263  12.767  67.361  1.00  0.00    -0.221 NA 
HETATM   16  H   UNL     1      -9.539  13.468  67.517  1.00  0.00     0.000 HD 
BRANCH  15  17
HETATM   17  C   UNL     1     -10.780  12.184  68.557  1.00  0.00    -0.232 A  
HETATM   18  C   UNL     1     -11.665  12.972  69.335  1.00  0.00    -0.326 A  
HETATM   19  C   UNL     1     -12.376  12.446  70.420  1.00  0.00    -0.307 A  
HETATM   20 CL   UNL     1     -11.917  14.651  68.971  1.00  0.00    -0.337 Cl 
HETATM   21  C   UNL     1     -12.209  11.116  70.776  1.00  0.00    -0.484 A  
HETATM   22  C   UNL     1     -11.275  10.342  70.095  1.00  0.00    -0.393 A  
HETATM   23  C   UNL     1     -10.548  10.867  69.010  1.00  0.00    -0.216 A  
HETATM   24 CL   UNL     1      -9.461   9.743  68.270  1.00  0.00    -0.144 Cl 
ENDBRANCH  15  17
ENDBRANCH  14  15
ENDBRANCH   8   9
ENDBRANCH   6   8
ENDBRANCH   5   6
ENDBRANCH   4   5
TORSDOF 6
ENDMDL
MODEL       26
REMARK 921   NORMALIZED FREE ENERGY PREDICTED BY IDOCK:   -6.28 KCAL/MOL
REMARK 922        TOTAL FREE ENERGY PREDICTED BY IDOCK:   -9.45 KCAL/MOL
REMARK 923 INTER-LIGAND FREE ENERGY PREDICTED BY IDOCK:   -8.21 KCAL/MOL
REMARK 924 INTRA-LIGAND FREE ENERGY PREDICTED BY IDOCK:   -1.23 KCAL/MOL
REMARK 927      BINDING AFFINITY PREDICTED BY RF-SCORE:    0.00 PKD
ROOT
HETATM    1  O   UNL     1     -13.504  16.351  73.795  1.00  0.00    -0.614 OA 
HETATM    2  C   UNL     1     -12.903  15.492  72.935  1.00  0.00    -0.457 C  
HETATM    3  O   UNL     1     -13.183  14.304  72.905  1.00  0.00    -0.509 OA 
HETATM    4  C   UNL     1     -11.870  16.170  72.042  1.00  0.00    -0.530 C  
ENDROOT
BRANCH   4   5
HETATM    5  O   UNL     1     -11.219  15.207  71.202  1.00  0.00    -0.323 OA 
BRANCH   5   6
HETATM    6  C   UNL     1     -11.196  15.489  69.874  1.00  0.00    -0.316 C  
HETATM    7  O   UNL     1     -12.141  15.366  69.111  1.00  0.00    -0.315 OA 
BRANCH   6   8
HETATM    8  C   UNL     1      -9.818  15.978  69.468  1.00  0.00    -0.235 C  
BRANCH   8   9
HETATM    9  C   UNL     1      -9.835  17.103  68.458  1.00  0.00    -0.297 A  
HETATM   10  C   UNL     1     -10.282  18.364  68.904  1.00  0.00    -0.284 A  
HETATM   11  C   UNL     1     -10.303  19.465  68.051  1.00  0.00    -0.536 A  
HETATM   12  C   UNL     1      -9.841  19.337  66.749  1.00  0.00    -0.430 A  
HETATM   13  C   UNL     1      -9.420  18.090  66.284  1.00  0.00    -0.231 A  
HETATM   14  C   UNL     1      -9.461  16.953  67.104  1.00  0.00    -0.237 A  
BRANCH  14  15
HETATM   15  N   UNL     1      -9.197  15.687  66.535  1.00  0.00    -0.267 NA 
HETATM   16  H   UNL     1      -8.206  15.496  66.387  1.00  0.00     0.000 HD 
BRANCH  15  17
HETATM   17  C   UNL     1     -10.063  14.628  66.130  1.00  0.00    -0.300 A  
HETATM   18  C   UNL     1      -9.904  13.375  66.776  1.00  0.00    -0.265 A  
HETATM   19  C   UNL     1     -10.810  12.323  66.597  1.00  0.00    -0.296 A  
HETATM   20 CL   UNL     1      -8.561  13.083  67.836  1.00  0.00    -0.177 Cl 
HETATM   21  C   UNL     1     -11.897  12.483  65.750  1.00  0.00    -0.494 A  
HETATM   22  C   UNL     1     -12.027  13.663  65.027  1.00  0.00    -0.401 A  
HETATM   23  C   UNL     1     -11.114  14.722  65.192  1.00  0.00    -0.384 A  
HETATM   24 CL   UNL     1     -11.461  16.119  64.233  1.00  0.00    -0.317 Cl 
ENDBRANCH  15  17
ENDBRANCH  14  15
ENDBRANCH   8   9
ENDBRANCH   6   8
ENDBRANCH   5   6
ENDBRANCH   4   5
TORSDOF 6
ENDMDL
MODEL       27
REMARK 921   NORMALIZED FREE ENERGY PREDICTED BY IDOCK:   -6.24 KCAL/MOL
REMARK 922        TOTAL FREE ENERGY PREDICTED BY IDOCK:   -9.39 KCAL/MOL
REMARK 923 INTER-LIGAND FREE ENERGY PREDICTED BY IDOCK:   -8.27 KCAL/MOL
REMARK 924 INTRA-LIGAND FREE ENERGY PREDICTED BY IDOCK:   -1.12 KCAL/MOL
REMARK 927      BINDING AFFINITY PREDICTED BY RF-SCORE:    0.00 PKD
ROOT
HETATM    1  O   UNL     1     -13.143  16.586  74.302  1.00  0.00    -0.588 OA 
HETATM    2  C   UNL     1     -12.385  15.707  73.602  1.00  0.00    -0.575 C  
HETATM    3  O   UNL     1     -12.041  14.633  74.069  1.00  0.00    -0.432 OA 
HETATM    4  C   UNL     1     -12.025  16.209  72.208  1.00  0.00    -0.546 C  
ENDROOT
BRANCH   4   5
HETATM    5  O   UNL     1     -11.168  15.273  71.540  1.00  0.00    -0.379 OA 
BRANCH   5   6
HETATM    6  C   UNL     1     -11.630  14.772  70.365  1.00  0.00    -0.279 C  
HETATM    7  O   UNL     1     -11.811  13.589  70.127  1.00  0.00    -0.307 OA 
BRANCH   6   8
HETATM    8  C   UNL     1     -11.884  15.899  69.380  1.00  0.00    -0.325 C  
BRANCH   8   9
HETATM    9  C   UNL     1     -10.718  16.193  68.466  1.00  0.00    -0.300 A  
HETATM   10  C   UNL     1     -10.012  17.395  68.684  1.00  0.00    -0.340 A  
HETATM   11  C   UNL     1      -8.905  17.732  67.909  1.00  0.00    -0.251 A  
HETATM   12  C   UNL     1      -8.457  16.858  66.929  1.00  0.00    -0.243 A  
HETATM   13  C   UNL     1      -9.159  15.677  66.683  1.00  0.00    -0.313 A  
HETATM   14  C   UNL     1     -10.319  15.354  67.401  1.00  0.00    -0.262 A  
BRANCH  14  15
HETATM   15  N   UNL     1     -11.091  14.243  66.994  1.00  0.00    -0.304 NA 
HETATM   16  H   UNL     1     -11.751  13.915  67.698  1.00  0.00     0.000 HD 
BRANCH  15  17
HETATM   17  C   UNL     1     -11.115  13.496  65.778  1.00  0.00    -0.286 A  
HETATM   18  C   UNL     1     -10.557  12.192  65.805  1.00  0.00    -0.260 A  
HETATM   19  C   UNL     1     -10.690  11.302  64.733  1.00  0.00    -0.352 A  
HETATM   20 CL   UNL     1      -9.674  11.629  67.189  1.00  0.00    -0.191 Cl 
HETATM   21  C   UNL     1     -11.369  11.693  63.588  1.00  0.00    -0.485 A  
HETATM   22  C   UNL     1     -11.841  12.998  63.492  1.00  0.00    -0.582 A  
HETATM   23  C   UNL     1     -11.702  13.903  64.561  1.00  0.00    -0.410 A  
HETATM   24 CL   UNL     1     -12.385  15.465  64.265  1.00  0.00    -0.256 Cl 
ENDBRANCH  15  17
ENDBRANCH  14  15
ENDBRANCH   8   9
ENDBRANCH   6   8
ENDBRANCH   5   6
ENDBRANCH   4   5
TORSDOF 6
ENDMDL
MODEL       28
REMARK 921   NORMALIZED FREE ENERGY PREDICTED BY IDOCK:   -6.20 KCAL/MOL
REMARK 922        TOTAL FREE ENERGY PREDICTED BY IDOCK:   -9.34 KCAL/MOL
REMARK 923 INTER-LIGAND FREE ENERGY PREDICTED BY IDOCK:   -8.33 KCAL/MOL
REMARK 924 INTRA-LIGAND FREE ENERGY PREDICTED BY IDOCK:   -1.01 KCAL/MOL
REMARK 927      BINDING AFFINITY PREDICTED BY RF-SCORE:    0.00 PKD
ROOT
HETATM    1  O   UNL     1     -12.713  16.131  74.256  1.00  0.00    -0.679 OA 
HETATM    2  C   UNL     1     -13.106  15.965  72.970  1.00  0.00    -0.541 C  
HETATM    3  O   UNL     1     -14.274  15.776  72.669  1.00  0.00    -0.554 OA 
HETATM    4  C   UNL     1     -11.950  16.040  71.979  1.00  0.00    -0.537 C  
ENDROOT
BRANCH   4   5
HETATM    5  O   UNL     1     -12.411  15.791  70.645  1.00  0.00    -0.420 OA 
BRANCH   5   6
HETATM    6  C   UNL     1     -11.912  14.683  70.036  1.00  0.00    -0.320 C  
HETATM    7  O   UNL     1     -12.507  13.627  69.900  1.00  0.00    -0.274 OA 
BRANCH   6   8
HETATM    8  C   UNL     1     -10.497  14.947  69.551  1.00  0.00    -0.213 C  
BRANCH   8   9
HETATM    9  C   UNL     1     -10.420  15.836  68.332  1.00  0.00    -0.245 A  
HETATM   10  C   UNL     1      -9.914  17.139  68.514  1.00  0.00    -0.309 A  
HETATM   11  C   UNL     1      -9.778  18.017  67.441  1.00  0.00    -0.296 A  
HETATM   12  C   UNL     1     -10.106  17.596  66.160  1.00  0.00    -0.307 A  
HETATM   13  C   UNL     1     -10.633  16.319  65.966  1.00  0.00    -0.288 A  
HETATM   14  C   UNL     1     -10.848  15.446  67.043  1.00  0.00    -0.320 A  
BRANCH  14  15
HETATM   15  N   UNL     1     -11.547  14.239  66.819  1.00  0.00    -0.374 NA 
HETATM   16  H   UNL     1     -12.468  14.205  67.255  1.00  0.00     0.000 HD 
BRANCH  15  17
HETATM   17  C   UNL     1     -11.200  13.059  66.094  1.00  0.00    -0.291 A  
HETATM   18  C   UNL     1     -11.471  13.047  64.702  1.00  0.00    -0.336 A  
HETATM   19  C   UNL     1     -11.008  12.029  63.861  1.00  0.00    -0.465 A  
HETATM   20 CL   UNL     1     -12.399  14.315  63.965  1.00  0.00    -0.408 Cl 
HETATM   21  C   UNL     1     -10.275  10.976  64.388  1.00  0.00    -0.409 A  
HETATM   22  C   UNL     1     -10.077  10.907  65.763  1.00  0.00    -0.308 A  
HETATM   23  C   UNL     1     -10.548  11.921  66.617  1.00  0.00    -0.238 A  
HETATM   24 CL   UNL     1     -10.173  11.676  68.289  1.00  0.00    -0.196 Cl 
ENDBRANCH  15  17
ENDBRANCH  14  15
ENDBRANCH   8   9
ENDBRANCH   6   8
ENDBRANCH   5   6
ENDBRANCH   4   5
TORSDOF 6
ENDMDL
MODEL       29
REMARK 921   NORMALIZED FREE ENERGY PREDICTED BY IDOCK:   -6.18 KCAL/MOL
REMARK 922        TOTAL FREE ENERGY PREDICTED BY IDOCK:   -9.31 KCAL/MOL
REMARK 923 INTER-LIGAND FREE ENERGY PREDICTED BY IDOCK:   -8.40 KCAL/MOL
REMARK 924 INTRA-LIGAND FREE ENERGY PREDICTED BY IDOCK:   -0.91 KCAL/MOL
REMARK 927      BINDING AFFINITY PREDICTED BY RF-SCORE:    0.00 PKD
ROOT
HETATM    1  O   UNL     1     -11.635  16.462  63.913  1.00  0.00    -1.100 OA 
HETATM    2  C   UNL     1     -11.975  15.238  64.386  1.00  0.00    -0.277 C  
HETATM    3  O   UNL     1     -12.662  14.462  63.740  1.00  0.00    -0.785 OA 
HETATM    4  C   UNL     1     -11.414  14.960  65.776  1.00  0.00    -0.281 C  
ENDROOT
BRANCH   4   5
HETATM    5  O   UNL     1     -11.861  13.684  66.254  1.00  0.00    -0.352 OA 
BRANCH   5   6
HETATM    6  C   UNL     1     -10.997  13.010  67.058  1.00  0.00    -0.265 C  
HETATM    7  O   UNL     1      -9.929  13.441  67.461  1.00  0.00    -0.224 OA 
BRANCH   6   8
HETATM    8  C   UNL     1     -11.551  11.634  67.382  1.00  0.00    -0.330 C  
BRANCH   8   9
HETATM    9  C   UNL     1     -10.517  10.533  67.355  1.00  0.00    -0.291 A  
HETATM   10  C   UNL     1     -10.279   9.900  66.117  1.00  0.00    -0.277 A  
HETATM   11  C   UNL     1      -9.322   8.896  65.992  1.00  0.00    -0.306 A  
HETATM   12  C   UNL     1      -8.557   8.532  67.090  1.00  0.00    -0.123 A  
HETATM   13  C   UNL     1      -8.797   9.129  68.328  1.00  0.00    -0.129 A  
HETATM   14  C   UNL     1      -9.806  10.089  68.493  1.00  0.00    -0.156 A  
BRANCH  14  15
HETATM   15  N   UNL     1     -10.129  10.529  69.796  1.00  0.00    -0.419 NA 
HETATM   16  H   UNL     1      -9.555  11.304  70.128  1.00  0.00     0.000 HD 
BRANCH  15  17
HETATM   17  C   UNL     1     -11.112  10.088  70.733  1.00  0.00    -0.334 A  
HETATM   18  C   UNL     1     -12.168  10.984  71.038  1.00  0.00    -0.351 A  
HETATM   19  C   UNL     1     -13.281  10.595  71.792  1.00  0.00    -0.526 A  
HETATM   20 CL   UNL     1     -12.132  12.627  70.479  1.00  0.00    -0.425 Cl 
HETATM   21  C   UNL     1     -13.366   9.301  72.285  1.00  0.00    -0.547 A  
HETATM   22  C   UNL     1     -12.301   8.428  72.087  1.00  0.00    -0.426 A  
HETATM   23  C   UNL     1     -11.173   8.814  71.339  1.00  0.00    -0.292 A  
HETATM   24 CL   UNL     1      -9.971   7.581  71.173  1.00  0.00    -0.184 Cl 
ENDBRANCH  15  17
ENDBRANCH  14  15
ENDBRANCH   8   9
ENDBRANCH   6   8
ENDBRANCH   5   6
ENDBRANCH   4   5
TORSDOF 6
ENDMDL
MODEL       30
REMARK 921   NORMALIZED FREE ENERGY PREDICTED BY IDOCK:   -6.18 KCAL/MOL
REMARK 922        TOTAL FREE ENERGY PREDICTED BY IDOCK:   -9.31 KCAL/MOL
REMARK 923 INTER-LIGAND FREE ENERGY PREDICTED BY IDOCK:   -8.16 KCAL/MOL
REMARK 924 INTRA-LIGAND FREE ENERGY PREDICTED BY IDOCK:   -1.15 KCAL/MOL
REMARK 927      BINDING AFFINITY PREDICTED BY RF-SCORE:    0.00 PKD
ROOT
HETATM    1  O   UNL     1     -13.302  15.815  73.191  1.00  0.00    -0.533 OA 
HETATM    2  C   UNL     1     -13.150  15.509  71.879  1.00  0.00    -0.454 C  
HETATM    3  O   UNL     1     -14.076  15.576  71.086  1.00  0.00    -0.537 OA 
HETATM    4  C   UNL     1     -11.728  15.086  71.528  1.00  0.00    -0.370 C  
ENDROOT
BRANCH   4   5
HETATM    5  O   UNL     1     -11.640  14.710  70.147  1.00  0.00    -0.262 OA 
BRANCH   5   6
HETATM    6  C   UNL     1     -10.915  15.535  69.347  1.00  0.00    -0.276 C  
HETATM    7  O   UNL     1     -10.872  16.750  69.444  1.00  0.00    -0.318 OA 
BRANCH   6   8
HETATM    8  C   UNL     1     -10.167  14.725  68.303  1.00  0.00    -0.227 C  
BRANCH   8   9
HETATM    9  C   UNL     1     -10.785  14.777  66.925  1.00  0.00    -0.308 A  
HETATM   10  C   UNL     1     -11.917  13.969  66.693  1.00  0.00    -0.473 A  
HETATM   11  C   UNL     1     -12.569  13.976  65.462  1.00  0.00    -0.543 A  
HETATM   12  C   UNL     1     -12.128  14.820  64.453  1.00  0.00    -0.457 A  
HETATM   13  C   UNL     1     -10.994  15.606  64.657  1.00  0.00    -0.344 A  
HETATM   14  C   UNL     1     -10.278  15.559  65.862  1.00  0.00    -0.345 A  
BRANCH  14  15
HETATM   15  N   UNL     1      -9.041  16.234  65.953  1.00  0.00    -0.444 NA 
HETATM   16  H   UNL     1      -8.319  15.866  65.332  1.00  0.00     0.000 HD 
BRANCH  15  17
HETATM   17  C   UNL     1      -8.615  17.336  66.754  1.00  0.00    -0.249 A  
HETATM   18  C   UNL     1      -7.395  17.193  67.462  1.00  0.00    -0.161 A  
HETATM   19  C   UNL     1      -6.787  18.265  68.125  1.00  0.00    -0.218 A  
HETATM   20 CL   UNL     1      -6.583  15.660  67.537  1.00  0.00    -0.199 Cl 
HETATM   21  C   UNL     1      -7.391  19.514  68.120  1.00  0.00    -0.334 A  
HETATM   22  C   UNL     1      -8.636  19.663  67.519  1.00  0.00    -0.357 A  
HETATM   23  C   UNL     1      -9.259  18.588  66.859  1.00  0.00    -0.290 A  
HETATM   24 CL   UNL     1     -10.785  18.978  66.144  1.00  0.00    -0.460 Cl 
ENDBRANCH  15  17
ENDBRANCH  14  15
ENDBRANCH   8   9
ENDBRANCH   6   8
ENDBRANCH   5   6
ENDBRANCH   4   5
TORSDOF 6
ENDMDL
MODEL       31
REMARK 921   NORMALIZED FREE ENERGY PREDICTED BY IDOCK:   -6.16 KCAL/MOL
REMARK 922        TOTAL FREE ENERGY PREDICTED BY IDOCK:   -9.28 KCAL/MOL
REMARK 923 INTER-LIGAND FREE ENERGY PREDICTED BY IDOCK:   -8.29 KCAL/MOL
REMARK 924 INTRA-LIGAND FREE ENERGY PREDICTED BY IDOCK:   -0.99 KCAL/MOL
REMARK 927      BINDING AFFINITY PREDICTED BY RF-SCORE:    0.00 PKD
ROOT
HETATM    1  O   UNL     1     -11.147   5.908  69.071  1.00  0.00    -0.336 OA 
HETATM    2  C   UNL     1     -10.793   6.827  68.140  1.00  0.00    -0.228 C  
HETATM    3  O   UNL     1     -11.159   6.745  66.978  1.00  0.00    -0.403 OA 
HETATM    4  C   UNL     1      -9.913   7.937  68.703  1.00  0.00    -0.191 C  
ENDROOT
BRANCH   4   5
HETATM    5  O   UNL     1      -9.513   8.841  67.664  1.00  0.00    -0.138 OA 
BRANCH   5   6
HETATM    6  C   UNL     1      -9.647  10.165  67.938  1.00  0.00    -0.148 C  
HETATM    7  O   UNL     1      -8.725  10.945  68.108  1.00  0.00    -0.124 OA 
BRANCH   6   8
HETATM    8  C   UNL     1     -11.117  10.537  68.010  1.00  0.00    -0.361 C  
BRANCH   8   9
HETATM    9  C   UNL     1     -11.453  11.852  67.344  1.00  0.00    -0.393 A  
HETATM   10  C   UNL     1     -11.598  11.847  65.941  1.00  0.00    -0.291 A  
HETATM   11  C   UNL     1     -11.936  13.006  65.247  1.00  0.00    -0.446 A  
HETATM   12  C   UNL     1     -12.175  14.182  65.943  1.00  0.00    -0.458 A  
HETATM   13  C   UNL     1     -12.011  14.210  67.329  1.00  0.00    -0.449 A  
HETATM   14  C   UNL     1     -11.598  13.073  68.039  1.00  0.00    -0.343 A  
BRANCH  14  15
HETATM   15  N   UNL     1     -11.273  13.200  69.408  1.00  0.00    -0.427 NA 
HETATM   16  H   UNL     1     -10.310  12.949  69.631  1.00  0.00     0.000 HD 
BRANCH  15  17
HETATM   17  C   UNL     1     -12.045  13.613  70.534  1.00  0.00    -0.339 A  
HETATM   18  C   UNL     1     -12.076  15.001  70.828  1.00  0.00    -0.322 A  
HETATM   19  C   UNL     1     -12.941  15.541  71.787  1.00  0.00    -0.528 A  
HETATM   20 CL   UNL     1     -11.030  16.110  69.999  1.00  0.00    -0.350 Cl 
HETATM   21  C   UNL     1     -13.791  14.709  72.499  1.00  0.00    -0.561 A  
HETATM   22  C   UNL     1     -13.715  13.334  72.305  1.00  0.00    -0.686 A  
HETATM   23  C   UNL     1     -12.841  12.781  71.351  1.00  0.00    -0.275 A  
HETATM   24 CL   UNL     1     -12.916  11.056  71.230  1.00  0.00    -0.491 Cl 
ENDBRANCH  15  17
ENDBRANCH  14  15
ENDBRANCH   8   9
ENDBRANCH   6   8
ENDBRANCH   5   6
ENDBRANCH   4   5
TORSDOF 6
ENDMDL
MODEL       32
REMARK 921   NORMALIZED FREE ENERGY PREDICTED BY IDOCK:   -6.13 KCAL/MOL
REMARK 922        TOTAL FREE ENERGY PREDICTED BY IDOCK:   -9.24 KCAL/MOL
REMARK 923 INTER-LIGAND FREE ENERGY PREDICTED BY IDOCK:   -8.13 KCAL/MOL
REMARK 924 INTRA-LIGAND FREE ENERGY PREDICTED BY IDOCK:   -1.12 KCAL/MOL
REMARK 927      BINDING AFFINITY PREDICTED BY RF-SCORE:    0.00 PKD
ROOT
HETATM    1  O   UNL     1     -10.675  19.109  65.395  1.00  0.00    -0.503 OA 
HETATM    2  C   UNL     1      -9.875  18.501  66.305  1.00  0.00    -0.337 C  
HETATM    3  O   UNL     1      -8.677  18.358  66.121  1.00  0.00    -0.462 OA 
HETATM    4  C   UNL     1     -10.631  18.034  67.544  1.00  0.00    -0.388 C  
ENDROOT
BRANCH   4   5
HETATM    5  O   UNL     1      -9.752  17.340  68.440  1.00  0.00    -0.268 OA 
BRANCH   5   6
HETATM    6  C   UNL     1      -9.877  15.988  68.473  1.00  0.00    -0.216 C  
HETATM    7  O   UNL     1      -8.955  15.198  68.591  1.00  0.00    -0.174 OA 
BRANCH   6   8
HETATM    8  C   UNL     1     -11.337  15.595  68.337  1.00  0.00    -0.365 C  
BRANCH   8   9
HETATM    9  C   UNL     1     -11.572  14.400  67.443  1.00  0.00    -0.398 A  
HETATM   10  C   UNL     1     -12.111  14.645  66.163  1.00  0.00    -0.213 A  
HETATM   11  C   UNL     1     -12.332  13.607  65.261  1.00  0.00    -0.498 A  
HETATM   12  C   UNL     1     -11.982  12.309  65.605  1.00  0.00    -0.373 A  
HETATM   13  C   UNL     1     -11.472  12.045  66.877  1.00  0.00    -0.402 A  
HETATM   14  C   UNL     1     -11.312  13.064  67.826  1.00  0.00    -0.292 A  
BRANCH  14  15
HETATM   15  N   UNL     1     -10.965  12.720  69.152  1.00  0.00    -0.409 NA 
HETATM   16  H   UNL     1     -10.146  13.212  69.508  1.00  0.00     0.000 HD 
BRANCH  15  17
HETATM   17  C   UNL     1     -11.550  11.810  70.082  1.00  0.00    -0.195 A  
HETATM   18  C   UNL     1     -12.510  12.333  70.987  1.00  0.00    -0.263 A  
HETATM   19  C   UNL     1     -13.282  11.508  71.813  1.00  0.00    -0.456 A  
HETATM   20 CL   UNL     1     -12.778  14.043  71.112  1.00  0.00    -0.415 Cl 
HETATM   21  C   UNL     1     -13.107  10.133  71.777  1.00  0.00    -0.568 A  
HETATM   22  C   UNL     1     -12.106   9.597  70.974  1.00  0.00    -0.421 A  
HETATM   23  C   UNL     1     -11.317  10.419  70.148  1.00  0.00    -0.323 A  
HETATM   24 CL   UNL     1     -10.151   9.566  69.197  1.00  0.00    -0.188 Cl 
ENDBRANCH  15  17
ENDBRANCH  14  15
ENDBRANCH   8   9
ENDBRANCH   6   8
ENDBRANCH   5   6
ENDBRANCH   4   5
TORSDOF 6
ENDMDL
MODEL       33
REMARK 921   NORMALIZED FREE ENERGY PREDICTED BY IDOCK:   -6.12 KCAL/MOL
REMARK 922        TOTAL FREE ENERGY PREDICTED BY IDOCK:   -9.23 KCAL/MOL
REMARK 923 INTER-LIGAND FREE ENERGY PREDICTED BY IDOCK:   -7.88 KCAL/MOL
REMARK 924 INTRA-LIGAND FREE ENERGY PREDICTED BY IDOCK:   -1.35 KCAL/MOL
REMARK 927      BINDING AFFINITY PREDICTED BY RF-SCORE:    0.00 PKD
ROOT
HETATM    1  O   UNL     1     -10.606  18.640  65.386  1.00  0.00    -0.572 OA 
HETATM    2  C   UNL     1     -10.524  17.393  65.913  1.00  0.00    -0.252 C  
HETATM    3  O   UNL     1     -10.513  16.393  65.213  1.00  0.00    -0.572 OA 
HETATM    4  C   UNL     1     -10.451  17.395  67.436  1.00  0.00    -0.336 C  
ENDROOT
BRANCH   4   5
HETATM    5  O   UNL     1     -10.435  16.053  67.942  1.00  0.00    -0.274 OA 
BRANCH   5   6
HETATM    6  C   UNL     1     -10.997  15.868  69.165  1.00  0.00    -0.284 C  
HETATM    7  O   UNL     1     -10.569  16.325  70.212  1.00  0.00    -0.236 OA 
BRANCH   6   8
HETATM    8  C   UNL     1     -12.236  15.000  69.045  1.00  0.00    -0.160 C  
BRANCH   8   9
HETATM    9  C   UNL     1     -12.010  13.550  69.406  1.00  0.00    -0.383 A  
HETATM   10  C   UNL     1     -12.522  13.104  70.642  1.00  0.00    -0.363 A  
HETATM   11  C   UNL     1     -12.386  11.778  71.044  1.00  0.00    -0.386 A  
HETATM   12  C   UNL     1     -11.774  10.861  70.201  1.00  0.00    -0.433 A  
HETATM   13  C   UNL     1     -11.239  11.291  68.986  1.00  0.00    -0.321 A  
HETATM   14  C   UNL     1     -11.298  12.636  68.596  1.00  0.00    -0.291 A  
BRANCH  14  15
HETATM   15  N   UNL     1     -10.587  13.051  67.448  1.00  0.00    -0.233 NA 
HETATM   16  H   UNL     1      -9.867  13.749  67.634  1.00  0.00     0.000 HD 
BRANCH  15  17
HETATM   17  C   UNL     1     -10.692  12.671  66.076  1.00  0.00    -0.269 A  
HETATM   18  C   UNL     1      -9.691  11.808  65.561  1.00  0.00    -0.224 A  
HETATM   19  C   UNL     1      -9.790  11.223  64.293  1.00  0.00    -0.319 A  
HETATM   20 CL   UNL     1      -8.277  11.428  66.493  1.00  0.00    -0.167 Cl 
HETATM   21  C   UNL     1     -10.886  11.498  63.488  1.00  0.00    -0.473 A  
HETATM   22  C   UNL     1     -11.835  12.417  63.924  1.00  0.00    -0.551 A  
HETATM   23  C   UNL     1     -11.737  13.018  65.193  1.00  0.00    -0.343 A  
HETATM   24 CL   UNL     1     -13.030  14.104  65.568  1.00  0.00    -0.442 Cl 
ENDBRANCH  15  17
ENDBRANCH  14  15
ENDBRANCH   8   9
ENDBRANCH   6   8
ENDBRANCH   5   6
ENDBRANCH   4   5
TORSDOF 6
ENDMDL
MODEL       34
REMARK 921   NORMALIZED FREE ENERGY PREDICTED BY IDOCK:   -6.12 KCAL/MOL
REMARK 922        TOTAL FREE ENERGY PREDICTED BY IDOCK:   -9.23 KCAL/MOL
REMARK 923 INTER-LIGAND FREE ENERGY PREDICTED BY IDOCK:   -8.09 KCAL/MOL
REMARK 924 INTRA-LIGAND FREE ENERGY PREDICTED BY IDOCK:   -1.14 KCAL/MOL
REMARK 927      BINDING AFFINITY PREDICTED BY RF-SCORE:    0.00 PKD
ROOT
HETATM    1  O   UNL     1     -10.074   8.779  72.302  1.00  0.00    -0.311 OA 
HETATM    2  C   UNL     1     -10.609   8.795  71.057  1.00  0.00    -0.230 C  
HETATM    3  O   UNL     1     -11.561   8.093  70.752  1.00  0.00    -0.283 OA 
HETATM    4  C   UNL     1      -9.901   9.764  70.117  1.00  0.00    -0.255 C  
ENDROOT
BRANCH   4   5
HETATM    5  O   UNL     1     -10.462   9.690  68.800  1.00  0.00    -0.203 OA 
BRANCH   5   6
HETATM    6  C   UNL     1     -11.162  10.779  68.385  1.00  0.00    -0.284 C  
HETATM    7  O   UNL     1     -12.305  11.048  68.716  1.00  0.00    -0.533 OA 
BRANCH   6   8
HETATM    8  C   UNL     1     -10.316  11.615  67.441  1.00  0.00    -0.231 C  
BRANCH   8   9
HETATM    9  C   UNL     1     -11.013  11.980  66.151  1.00  0.00    -0.343 A  
HETATM   10  C   UNL     1     -10.641  11.269  64.992  1.00  0.00    -0.353 A  
HETATM   11  C   UNL     1     -11.253  11.517  63.765  1.00  0.00    -0.456 A  
HETATM   12  C   UNL     1     -12.275  12.452  63.681  1.00  0.00    -0.653 A  
HETATM   13  C   UNL     1     -12.637  13.183  64.813  1.00  0.00    -0.426 A  
HETATM   14  C   UNL     1     -11.984  13.002  66.041  1.00  0.00    -0.440 A  
BRANCH  14  15
HETATM   15  N   UNL     1     -12.263  13.888  67.105  1.00  0.00    -0.481 NA 
HETATM   16  H   UNL     1     -13.158  13.719  67.563  1.00  0.00     0.000 HD 
BRANCH  15  17
HETATM   17  C   UNL     1     -11.521  14.976  67.655  1.00  0.00    -0.333 A  
HETATM   18  C   UNL     1     -11.500  15.100  69.067  1.00  0.00    -0.309 A  
HETATM   19  C   UNL     1     -10.661  16.009  69.724  1.00  0.00    -0.323 A  
HETATM   20 CL   UNL     1     -12.523  14.115  70.064  1.00  0.00    -0.388 Cl 
HETATM   21  C   UNL     1      -9.829  16.839  68.987  1.00  0.00    -0.260 A  
HETATM   22  C   UNL     1      -9.899  16.811  67.598  1.00  0.00    -0.261 A  
HETATM   23  C   UNL     1     -10.747  15.909  66.930  1.00  0.00    -0.289 A  
HETATM   24 CL   UNL     1     -10.668  16.000  65.205  1.00  0.00    -0.451 Cl 
ENDBRANCH  15  17
ENDBRANCH  14  15
ENDBRANCH   8   9
ENDBRANCH   6   8
ENDBRANCH   5   6
ENDBRANCH   4   5
TORSDOF 6
ENDMDL
MODEL       35
REMARK 921   NORMALIZED FREE ENERGY PREDICTED BY IDOCK:   -6.12 KCAL/MOL
REMARK 922        TOTAL FREE ENERGY PREDICTED BY IDOCK:   -9.22 KCAL/MOL
REMARK 923 INTER-LIGAND FREE ENERGY PREDICTED BY IDOCK:   -8.80 KCAL/MOL
REMARK 924 INTRA-LIGAND FREE ENERGY PREDICTED BY IDOCK:   -0.42 KCAL/MOL
REMARK 927      BINDING AFFINITY PREDICTED BY RF-SCORE:    0.00 PKD
ROOT
HETATM    1  O   UNL     1      -9.128  20.090  66.677  1.00  0.00    -0.345 OA 
HETATM    2  C   UNL     1      -8.954  18.829  66.211  1.00  0.00    -0.236 C  
HETATM    3  O   UNL     1      -7.865  18.421  65.840  1.00  0.00    -0.481 OA 
HETATM    4  C   UNL     1     -10.242  18.013  66.206  1.00  0.00    -0.381 C  
ENDROOT
BRANCH   4   5
HETATM    5  O   UNL     1     -10.014  16.715  65.641  1.00  0.00    -0.519 OA 
BRANCH   5   6
HETATM    6  C   UNL     1     -11.061  16.159  64.977  1.00  0.00    -0.294 C  
HETATM    7  O   UNL     1     -11.442  16.485  63.865  1.00  0.00    -1.145 OA 
BRANCH   6   8
HETATM    8  C   UNL     1     -11.699  15.072  65.824  1.00  0.00    -0.104 C  
BRANCH   8   9
HETATM    9  C   UNL     1     -11.306  13.669  65.423  1.00  0.00    -0.311 A  
HETATM   10  C   UNL     1     -11.691  13.233  64.138  1.00  0.00    -0.470 A  
HETATM   11  C   UNL     1     -11.345  11.966  63.673  1.00  0.00    -0.536 A  
HETATM   12  C   UNL     1     -10.575  11.127  64.464  1.00  0.00    -0.397 A  
HETATM   13  C   UNL     1     -10.207  11.533  65.748  1.00  0.00    -0.293 A  
HETATM   14  C   UNL     1     -10.608  12.774  66.265  1.00  0.00    -0.257 A  
BRANCH  14  15
HETATM   15  N   UNL     1     -10.365  13.062  67.626  1.00  0.00    -0.220 NA 
HETATM   16  H   UNL     1      -9.397  13.305  67.834  1.00  0.00     0.000 HD 
BRANCH  15  17
HETATM   17  C   UNL     1     -11.227  13.073  68.764  1.00  0.00    -0.282 A  
HETATM   18  C   UNL     1     -11.600  11.818  69.310  1.00  0.00    -0.315 A  
HETATM   19  C   UNL     1     -12.283  11.708  70.527  1.00  0.00    -0.451 A  
HETATM   20 CL   UNL     1     -11.219  10.339  68.485  1.00  0.00    -0.292 Cl 
HETATM   21  C   UNL     1     -12.634  12.851  71.230  1.00  0.00    -0.352 A  
HETATM   22  C   UNL     1     -12.370  14.098  70.673  1.00  0.00    -0.435 A  
HETATM   23  C   UNL     1     -11.693  14.218  69.445  1.00  0.00    -0.316 A  
HETATM   24 CL   UNL     1     -11.426  15.850  68.935  1.00  0.00    -0.371 Cl 
ENDBRANCH  15  17
ENDBRANCH  14  15
ENDBRANCH   8   9
ENDBRANCH   6   8
ENDBRANCH   5   6
ENDBRANCH   4   5
TORSDOF 6
ENDMDL
MODEL       36
REMARK 921   NORMALIZED FREE ENERGY PREDICTED BY IDOCK:   -6.11 KCAL/MOL
REMARK 922        TOTAL FREE ENERGY PREDICTED BY IDOCK:   -9.21 KCAL/MOL
REMARK 923 INTER-LIGAND FREE ENERGY PREDICTED BY IDOCK:   -8.51 KCAL/MOL
REMARK 924 INTRA-LIGAND FREE ENERGY PREDICTED BY IDOCK:   -0.70 KCAL/MOL
REMARK 927      BINDING AFFINITY PREDICTED BY RF-SCORE:    0.00 PKD
ROOT
HETATM    1  O   UNL     1     -12.543  14.107  63.415  1.00  0.00    -0.818 OA 
HETATM    2  C   UNL     1     -12.344  12.921  64.041  1.00  0.00    -0.380 C  
HETATM    3  O   UNL     1     -13.271  12.248  64.463  1.00  0.00    -0.799 OA 
HETATM    4  C   UNL     1     -10.870  12.547  64.152  1.00  0.00    -0.382 C  
ENDROOT
BRANCH   4   5
HETATM    5  O   UNL     1     -10.714  11.322  64.881  1.00  0.00    -0.303 OA 
BRANCH   5   6
HETATM    6  C   UNL     1     -10.022  11.404  66.047  1.00  0.00    -0.231 C  
HETATM    7  O   UNL     1      -9.019  12.076  66.225  1.00  0.00    -0.200 OA 
BRANCH   6   8
HETATM    8  C   UNL     1     -10.674  10.530  67.103  1.00  0.00    -0.323 C  
BRANCH   8   9
HETATM    9  C   UNL     1     -11.208  11.295  68.292  1.00  0.00    -0.331 A  
HETATM   10  C   UNL     1     -11.272  12.700  68.180  1.00  0.00    -0.311 A  
HETATM   11  C   UNL     1     -11.779  13.483  69.214  1.00  0.00    -0.382 A  
HETATM   12  C   UNL     1     -12.269  12.878  70.362  1.00  0.00    -0.381 A  
HETATM   13  C   UNL     1     -12.190  11.491  70.499  1.00  0.00    -0.469 A  
HETATM   14  C   UNL     1     -11.614  10.690  69.503  1.00  0.00    -0.288 A  
BRANCH  14  15
HETATM   15  N   UNL     1     -11.394   9.320  69.765  1.00  0.00    -0.432 NA 
HETATM   16  H   UNL     1     -11.644   8.702  68.993  1.00  0.00     0.000 HD 
BRANCH  15  17
HETATM   17  C   UNL     1     -10.887   8.641  70.914  1.00  0.00    -0.239 A  
HETATM   18  C   UNL     1      -9.521   8.842  71.238  1.00  0.00    -0.272 A  
HETATM   19  C   UNL     1      -8.963   8.383  72.436  1.00  0.00    -0.309 A  
HETATM   20 CL   UNL     1      -8.461   9.682  70.149  1.00  0.00    -0.216 Cl 
HETATM   21  C   UNL     1      -9.748   7.688  73.344  1.00  0.00    -0.363 A  
HETATM   22  C   UNL     1     -11.066   7.389  73.013  1.00  0.00    -0.390 A  
HETATM   23  C   UNL     1     -11.632   7.838  71.805  1.00  0.00    -0.272 A  
HETATM   24 CL   UNL     1     -13.290   7.397  71.588  1.00  0.00    -0.423 Cl 
ENDBRANCH  15  17
ENDBRANCH  14  15
ENDBRANCH   8   9
ENDBRANCH   6   8
ENDBRANCH   5   6
ENDBRANCH   4   5
TORSDOF 6
ENDMDL
MODEL       37
REMARK 921   NORMALIZED FREE ENERGY PREDICTED BY IDOCK:   -6.10 KCAL/MOL
REMARK 922        TOTAL FREE ENERGY PREDICTED BY IDOCK:   -9.20 KCAL/MOL
REMARK 923 INTER-LIGAND FREE ENERGY PREDICTED BY IDOCK:   -8.01 KCAL/MOL
REMARK 924 INTRA-LIGAND FREE ENERGY PREDICTED BY IDOCK:   -1.20 KCAL/MOL
REMARK 927      BINDING AFFINITY PREDICTED BY RF-SCORE:    0.00 PKD
ROOT
HETATM    1  O   UNL     1      -9.069  10.326  65.651  1.00  0.00    -0.159 OA 
HETATM    2  C   UNL     1     -10.260  10.836  66.051  1.00  0.00    -0.251 C  
HETATM    3  O   UNL     1     -10.699  10.650  67.175  1.00  0.00    -0.252 OA 
HETATM    4  C   UNL     1     -10.958  11.642  64.962  1.00  0.00    -0.273 C  
ENDROOT
BRANCH   4   5
HETATM    5  O   UNL     1     -12.239  12.099  65.415  1.00  0.00    -0.515 OA 
BRANCH   5   6
HETATM    6  C   UNL     1     -12.476  13.432  65.297  1.00  0.00    -0.483 C  
HETATM    7  O   UNL     1     -12.760  14.007  64.260  1.00  0.00    -0.661 OA 
BRANCH   6   8
HETATM    8  C   UNL     1     -12.328  14.110  66.648  1.00  0.00    -0.375 C  
BRANCH   8   9
HETATM    9  C   UNL     1     -10.898  14.414  67.031  1.00  0.00    -0.297 A  
HETATM   10  C   UNL     1     -10.118  15.128  66.099  1.00  0.00    -0.314 A  
HETATM   11  C   UNL     1      -8.799  15.479  66.380  1.00  0.00    -0.359 A  
HETATM   12  C   UNL     1      -8.249  15.159  67.613  1.00  0.00    -0.178 A  
HETATM   13  C   UNL     1      -8.999  14.430  68.536  1.00  0.00    -0.187 A  
HETATM   14  C   UNL     1     -10.302  14.002  68.244  1.00  0.00    -0.247 A  
BRANCH  14  15
HETATM   15  N   UNL     1     -10.950  13.117  69.135  1.00  0.00    -0.404 NA 
HETATM   16  H   UNL     1     -10.723  12.134  68.983  1.00  0.00     0.000 HD 
BRANCH  15  17
HETATM   17  C   UNL     1     -11.864  13.347  70.206  1.00  0.00    -0.245 A  
HETATM   18  C   UNL     1     -12.523  12.216  70.753  1.00  0.00    -0.271 A  
HETATM   19  C   UNL     1     -13.293  12.293  71.919  1.00  0.00    -0.431 A  
HETATM   20 CL   UNL     1     -12.401  10.660  69.994  1.00  0.00    -0.365 Cl 
HETATM   21  C   UNL     1     -13.447  13.509  72.568  1.00  0.00    -0.660 A  
HETATM   22  C   UNL     1     -12.896  14.655  72.003  1.00  0.00    -0.403 A  
HETATM   23  C   UNL     1     -12.129  14.588  70.825  1.00  0.00    -0.329 A  
HETATM   24 CL   UNL     1     -11.499  16.110  70.297  1.00  0.00    -0.351 Cl 
ENDBRANCH  15  17
ENDBRANCH  14  15
ENDBRANCH   8   9
ENDBRANCH   6   8
ENDBRANCH   5   6
ENDBRANCH   4   5
TORSDOF 6
ENDMDL
MODEL       38
REMARK 921   NORMALIZED FREE ENERGY PREDICTED BY IDOCK:   -6.10 KCAL/MOL
REMARK 922        TOTAL FREE ENERGY PREDICTED BY IDOCK:   -9.20 KCAL/MOL
REMARK 923 INTER-LIGAND FREE ENERGY PREDICTED BY IDOCK:   -8.16 KCAL/MOL
REMARK 924 INTRA-LIGAND FREE ENERGY PREDICTED BY IDOCK:   -1.04 KCAL/MOL
REMARK 927      BINDING AFFINITY PREDICTED BY RF-SCORE:    0.00 PKD
ROOT
HETATM    1  O   UNL     1      -9.162   6.876  73.574  1.00  0.00    -0.135 OA 
HETATM    2  C   UNL     1      -9.982   7.727  72.911  1.00  0.00    -0.279 C  
HETATM    3  O   UNL     1     -11.186   7.755  73.112  1.00  0.00    -0.402 OA 
HETATM    4  C   UNL     1      -9.242   8.613  71.915  1.00  0.00    -0.275 C  
ENDROOT
BRANCH   4   5
HETATM    5  O   UNL     1     -10.164   9.442  71.194  1.00  0.00    -0.304 OA 
BRANCH   5   6
HETATM    6  C   UNL     1     -10.209   9.257  69.849  1.00  0.00    -0.214 C  
HETATM    7  O   UNL     1     -10.786   8.343  69.283  1.00  0.00    -0.209 OA 
BRANCH   6   8
HETATM    8  C   UNL     1      -9.431  10.354  69.145  1.00  0.00    -0.220 C  
BRANCH   8   9
HETATM    9  C   UNL     1     -10.247  11.147  68.150  1.00  0.00    -0.198 A  
HETATM   10  C   UNL     1     -10.090  10.828  66.786  1.00  0.00    -0.267 A  
HETATM   11  C   UNL     1     -10.825  11.486  65.802  1.00  0.00    -0.319 A  
HETATM   12  C   UNL     1     -11.758  12.446  66.165  1.00  0.00    -0.460 A  
HETATM   13  C   UNL     1     -11.908  12.792  67.508  1.00  0.00    -0.402 A  
HETATM   14  C   UNL     1     -11.125  12.195  68.508  1.00  0.00    -0.252 A  
BRANCH  14  15
HETATM   15  N   UNL     1     -11.186  12.706  69.823  1.00  0.00    -0.482 NA 
HETATM   16  H   UNL     1     -10.363  12.498  70.388  1.00  0.00     0.000 HD 
BRANCH  15  17
HETATM   17  C   UNL     1     -12.189  13.457  70.506  1.00  0.00    -0.352 A  
HETATM   18  C   UNL     1     -13.012  12.759  71.426  1.00  0.00    -0.266 A  
HETATM   19  C   UNL     1     -13.898  13.419  72.285  1.00  0.00    -0.671 A  
HETATM   20 CL   UNL     1     -12.957  11.027  71.534  1.00  0.00    -0.553 Cl 
HETATM   21  C   UNL     1     -14.005  14.801  72.240  1.00  0.00    -0.598 A  
HETATM   22  C   UNL     1     -13.284  15.507  71.282  1.00  0.00    -0.588 A  
HETATM   23  C   UNL     1     -12.400  14.850  70.407  1.00  0.00    -0.345 A  
HETATM   24 CL   UNL     1     -11.568  15.900  69.312  1.00  0.00    -0.371 Cl 
ENDBRANCH  15  17
ENDBRANCH  14  15
ENDBRANCH   8   9
ENDBRANCH   6   8
ENDBRANCH   5   6
ENDBRANCH   4   5
TORSDOF 6
ENDMDL
MODEL       39
REMARK 921   NORMALIZED FREE ENERGY PREDICTED BY IDOCK:   -6.07 KCAL/MOL
REMARK 922        TOTAL FREE ENERGY PREDICTED BY IDOCK:   -9.16 KCAL/MOL
REMARK 923 INTER-LIGAND FREE ENERGY PREDICTED BY IDOCK:   -8.54 KCAL/MOL
REMARK 924 INTRA-LIGAND FREE ENERGY PREDICTED BY IDOCK:   -0.62 KCAL/MOL
REMARK 927      BINDING AFFINITY PREDICTED BY RF-SCORE:    0.00 PKD
ROOT
HETATM    1  O   UNL     1      -9.812  17.251  65.904  1.00  0.00    -0.494 OA 
HETATM    2  C   UNL     1     -10.514  16.433  65.082  1.00  0.00    -0.192 C  
HETATM    3  O   UNL     1     -11.274  16.867  64.231  1.00  0.00    -1.204 OA 
HETATM    4  C   UNL     1     -10.249  14.954  65.345  1.00  0.00    -0.379 C  
ENDROOT
BRANCH   4   5
HETATM    5  O   UNL     1     -11.067  14.136  64.498  1.00  0.00    -0.376 OA 
BRANCH   5   6
HETATM    6  C   UNL     1     -12.199  13.637  65.059  1.00  0.00    -0.421 C  
HETATM    7  O   UNL     1     -13.216  14.274  65.278  1.00  0.00    -0.704 OA 
BRANCH   6   8
HETATM    8  C   UNL     1     -12.015  12.165  65.382  1.00  0.00    -0.296 C  
BRANCH   8   9
HETATM    9  C   UNL     1     -10.888  11.883  66.349  1.00  0.00    -0.318 A  
HETATM   10  C   UNL     1      -9.956  10.891  65.982  1.00  0.00    -0.290 A  
HETATM   11  C   UNL     1      -8.868  10.586  66.798  1.00  0.00    -0.139 A  
HETATM   12  C   UNL     1      -8.668  11.294  67.974  1.00  0.00    -0.144 A  
HETATM   13  C   UNL     1      -9.596  12.261  68.364  1.00  0.00    -0.183 A  
HETATM   14  C   UNL     1     -10.737  12.531  67.596  1.00  0.00    -0.218 A  
BRANCH  14  15
HETATM   15  N   UNL     1     -11.733  13.385  68.121  1.00  0.00    -0.341 NA 
HETATM   16  H   UNL     1     -12.346  13.793  67.416  1.00  0.00     0.000 HD 
BRANCH  15  17
HETATM   17  C   UNL     1     -12.037  13.781  69.458  1.00  0.00    -0.334 A  
HETATM   18  C   UNL     1     -11.911  15.158  69.773  1.00  0.00    -0.333 A  
HETATM   19  C   UNL     1     -12.357  15.689  70.989  1.00  0.00    -0.481 A  
HETATM   20 CL   UNL     1     -11.191  16.267  68.649  1.00  0.00    -0.356 Cl 
HETATM   21  C   UNL     1     -12.926  14.856  71.941  1.00  0.00    -0.414 A  
HETATM   22  C   UNL     1     -12.974  13.487  71.703  1.00  0.00    -0.447 A  
HETATM   23  C   UNL     1     -12.518  12.943  70.488  1.00  0.00    -0.217 A  
HETATM   24 CL   UNL     1     -12.692  11.226  70.365  1.00  0.00    -0.257 Cl 
ENDBRANCH  15  17
ENDBRANCH  14  15
ENDBRANCH   8   9
ENDBRANCH   6   8
ENDBRANCH   5   6
ENDBRANCH   4   5
TORSDOF 6
ENDMDL
MODEL       40
REMARK 921   NORMALIZED FREE ENERGY PREDICTED BY IDOCK:   -6.06 KCAL/MOL
REMARK 922        TOTAL FREE ENERGY PREDICTED BY IDOCK:   -9.15 KCAL/MOL
REMARK 923 INTER-LIGAND FREE ENERGY PREDICTED BY IDOCK:   -8.33 KCAL/MOL
REMARK 924 INTRA-LIGAND FREE ENERGY PREDICTED BY IDOCK:   -0.82 KCAL/MOL
REMARK 927      BINDING AFFINITY PREDICTED BY RF-SCORE:    0.00 PKD
ROOT
HETATM    1  O   UNL     1     -13.988  13.514  72.705  1.00  0.00    -0.752 OA 
HETATM    2  C   UNL     1     -13.159  12.938  71.799  1.00  0.00    -0.360 C  
HETATM    3  O   UNL     1     -12.408  13.598  71.098  1.00  0.00    -0.355 OA 
HETATM    4  C   UNL     1     -13.277  11.419  71.766  1.00  0.00    -0.367 C  
ENDROOT
BRANCH   4   5
HETATM    5  O   UNL     1     -12.431  10.869  70.747  1.00  0.00    -0.335 OA 
BRANCH   5   6
HETATM    6  C   UNL     1     -11.564   9.902  71.145  1.00  0.00    -0.389 C  
HETATM    7  O   UNL     1     -11.683   9.222  72.152  1.00  0.00    -0.319 OA 
BRANCH   6   8
HETATM    8  C   UNL     1     -10.416   9.791  70.158  1.00  0.00    -0.338 C  
BRANCH   8   9
HETATM    9  C   UNL     1     -10.556   8.650  69.177  1.00  0.00    -0.193 A  
HETATM   10  C   UNL     1     -10.831   7.373  69.707  1.00  0.00    -0.246 A  
HETATM   11  C   UNL     1     -11.006   6.269  68.875  1.00  0.00    -0.435 A  
HETATM   12  C   UNL     1     -10.950   6.428  67.498  1.00  0.00    -0.454 A  
HETATM   13  C   UNL     1     -10.654   7.680  66.958  1.00  0.00    -0.406 A  
HETATM   14  C   UNL     1     -10.400   8.789  67.779  1.00  0.00    -0.237 A  
BRANCH  14  15
HETATM   15  N   UNL     1      -9.929   9.984  67.193  1.00  0.00    -0.191 NA 
HETATM   16  H   UNL     1      -9.039  10.310  67.570  1.00  0.00     0.000 HD 
BRANCH  15  17
HETATM   17  C   UNL     1     -10.471  10.819  66.170  1.00  0.00    -0.214 A  
HETATM   18  C   UNL     1     -10.130  10.510  64.829  1.00  0.00    -0.336 A  
HETATM   19  C   UNL     1     -10.745  11.137  63.739  1.00  0.00    -0.399 A  
HETATM   20 CL   UNL     1      -8.919   9.319  64.469  1.00  0.00    -0.220 Cl 
HETATM   21  C   UNL     1     -11.709  12.111  63.955  1.00  0.00    -0.546 A  
HETATM   22  C   UNL     1     -11.995  12.507  65.257  1.00  0.00    -0.490 A  
HETATM   23  C   UNL     1     -11.373  11.889  66.358  1.00  0.00    -0.339 A  
HETATM   24 CL   UNL     1     -11.884  12.494  67.897  1.00  0.00    -0.409 Cl 
ENDBRANCH  15  17
ENDBRANCH  14  15
ENDBRANCH   8   9
ENDBRANCH   6   8
ENDBRANCH   5   6
ENDBRANCH   4   5
TORSDOF 6
ENDMDL
MODEL       41
REMARK 921   NORMALIZED FREE ENERGY PREDICTED BY IDOCK:   -6.05 KCAL/MOL
REMARK 922        TOTAL FREE ENERGY PREDICTED BY IDOCK:   -9.13 KCAL/MOL
REMARK 923 INTER-LIGAND FREE ENERGY PREDICTED BY IDOCK:   -8.16 KCAL/MOL
REMARK 924 INTRA-LIGAND FREE ENERGY PREDICTED BY IDOCK:   -0.97 KCAL/MOL
REMARK 927      BINDING AFFINITY PREDICTED BY RF-SCORE:    0.00 PKD
ROOT
HETATM    1  O   UNL     1     -10.074  16.745  65.442  1.00  0.00    -0.587 OA 
HETATM    2  C   UNL     1     -11.068  16.122  64.762  1.00  0.00    -0.333 C  
HETATM    3  O   UNL     1     -11.649  16.656  63.830  1.00  0.00    -1.204 OA 
HETATM    4  C   UNL     1     -11.360  14.721  65.287  1.00  0.00    -0.363 C  
ENDROOT
BRANCH   4   5
HETATM    5  O   UNL     1     -12.462  14.137  64.579  1.00  0.00    -0.602 OA 
BRANCH   5   6
HETATM    6  C   UNL     1     -12.500  12.779  64.548  1.00  0.00    -0.428 C  
HETATM    7  O   UNL     1     -13.251  12.112  63.854  1.00  0.00    -0.748 OA 
BRANCH   6   8
HETATM    8  C   UNL     1     -11.476  12.205  65.509  1.00  0.00    -0.394 C  
BRANCH   8   9
HETATM    9  C   UNL     1     -10.517  11.224  64.874  1.00  0.00    -0.375 A  
HETATM   10  C   UNL     1      -9.993  11.560  63.609  1.00  0.00    -0.409 A  
HETATM   11  C   UNL     1      -9.080  10.730  62.962  1.00  0.00    -0.290 A  
HETATM   12  C   UNL     1      -8.642   9.570  63.584  1.00  0.00    -0.222 A  
HETATM   13  C   UNL     1      -9.170   9.210  64.825  1.00  0.00    -0.085 A  
HETATM   14  C   UNL     1     -10.145   9.992  65.459  1.00  0.00    -0.255 A  
BRANCH  14  15
HETATM   15  N   UNL     1     -10.776   9.495  66.621  1.00  0.00    -0.089 NA 
HETATM   16  H   UNL     1     -11.787   9.390  66.533  1.00  0.00     0.000 HD 
BRANCH  15  17
HETATM   17  C   UNL     1     -10.258   9.112  67.895  1.00  0.00    -0.216 A  
HETATM   18  C   UNL     1     -10.193   7.725  68.180  1.00  0.00    -0.202 A  
HETATM   19  C   UNL     1      -9.536   7.226  69.312  1.00  0.00    -0.156 A  
HETATM   20 CL   UNL     1     -10.932   6.562  67.125  1.00  0.00    -0.467 Cl 
HETATM   21  C   UNL     1      -8.939   8.101  70.207  1.00  0.00    -0.146 A  
HETATM   22  C   UNL     1      -9.070   9.471  70.007  1.00  0.00    -0.255 A  
HETATM   23  C   UNL     1      -9.738   9.982  68.879  1.00  0.00    -0.181 A  
HETATM   24 CL   UNL     1      -9.766  11.709  68.787  1.00  0.00    -0.155 Cl 
ENDBRANCH  15  17
ENDBRANCH  14  15
ENDBRANCH   8   9
ENDBRANCH   6   8
ENDBRANCH   5   6
ENDBRANCH   4   5
TORSDOF 6
ENDMDL
MODEL       42
REMARK 921   NORMALIZED FREE ENERGY PREDICTED BY IDOCK:   -6.04 KCAL/MOL
REMARK 922        TOTAL FREE ENERGY PREDICTED BY IDOCK:   -9.13 KCAL/MOL
REMARK 923 INTER-LIGAND FREE ENERGY PREDICTED BY IDOCK:   -8.20 KCAL/MOL
REMARK 924 INTRA-LIGAND FREE ENERGY PREDICTED BY IDOCK:   -0.93 KCAL/MOL
REMARK 927      BINDING AFFINITY PREDICTED BY RF-SCORE:    0.00 PKD
ROOT
HETATM    1  O   UNL     1     -12.446  14.178  64.154  1.00  0.00    -0.668 OA 
HETATM    2  C   UNL     1     -12.583  13.076  64.931  1.00  0.00    -0.428 C  
HETATM    3  O   UNL     1     -13.236  12.108  64.572  1.00  0.00    -0.724 OA 
HETATM    4  C   UNL     1     -11.847  13.189  66.261  1.00  0.00    -0.401 C  
ENDROOT
BRANCH   4   5
HETATM    5  O   UNL     1     -12.082  12.027  67.068  1.00  0.00    -0.603 OA 
BRANCH   5   6
HETATM    6  C   UNL     1     -10.982  11.318  67.431  1.00  0.00    -0.282 C  
HETATM    7  O   UNL     1     -10.423  10.483  66.739  1.00  0.00    -0.239 OA 
BRANCH   6   8
HETATM    8  C   UNL     1     -10.547  11.709  68.832  1.00  0.00    -0.224 C  
BRANCH   8   9
HETATM    9  C   UNL     1     -11.372  11.079  69.931  1.00  0.00    -0.364 A  
HETATM   10  C   UNL     1     -12.259  11.919  70.636  1.00  0.00    -0.424 A  
HETATM   11  C   UNL     1     -13.080  11.418  71.643  1.00  0.00    -0.498 A  
HETATM   12  C   UNL     1     -13.060  10.063  71.939  1.00  0.00    -0.563 A  
HETATM   13  C   UNL     1     -12.170   9.222  71.269  1.00  0.00    -0.410 A  
HETATM   14  C   UNL     1     -11.282   9.719  70.304  1.00  0.00    -0.288 A  
BRANCH  14  15
HETATM   15  N   UNL     1     -10.282   8.865  69.788  1.00  0.00    -0.195 NA 
HETATM   16  H   UNL     1      -9.709   9.290  69.059  1.00  0.00     0.000 HD 
BRANCH  15  17
HETATM   17  C   UNL     1      -9.927   7.518  70.099  1.00  0.00    -0.192 A  
HETATM   18  C   UNL     1      -9.185   7.299  71.288  1.00  0.00    -0.150 A  
HETATM   19  C   UNL     1      -8.943   6.016  71.791  1.00  0.00    -0.138 A  
HETATM   20 CL   UNL     1      -8.537   8.632  72.192  1.00  0.00    -0.232 Cl 
HETATM   21  C   UNL     1      -9.418   4.905  71.109  1.00  0.00    -0.216 A  
HETATM   22  C   UNL     1     -10.063   5.081  69.890  1.00  0.00    -0.344 A  
HETATM   23  C   UNL     1     -10.301   6.368  69.372  1.00  0.00    -0.209 A  
HETATM   24 CL   UNL     1     -11.147   6.384  67.863  1.00  0.00    -0.404 Cl 
ENDBRANCH  15  17
ENDBRANCH  14  15
ENDBRANCH   8   9
ENDBRANCH   6   8
ENDBRANCH   5   6
ENDBRANCH   4   5
TORSDOF 6
ENDMDL
MODEL       43
REMARK 921   NORMALIZED FREE ENERGY PREDICTED BY IDOCK:   -6.02 KCAL/MOL
REMARK 922        TOTAL FREE ENERGY PREDICTED BY IDOCK:   -9.10 KCAL/MOL
REMARK 923 INTER-LIGAND FREE ENERGY PREDICTED BY IDOCK:   -8.00 KCAL/MOL
REMARK 924 INTRA-LIGAND FREE ENERGY PREDICTED BY IDOCK:   -1.10 KCAL/MOL
REMARK 927      BINDING AFFINITY PREDICTED BY RF-SCORE:    0.00 PKD
ROOT
HETATM    1  O   UNL     1     -10.855   6.165  66.665  1.00  0.00    -0.294 OA 
HETATM    2  C   UNL     1     -10.795   7.057  67.684  1.00  0.00    -0.242 C  
HETATM    3  O   UNL     1     -11.023   6.736  68.840  1.00  0.00    -0.242 OA 
HETATM    4  C   UNL     1     -10.421   8.461  67.224  1.00  0.00    -0.303 C  
ENDROOT
BRANCH   4   5
HETATM    5  O   UNL     1     -10.440   9.376  68.328  1.00  0.00    -0.204 OA 
BRANCH   5   6
HETATM    6  C   UNL     1     -11.084  10.554  68.119  1.00  0.00    -0.287 C  
HETATM    7  O   UNL     1     -12.184  10.842  68.561  1.00  0.00    -0.535 OA 
BRANCH   6   8
HETATM    8  C   UNL     1     -10.238  11.464  67.248  1.00  0.00    -0.229 C  
BRANCH   8   9
HETATM    9  C   UNL     1     -10.915  11.893  65.966  1.00  0.00    -0.355 A  
HETATM   10  C   UNL     1     -10.533  11.231  64.781  1.00  0.00    -0.384 A  
HETATM   11  C   UNL     1     -11.126  11.540  63.559  1.00  0.00    -0.434 A  
HETATM   12  C   UNL     1     -12.139  12.486  63.504  1.00  0.00    -0.653 A  
HETATM   13  C   UNL     1     -12.512  13.168  64.663  1.00  0.00    -0.433 A  
HETATM   14  C   UNL     1     -11.876  12.926  65.889  1.00  0.00    -0.424 A  
BRANCH  14  15
HETATM   15  N   UNL     1     -12.162  13.766  66.989  1.00  0.00    -0.408 NA 
HETATM   16  H   UNL     1     -13.059  13.574  67.436  1.00  0.00     0.000 HD 
BRANCH  15  17
HETATM   17  C   UNL     1     -11.427  14.833  67.587  1.00  0.00    -0.347 A  
HETATM   18  C   UNL     1     -11.366  14.866  69.004  1.00  0.00    -0.292 A  
HETATM   19  C   UNL     1     -10.527  15.749  69.693  1.00  0.00    -0.289 A  
HETATM   20 CL   UNL     1     -12.339  13.795  69.963  1.00  0.00    -0.384 Cl 
HETATM   21  C   UNL     1      -9.735  16.643  68.989  1.00  0.00    -0.260 A  
HETATM   22  C   UNL     1      -9.846  16.704  67.604  1.00  0.00    -0.256 A  
HETATM   23  C   UNL     1     -10.695  15.827  66.903  1.00  0.00    -0.299 A  
HETATM   24 CL   UNL     1     -10.670  16.031  65.185  1.00  0.00    -0.451 Cl 
ENDBRANCH  15  17
ENDBRANCH  14  15
ENDBRANCH   8   9
ENDBRANCH   6   8
ENDBRANCH   5   6
ENDBRANCH   4   5
TORSDOF 6
ENDMDL
MODEL       44
REMARK 921   NORMALIZED FREE ENERGY PREDICTED BY IDOCK:   -6.02 KCAL/MOL
REMARK 922        TOTAL FREE ENERGY PREDICTED BY IDOCK:   -9.10 KCAL/MOL
REMARK 923 INTER-LIGAND FREE ENERGY PREDICTED BY IDOCK:   -8.04 KCAL/MOL
REMARK 924 INTRA-LIGAND FREE ENERGY PREDICTED BY IDOCK:   -1.05 KCAL/MOL
REMARK 927      BINDING AFFINITY PREDICTED BY RF-SCORE:    0.00 PKD
ROOT
HETATM    1  O   UNL     1     -12.831  12.236  63.794  1.00  0.00    -0.735 OA 
HETATM    2  C   UNL     1     -12.649  12.909  64.957  1.00  0.00    -0.472 C  
HETATM    3  O   UNL     1     -13.152  14.003  65.158  1.00  0.00    -0.776 OA 
HETATM    4  C   UNL     1     -11.768  12.157  65.948  1.00  0.00    -0.328 C  
ENDROOT
BRANCH   4   5
HETATM    5  O   UNL     1     -11.553  12.941  67.129  1.00  0.00    -0.322 OA 
BRANCH   5   6
HETATM    6  C   UNL     1     -11.658  12.283  68.313  1.00  0.00    -0.331 C  
HETATM    7  O   UNL     1     -11.889  12.806  69.391  1.00  0.00    -0.296 OA 
BRANCH   6   8
HETATM    8  C   UNL     1     -11.439  10.795  68.104  1.00  0.00    -0.346 C  
BRANCH   8   9
HETATM    9  C   UNL     1     -10.083  10.303  68.553  1.00  0.00    -0.181 A  
HETATM   10  C   UNL     1      -9.116  10.071  67.553  1.00  0.00    -0.144 A  
HETATM   11  C   UNL     1      -7.830   9.646  67.877  1.00  0.00    -0.087 A  
HETATM   12  C   UNL     1      -7.472   9.485  69.208  1.00  0.00    -0.078 A  
HETATM   13  C   UNL     1      -8.424   9.685  70.209  1.00  0.00    -0.221 A  
HETATM   14  C   UNL     1      -9.745  10.040  69.900  1.00  0.00    -0.203 A  
BRANCH  14  15
HETATM   15  N   UNL     1     -10.711  10.055  70.931  1.00  0.00    -0.359 NA 
HETATM   16  H   UNL     1     -10.641  10.859  71.555  1.00  0.00     0.000 HD 
BRANCH  15  17
HETATM   17  C   UNL     1     -11.765   9.151  71.258  1.00  0.00    -0.326 A  
HETATM   18  C   UNL     1     -13.011   9.714  71.636  1.00  0.00    -0.407 A  
HETATM   19  C   UNL     1     -14.163   8.935  71.798  1.00  0.00    -0.392 A  
HETATM   20 CL   UNL     1     -13.169  11.419  71.917  1.00  0.00    -0.563 Cl 
HETATM   21  C   UNL     1     -14.103   7.563  71.606  1.00  0.00    -0.562 A  
HETATM   22  C   UNL     1     -12.876   6.968  71.332  1.00  0.00    -0.407 A  
HETATM   23  C   UNL     1     -11.711   7.742  71.179  1.00  0.00    -0.284 A  
HETATM   24 CL   UNL     1     -10.291   6.827  70.805  1.00  0.00    -0.222 Cl 
ENDBRANCH  15  17
ENDBRANCH  14  15
ENDBRANCH   8   9
ENDBRANCH   6   8
ENDBRANCH   5   6
ENDBRANCH   4   5
TORSDOF 6
ENDMDL
MODEL       45
REMARK 921   NORMALIZED FREE ENERGY PREDICTED BY IDOCK:   -6.00 KCAL/MOL
REMARK 922        TOTAL FREE ENERGY PREDICTED BY IDOCK:   -9.07 KCAL/MOL
REMARK 923 INTER-LIGAND FREE ENERGY PREDICTED BY IDOCK:   -8.57 KCAL/MOL
REMARK 924 INTRA-LIGAND FREE ENERGY PREDICTED BY IDOCK:   -0.50 KCAL/MOL
REMARK 927      BINDING AFFINITY PREDICTED BY RF-SCORE:    0.00 PKD
ROOT
HETATM    1  O   UNL     1     -10.404  19.834  66.635  1.00  0.00    -0.428 OA 
HETATM    2  C   UNL     1     -10.459  18.489  66.483  1.00  0.00    -0.398 C  
HETATM    3  O   UNL     1     -10.468  17.961  65.381  1.00  0.00    -0.635 OA 
HETATM    4  C   UNL     1     -10.508  17.741  67.810  1.00  0.00    -0.397 C  
ENDROOT
BRANCH   4   5
HETATM    5  O   UNL     1     -10.633  16.329  67.590  1.00  0.00    -0.299 OA 
BRANCH   5   6
HETATM    6  C   UNL     1     -10.466  15.536  68.680  1.00  0.00    -0.237 C  
HETATM    7  O   UNL     1      -9.555  15.631  69.486  1.00  0.00    -0.261 OA 
BRANCH   6   8
HETATM    8  C   UNL     1     -11.577  14.504  68.750  1.00  0.00    -0.343 C  
BRANCH   8   9
HETATM    9  C   UNL     1     -12.178  14.339  70.127  1.00  0.00    -0.407 A  
HETATM   10  C   UNL     1     -12.299  15.497  70.922  1.00  0.00    -0.474 A  
HETATM   11  C   UNL     1     -12.869  15.444  72.192  1.00  0.00    -0.466 A  
HETATM   12  C   UNL     1     -13.367  14.243  72.675  1.00  0.00    -0.619 A  
HETATM   13  C   UNL     1     -13.233  13.082  71.911  1.00  0.00    -0.527 A  
HETATM   14  C   UNL     1     -12.595  13.099  70.662  1.00  0.00    -0.211 A  
BRANCH  14  15
HETATM   15  N   UNL     1     -12.324  11.874  70.013  1.00  0.00    -0.180 NA 
HETATM   16  H   UNL     1     -12.764  11.783  69.097  1.00  0.00     0.000 HD 
BRANCH  15  17
HETATM   17  C   UNL     1     -11.549  10.741  70.404  1.00  0.00    -0.339 A  
HETATM   18  C   UNL     1     -10.307  10.545  69.748  1.00  0.00    -0.166 A  
HETATM   19  C   UNL     1      -9.382   9.584  70.173  1.00  0.00    -0.286 A  
HETATM   20 CL   UNL     1      -9.867  11.504  68.369  1.00  0.00    -0.199 Cl 
HETATM   21  C   UNL     1      -9.678   8.772  71.257  1.00  0.00    -0.335 A  
HETATM   22  C   UNL     1     -10.927   8.872  71.861  1.00  0.00    -0.439 A  
HETATM   23  C   UNL     1     -11.867   9.828  71.433  1.00  0.00    -0.408 A  
HETATM   24 CL   UNL     1     -13.348   9.822  72.328  1.00  0.00    -0.516 Cl 
ENDBRANCH  15  17
ENDBRANCH  14  15
ENDBRANCH   8   9
ENDBRANCH   6   8
ENDBRANCH   5   6
ENDBRANCH   4   5
TORSDOF 6
ENDMDL
MODEL       46
REMARK 921   NORMALIZED FREE ENERGY PREDICTED BY IDOCK:   -6.00 KCAL/MOL
REMARK 922        TOTAL FREE ENERGY PREDICTED BY IDOCK:   -9.07 KCAL/MOL
REMARK 923 INTER-LIGAND FREE ENERGY PREDICTED BY IDOCK:   -8.39 KCAL/MOL
REMARK 924 INTRA-LIGAND FREE ENERGY PREDICTED BY IDOCK:   -0.67 KCAL/MOL
REMARK 927      BINDING AFFINITY PREDICTED BY RF-SCORE:    0.00 PKD
ROOT
HETATM    1  O   UNL     1     -12.074  16.200  63.729  1.00  0.00    -0.946 OA 
HETATM    2  C   UNL     1     -11.329  15.758  64.772  1.00  0.00    -0.314 C  
HETATM    3  O   UNL     1     -10.389  16.400  65.214  1.00  0.00    -0.581 OA 
HETATM    4  C   UNL     1     -11.794  14.408  65.306  1.00  0.00    -0.373 C  
ENDROOT
BRANCH   4   5
HETATM    5  O   UNL     1     -10.932  13.958  66.360  1.00  0.00    -0.299 OA 
BRANCH   5   6
HETATM    6  C   UNL     1     -11.367  12.888  67.074  1.00  0.00    -0.309 C  
HETATM    7  O   UNL     1     -12.265  12.134  66.735  1.00  0.00    -0.553 OA 
BRANCH   6   8
HETATM    8  C   UNL     1     -10.578  12.765  68.365  1.00  0.00    -0.262 C  
BRANCH   8   9
HETATM    9  C   UNL     1     -11.425  12.459  69.578  1.00  0.00    -0.309 A  
HETATM   10  C   UNL     1     -12.179  13.519  70.124  1.00  0.00    -0.400 A  
HETATM   11  C   UNL     1     -13.011  13.321  71.223  1.00  0.00    -0.353 A  
HETATM   12  C   UNL     1     -13.138  12.053  71.772  1.00  0.00    -0.460 A  
HETATM   13  C   UNL     1     -12.381  10.999  71.261  1.00  0.00    -0.426 A  
HETATM   14  C   UNL     1     -11.480  11.192  70.203  1.00  0.00    -0.272 A  
BRANCH  14  15
HETATM   15  N   UNL     1     -10.609  10.141  69.842  1.00  0.00    -0.269 NA 
HETATM   16  H   UNL     1      -9.663  10.445  69.613  1.00  0.00     0.000 HD 
BRANCH  15  17
HETATM   17  C   UNL     1     -10.811   8.732  69.739  1.00  0.00    -0.193 A  
HETATM   18  C   UNL     1     -10.739   8.157  68.445  1.00  0.00    -0.012 A  
HETATM   19  C   UNL     1     -10.734   6.772  68.243  1.00  0.00    -0.290 A  
HETATM   20 CL   UNL     1     -10.648   9.158  67.029  1.00  0.00    -0.304 Cl 
HETATM   21  C   UNL     1     -10.821   5.914  69.329  1.00  0.00    -0.414 A  
HETATM   22  C   UNL     1     -10.992   6.446  70.602  1.00  0.00    -0.355 A  
HETATM   23  C   UNL     1     -11.009   7.837  70.813  1.00  0.00    -0.252 A  
HETATM   24 CL   UNL     1     -11.196   8.305  72.469  1.00  0.00    -0.449 Cl 
ENDBRANCH  15  17
ENDBRANCH  14  15
ENDBRANCH   8   9
ENDBRANCH   6   8
ENDBRANCH   5   6
ENDBRANCH   4   5
TORSDOF 6
ENDMDL
MODEL       47
REMARK 921   NORMALIZED FREE ENERGY PREDICTED BY IDOCK:   -6.00 KCAL/MOL
REMARK 922        TOTAL FREE ENERGY PREDICTED BY IDOCK:   -9.06 KCAL/MOL
REMARK 923 INTER-LIGAND FREE ENERGY PREDICTED BY IDOCK:   -7.99 KCAL/MOL
REMARK 924 INTRA-LIGAND FREE ENERGY PREDICTED BY IDOCK:   -1.08 KCAL/MOL
REMARK 927      BINDING AFFINITY PREDICTED BY RF-SCORE:    0.00 PKD
ROOT
HETATM    1  O   UNL     1     -12.959  11.984  63.401  1.00  0.00    -0.772 OA 
HETATM    2  C   UNL     1     -12.440  12.653  64.460  1.00  0.00    -0.448 C  
HETATM    3  O   UNL     1     -13.095  13.461  65.100  1.00  0.00    -0.724 OA 
HETATM    4  C   UNL     1     -10.988  12.284  64.743  1.00  0.00    -0.303 C  
ENDROOT
BRANCH   4   5
HETATM    5  O   UNL     1     -10.471  13.068  65.826  1.00  0.00    -0.271 OA 
BRANCH   5   6
HETATM    6  C   UNL     1     -10.120  12.384  66.946  1.00  0.00    -0.219 C  
HETATM    7  O   UNL     1     -10.333  11.199  67.143  1.00  0.00    -0.197 OA 
BRANCH   6   8
HETATM    8  C   UNL     1      -9.425  13.310  67.928  1.00  0.00    -0.214 C  
BRANCH   8   9
HETATM    9  C   UNL     1     -10.365  14.208  68.699  1.00  0.00    -0.243 A  
HETATM   10  C   UNL     1     -11.446  13.592  69.362  1.00  0.00    -0.343 A  
HETATM   11  C   UNL     1     -12.345  14.338  70.122  1.00  0.00    -0.413 A  
HETATM   12  C   UNL     1     -12.158  15.704  70.267  1.00  0.00    -0.413 A  
HETATM   13  C   UNL     1     -11.108  16.333  69.596  1.00  0.00    -0.333 A  
HETATM   14  C   UNL     1     -10.236  15.613  68.767  1.00  0.00    -0.215 A  
BRANCH  14  15
HETATM   15  N   UNL     1      -9.305  16.319  67.972  1.00  0.00    -0.212 NA 
HETATM   16  H   UNL     1      -8.468  15.786  67.740  1.00  0.00     0.000 HD 
BRANCH  15  17
HETATM   17  C   UNL     1      -9.323  17.641  67.435  1.00  0.00    -0.247 A  
HETATM   18  C   UNL     1     -10.184  17.886  66.335  1.00  0.00    -0.372 A  
HETATM   19  C   UNL     1     -10.424  19.176  65.848  1.00  0.00    -0.500 A  
HETATM   20 CL   UNL     1     -10.995  16.579  65.531  1.00  0.00    -0.166 Cl 
HETATM   21  C   UNL     1      -9.795  20.265  66.432  1.00  0.00    -0.502 A  
HETATM   22  C   UNL     1      -8.869  20.049  67.448  1.00  0.00    -0.428 A  
HETATM   23  C   UNL     1      -8.614  18.755  67.937  1.00  0.00    -0.296 A  
HETATM   24 CL   UNL     1      -7.459  18.693  69.224  1.00  0.00    -0.154 Cl 
ENDBRANCH  15  17
ENDBRANCH  14  15
ENDBRANCH   8   9
ENDBRANCH   6   8
ENDBRANCH   5   6
ENDBRANCH   4   5
TORSDOF 6
ENDMDL
MODEL       48
REMARK 921   NORMALIZED FREE ENERGY PREDICTED BY IDOCK:   -5.99 KCAL/MOL
REMARK 922        TOTAL FREE ENERGY PREDICTED BY IDOCK:   -9.05 KCAL/MOL
REMARK 923 INTER-LIGAND FREE ENERGY PREDICTED BY IDOCK:   -8.05 KCAL/MOL
REMARK 924 INTRA-LIGAND FREE ENERGY PREDICTED BY IDOCK:   -1.01 KCAL/MOL
REMARK 927      BINDING AFFINITY PREDICTED BY RF-SCORE:    0.00 PKD
ROOT
HETATM    1  O   UNL     1      -9.705  10.095  66.783  1.00  0.00    -0.173 OA 
HETATM    2  C   UNL     1     -10.881  10.758  66.905  1.00  0.00    -0.229 C  
HETATM    3  O   UNL     1     -11.622  10.593  67.861  1.00  0.00    -0.491 OA 
HETATM    4  C   UNL     1     -11.155  11.703  65.740  1.00  0.00    -0.256 C  
ENDROOT
BRANCH   4   5
HETATM    5  O   UNL     1     -12.439  12.324  65.886  1.00  0.00    -0.535 OA 
BRANCH   5   6
HETATM    6  C   UNL     1     -12.466  13.677  65.768  1.00  0.00    -0.477 C  
HETATM    7  O   UNL     1     -13.393  14.326  65.309  1.00  0.00    -0.660 OA 
BRANCH   6   8
HETATM    8  C   UNL     1     -11.170  14.273  66.286  1.00  0.00    -0.337 C  
BRANCH   8   9
HETATM    9  C   UNL     1     -11.277  14.874  67.669  1.00  0.00    -0.330 A  
HETATM   10  C   UNL     1     -11.884  14.089  68.670  1.00  0.00    -0.396 A  
HETATM   11  C   UNL     1     -11.998  14.550  69.979  1.00  0.00    -0.388 A  
HETATM   12  C   UNL     1     -11.474  15.788  70.322  1.00  0.00    -0.369 A  
HETATM   13  C   UNL     1     -10.893  16.589  69.338  1.00  0.00    -0.311 A  
HETATM   14  C   UNL     1     -10.835  16.175  67.999  1.00  0.00    -0.333 A  
BRANCH  14  15
HETATM   15  N   UNL     1     -10.404  17.092  67.015  1.00  0.00    -0.315 NA 
HETATM   16  H   UNL     1     -11.153  17.449  66.422  1.00  0.00     0.000 HD 
BRANCH  15  17
HETATM   17  C   UNL     1      -9.112  17.611  66.699  1.00  0.00    -0.264 A  
HETATM   18  C   UNL     1      -9.021  18.996  66.409  1.00  0.00    -0.324 A  
HETATM   19  C   UNL     1      -7.790  19.649  66.269  1.00  0.00    -0.331 A  
HETATM   20 CL   UNL     1     -10.450  19.962  66.212  1.00  0.00    -0.592 Cl 
HETATM   21  C   UNL     1      -6.609  18.934  66.396  1.00  0.00    -0.220 A  
HETATM   22  C   UNL     1      -6.665  17.557  66.583  1.00  0.00    -0.256 A  
HETATM   23  C   UNL     1      -7.898  16.891  66.714  1.00  0.00    -0.244 A  
HETATM   24 CL   UNL     1      -7.762  15.186  66.976  1.00  0.00    -0.218 Cl 
ENDBRANCH  15  17
ENDBRANCH  14  15
ENDBRANCH   8   9
ENDBRANCH   6   8
ENDBRANCH   5   6
ENDBRANCH   4   5
TORSDOF 6
ENDMDL
MODEL       49
REMARK 921   NORMALIZED FREE ENERGY PREDICTED BY IDOCK:   -5.99 KCAL/MOL
REMARK 922        TOTAL FREE ENERGY PREDICTED BY IDOCK:   -9.05 KCAL/MOL
REMARK 923 INTER-LIGAND FREE ENERGY PREDICTED BY IDOCK:   -8.13 KCAL/MOL
REMARK 924 INTRA-LIGAND FREE ENERGY PREDICTED BY IDOCK:   -0.91 KCAL/MOL
REMARK 927      BINDING AFFINITY PREDICTED BY RF-SCORE:    0.00 PKD
ROOT
HETATM    1  O   UNL     1     -14.032   6.540  71.828  1.00  0.00    -0.076 OA 
HETATM    2  C   UNL     1     -12.801   7.082  71.658  1.00  0.00    -0.364 C  
HETATM    3  O   UNL     1     -11.864   6.437  71.215  1.00  0.00    -0.327 OA 
HETATM    4  C   UNL     1     -12.734   8.548  72.074  1.00  0.00    -0.376 C  
ENDROOT
BRANCH   4   5
HETATM    5  O   UNL     1     -11.397   9.050  71.938  1.00  0.00    -0.349 OA 
BRANCH   5   6
HETATM    6  C   UNL     1     -11.167   9.856  70.869  1.00  0.00    -0.360 C  
HETATM    7  O   UNL     1     -10.086  10.010  70.324  1.00  0.00    -0.260 OA 
BRANCH   6   8
HETATM    8  C   UNL     1     -12.451  10.547  70.449  1.00  0.00    -0.392 C  
BRANCH   8   9
HETATM    9  C   UNL     1     -12.550  11.988  70.896  1.00  0.00    -0.347 A  
HETATM   10  C   UNL     1     -13.432  12.277  71.957  1.00  0.00    -0.418 A  
HETATM   11  C   UNL     1     -13.564  13.571  72.454  1.00  0.00    -0.709 A  
HETATM   12  C   UNL     1     -12.788  14.594  71.928  1.00  0.00    -0.399 A  
HETATM   13  C   UNL     1     -11.929  14.330  70.860  1.00  0.00    -0.389 A  
HETATM   14  C   UNL     1     -11.836  13.050  70.295  1.00  0.00    -0.217 A  
BRANCH  14  15
HETATM   15  N   UNL     1     -11.092  12.875  69.107  1.00  0.00    -0.385 NA 
HETATM   16  H   UNL     1     -10.189  12.422  69.245  1.00  0.00     0.000 HD 
BRANCH  15  17
HETATM   17  C   UNL     1     -11.373  13.218  67.751  1.00  0.00    -0.295 A  
HETATM   18  C   UNL     1     -11.456  12.155  66.815  1.00  0.00    -0.356 A  
HETATM   19  C   UNL     1     -11.907  12.349  65.504  1.00  0.00    -0.469 A  
HETATM   20 CL   UNL     1     -11.000  10.541  67.258  1.00  0.00    -0.343 Cl 
HETATM   21  C   UNL     1     -12.271  13.618  65.078  1.00  0.00    -0.450 A  
HETATM   22  C   UNL     1     -12.108  14.697  65.940  1.00  0.00    -0.212 A  
HETATM   23  C   UNL     1     -11.645  14.513  67.257  1.00  0.00    -0.385 A  
HETATM   24 CL   UNL     1     -11.543  15.968  68.187  1.00  0.00    -0.256 Cl 
ENDBRANCH  15  17
ENDBRANCH  14  15
ENDBRANCH   8   9
ENDBRANCH   6   8
ENDBRANCH   5   6
ENDBRANCH   4   5
TORSDOF 6
ENDMDL
MODEL       50
REMARK 921   NORMALIZED FREE ENERGY PREDICTED BY IDOCK:   -5.97 KCAL/MOL
REMARK 922        TOTAL FREE ENERGY PREDICTED BY IDOCK:   -9.03 KCAL/MOL
REMARK 923 INTER-LIGAND FREE ENERGY PREDICTED BY IDOCK:   -8.39 KCAL/MOL
REMARK 924 INTRA-LIGAND FREE ENERGY PREDICTED BY IDOCK:   -0.64 KCAL/MOL
REMARK 927      BINDING AFFINITY PREDICTED BY RF-SCORE:    0.00 PKD
ROOT
HETATM    1  O   UNL     1     -10.312   7.274  73.533  1.00  0.00    -0.321 OA 
HETATM    2  C   UNL     1     -10.145   8.334  72.705  1.00  0.00    -0.295 C  
HETATM    3  O   UNL     1      -9.050   8.839  72.512  1.00  0.00    -0.367 OA 
HETATM    4  C   UNL     1     -11.448   8.802  72.067  1.00  0.00    -0.371 C  
ENDROOT
BRANCH   4   5
HETATM    5  O   UNL     1     -11.224   9.965  71.257  1.00  0.00    -0.361 OA 
BRANCH   5   6
HETATM    6  C   UNL     1     -12.323  10.506  70.670  1.00  0.00    -0.356 C  
HETATM    7  O   UNL     1     -13.437  10.008  70.668  1.00  0.00    -0.260 OA 
BRANCH   6   8
HETATM    8  C   UNL     1     -11.965  11.824  70.007  1.00  0.00    -0.421 C  
BRANCH   8   9
HETATM    9  C   UNL     1     -12.589  13.033  70.664  1.00  0.00    -0.270 A  
HETATM   10  C   UNL     1     -13.051  12.883  71.987  1.00  0.00    -0.483 A  
HETATM   11  C   UNL     1     -13.612  13.953  72.682  1.00  0.00    -0.626 A  
HETATM   12  C   UNL     1     -13.685  15.201  72.082  1.00  0.00    -0.583 A  
HETATM   13  C   UNL     1     -13.257  15.361  70.763  1.00  0.00    -0.440 A  
HETATM   14  C   UNL     1     -12.758  14.281  70.021  1.00  0.00    -0.117 A  
BRANCH  14  15
HETATM   15  N   UNL     1     -12.507  14.453  68.642  1.00  0.00    -0.550 NA 
HETATM   16  H   UNL     1     -13.332  14.343  68.052  1.00  0.00     0.000 HD 
BRANCH  15  17
HETATM   17  C   UNL     1     -11.312  14.751  67.922  1.00  0.00    -0.316 A  
HETATM   18  C   UNL     1     -10.990  13.918  66.821  1.00  0.00    -0.299 A  
HETATM   19  C   UNL     1      -9.951  14.223  65.933  1.00  0.00    -0.340 A  
HETATM   20 CL   UNL     1     -11.883  12.462  66.514  1.00  0.00    -0.442 Cl 
HETATM   21  C   UNL     1      -9.185  15.363  66.130  1.00  0.00    -0.362 A  
HETATM   22  C   UNL     1      -9.411  16.147  67.255  1.00  0.00    -0.231 A  
HETATM   23  C   UNL     1     -10.447  15.842  68.159  1.00  0.00    -0.270 A  
HETATM   24 CL   UNL     1     -10.594  16.954  69.476  1.00  0.00    -0.305 Cl 
ENDBRANCH  15  17
ENDBRANCH  14  15
ENDBRANCH   8   9
ENDBRANCH   6   8
ENDBRANCH   5   6
ENDBRANCH   4   5
TORSDOF 6
ENDMDL
MODEL       51
REMARK 921   NORMALIZED FREE ENERGY PREDICTED BY IDOCK:   -5.95 KCAL/MOL
REMARK 922        TOTAL FREE ENERGY PREDICTED BY IDOCK:   -9.00 KCAL/MOL
REMARK 923 INTER-LIGAND FREE ENERGY PREDICTED BY IDOCK:   -7.60 KCAL/MOL
REMARK 924 INTRA-LIGAND FREE ENERGY PREDICTED BY IDOCK:   -1.40 KCAL/MOL
REMARK 927      BINDING AFFINITY PREDICTED BY RF-SCORE:    0.00 PKD
ROOT
HETATM    1  O   UNL     1      -6.823  15.851  66.591  1.00  0.00    -0.204 OA 
HETATM    2  C   UNL     1      -8.029  15.517  67.112  1.00  0.00    -0.221 C  
HETATM    3  O   UNL     1      -8.133  14.906  68.164  1.00  0.00    -0.127 OA 
HETATM    4  C   UNL     1      -9.199  15.981  66.252  1.00  0.00    -0.333 C  
ENDROOT
BRANCH   4   5
HETATM    5  O   UNL     1     -10.443  15.543  66.813  1.00  0.00    -0.283 OA 
BRANCH   5   6
HETATM    6  C   UNL     1     -11.303  14.930  65.959  1.00  0.00    -0.306 C  
HETATM    7  O   UNL     1     -11.400  15.170  64.766  1.00  0.00    -0.400 OA 
BRANCH   6   8
HETATM    8  C   UNL     1     -12.137  13.903  66.703  1.00  0.00    -0.485 C  
BRANCH   8   9
HETATM    9  C   UNL     1     -11.361  12.683  67.144  1.00  0.00    -0.373 A  
HETATM   10  C   UNL     1     -11.361  11.570  66.278  1.00  0.00    -0.222 A  
HETATM   11  C   UNL     1     -10.649  10.414  66.589  1.00  0.00    -0.245 A  
HETATM   12  C   UNL     1      -9.890  10.363  67.749  1.00  0.00    -0.193 A  
HETATM   13  C   UNL     1      -9.899  11.446  68.629  1.00  0.00    -0.199 A  
HETATM   14  C   UNL     1     -10.669  12.590  68.373  1.00  0.00    -0.240 A  
BRANCH  14  15
HETATM   15  N   UNL     1     -10.786  13.578  69.375  1.00  0.00    -0.450 NA 
HETATM   16  H   UNL     1     -10.015  14.245  69.395  1.00  0.00     0.000 HD 
BRANCH  15  17
HETATM   17  C   UNL     1     -11.786  13.813  70.366  1.00  0.00    -0.253 A  
HETATM   18  C   UNL     1     -12.100  15.163  70.667  1.00  0.00    -0.329 A  
HETATM   19  C   UNL     1     -13.185  15.514  71.478  1.00  0.00    -0.589 A  
HETATM   20 CL   UNL     1     -11.141  16.463  70.031  1.00  0.00    -0.348 Cl 
HETATM   21  C   UNL     1     -13.983  14.525  72.033  1.00  0.00    -0.587 A  
HETATM   22  C   UNL     1     -13.643  13.190  71.839  1.00  0.00    -0.453 A  
HETATM   23  C   UNL     1     -12.547  12.828  71.033  1.00  0.00    -0.271 A  
HETATM   24 CL   UNL     1     -12.306  11.122  70.883  1.00  0.00    -0.485 Cl 
ENDBRANCH  15  17
ENDBRANCH  14  15
ENDBRANCH   8   9
ENDBRANCH   6   8
ENDBRANCH   5   6
ENDBRANCH   4   5
TORSDOF 6
ENDMDL
MODEL       52
REMARK 921   NORMALIZED FREE ENERGY PREDICTED BY IDOCK:   -5.95 KCAL/MOL
REMARK 922        TOTAL FREE ENERGY PREDICTED BY IDOCK:   -9.00 KCAL/MOL
REMARK 923 INTER-LIGAND FREE ENERGY PREDICTED BY IDOCK:   -8.16 KCAL/MOL
REMARK 924 INTRA-LIGAND FREE ENERGY PREDICTED BY IDOCK:   -0.84 KCAL/MOL
REMARK 927      BINDING AFFINITY PREDICTED BY RF-SCORE:    0.00 PKD
ROOT
HETATM    1  O   UNL     1     -10.045  11.180  63.130  1.00  0.00    -0.336 OA 
HETATM    2  C   UNL     1     -11.172  11.591  63.761  1.00  0.00    -0.370 C  
HETATM    3  O   UNL     1     -12.217  11.782  63.159  1.00  0.00    -0.429 OA 
HETATM    4  C   UNL     1     -10.979  11.780  65.261  1.00  0.00    -0.295 C  
ENDROOT
BRANCH   4   5
HETATM    5  O   UNL     1     -12.180  12.280  65.865  1.00  0.00    -0.634 OA 
BRANCH   5   6
HETATM    6  C   UNL     1     -12.327  13.631  65.877  1.00  0.00    -0.471 C  
HETATM    7  O   UNL     1     -13.287  14.239  65.433  1.00  0.00    -0.649 OA 
BRANCH   6   8
HETATM    8  C   UNL     1     -11.115  14.282  66.521  1.00  0.00    -0.323 C  
BRANCH   8   9
HETATM    9  C   UNL     1     -11.326  14.683  67.963  1.00  0.00    -0.329 A  
HETATM   10  C   UNL     1     -12.092  13.817  68.769  1.00  0.00    -0.344 A  
HETATM   11  C   UNL     1     -12.312  14.092  70.117  1.00  0.00    -0.413 A  
HETATM   12  C   UNL     1     -11.736  15.215  70.694  1.00  0.00    -0.356 A  
HETATM   13  C   UNL     1     -10.996  16.096  69.905  1.00  0.00    -0.362 A  
HETATM   14  C   UNL     1     -10.826  15.877  68.530  1.00  0.00    -0.298 A  
BRANCH  14  15
HETATM   15  N   UNL     1     -10.225  16.886  67.744  1.00  0.00    -0.296 NA 
HETATM   16  H   UNL     1     -10.758  17.137  66.912  1.00  0.00     0.000 HD 
BRANCH  15  17
HETATM   17  C   UNL     1      -9.009  17.616  67.901  1.00  0.00    -0.250 A  
HETATM   18  C   UNL     1      -7.808  16.971  67.509  1.00  0.00    -0.170 A  
HETATM   19  C   UNL     1      -6.585  17.649  67.442  1.00  0.00    -0.178 A  
HETATM   20 CL   UNL     1      -7.797  15.288  67.084  1.00  0.00    -0.240 Cl 
HETATM   21  C   UNL     1      -6.518  18.992  67.784  1.00  0.00    -0.223 A  
HETATM   22  C   UNL     1      -7.658  19.627  68.267  1.00  0.00    -0.351 A  
HETATM   23  C   UNL     1      -8.889  18.950  68.348  1.00  0.00    -0.344 A  
HETATM   24 CL   UNL     1     -10.197  19.916  68.938  1.00  0.00    -0.498 Cl 
ENDBRANCH  15  17
ENDBRANCH  14  15
ENDBRANCH   8   9
ENDBRANCH   6   8
ENDBRANCH   5   6
ENDBRANCH   4   5
TORSDOF 6
ENDMDL
MODEL       53
REMARK 921   NORMALIZED FREE ENERGY PREDICTED BY IDOCK:   -5.94 KCAL/MOL
REMARK 922        TOTAL FREE ENERGY PREDICTED BY IDOCK:   -8.99 KCAL/MOL
REMARK 923 INTER-LIGAND FREE ENERGY PREDICTED BY IDOCK:   -7.85 KCAL/MOL
REMARK 924 INTRA-LIGAND FREE ENERGY PREDICTED BY IDOCK:   -1.14 KCAL/MOL
REMARK 927      BINDING AFFINITY PREDICTED BY RF-SCORE:    0.00 PKD
ROOT
HETATM    1  O   UNL     1     -14.011  14.014  72.741  1.00  0.00    -0.669 OA 
HETATM    2  C   UNL     1     -13.368  13.154  71.914  1.00  0.00    -0.455 C  
HETATM    3  O   UNL     1     -13.318  11.955  72.140  1.00  0.00    -0.503 OA 
HETATM    4  C   UNL     1     -12.736  13.844  70.711  1.00  0.00    -0.313 C  
ENDROOT
BRANCH   4   5
HETATM    5  O   UNL     1     -12.014  12.900  69.909  1.00  0.00    -0.324 OA 
BRANCH   5   6
HETATM    6  C   UNL     1     -11.662  13.316  68.665  1.00  0.00    -0.341 C  
HETATM    7  O   UNL     1     -12.393  13.309  67.688  1.00  0.00    -0.204 OA 
BRANCH   6   8
HETATM    8  C   UNL     1     -10.219  13.788  68.661  1.00  0.00    -0.209 C  
BRANCH   8   9
HETATM    9  C   UNL     1     -10.023  15.165  68.070  1.00  0.00    -0.221 A  
HETATM   10  C   UNL     1     -10.366  16.269  68.878  1.00  0.00    -0.263 A  
HETATM   11  C   UNL     1     -10.190  17.575  68.428  1.00  0.00    -0.372 A  
HETATM   12  C   UNL     1      -9.631  17.804  67.179  1.00  0.00    -0.276 A  
HETATM   13  C   UNL     1      -9.311  16.723  66.356  1.00  0.00    -0.305 A  
HETATM   14  C   UNL     1      -9.549  15.402  66.760  1.00  0.00    -0.241 A  
BRANCH  14  15
HETATM   15  N   UNL     1      -9.377  14.357  65.826  1.00  0.00    -0.530 NA 
HETATM   16  H   UNL     1      -8.407  14.066  65.701  1.00  0.00     0.000 HD 
BRANCH  15  17
HETATM   17  C   UNL     1     -10.310  13.634  65.024  1.00  0.00    -0.374 A  
HETATM   18  C   UNL     1     -10.191  12.221  64.999  1.00  0.00    -0.285 A  
HETATM   19  C   UNL     1     -11.156  11.401  64.404  1.00  0.00    -0.329 A  
HETATM   20 CL   UNL     1      -8.824  11.430  65.720  1.00  0.00    -0.159 Cl 
HETATM   21  C   UNL     1     -12.265  11.968  63.794  1.00  0.00    -0.600 A  
HETATM   22  C   UNL     1     -12.363  13.353  63.715  1.00  0.00    -0.418 A  
HETATM   23  C   UNL     1     -11.391  14.186  64.301  1.00  0.00    -0.226 A  
HETATM   24 CL   UNL     1     -11.704  15.878  64.129  1.00  0.00    -0.236 Cl 
ENDBRANCH  15  17
ENDBRANCH  14  15
ENDBRANCH   8   9
ENDBRANCH   6   8
ENDBRANCH   5   6
ENDBRANCH   4   5
TORSDOF 6
ENDMDL
MODEL       54
REMARK 921   NORMALIZED FREE ENERGY PREDICTED BY IDOCK:   -5.94 KCAL/MOL
REMARK 922        TOTAL FREE ENERGY PREDICTED BY IDOCK:   -8.99 KCAL/MOL
REMARK 923 INTER-LIGAND FREE ENERGY PREDICTED BY IDOCK:   -7.86 KCAL/MOL
REMARK 924 INTRA-LIGAND FREE ENERGY PREDICTED BY IDOCK:   -1.12 KCAL/MOL
REMARK 927      BINDING AFFINITY PREDICTED BY RF-SCORE:    0.00 PKD
ROOT
HETATM    1  O   UNL     1     -12.955  12.132  63.278  1.00  0.00    -0.735 OA 
HETATM    2  C   UNL     1     -11.813  12.802  63.568  1.00  0.00    -0.546 C  
HETATM    3  O   UNL     1     -10.726  12.441  63.147  1.00  0.00    -0.352 OA 
HETATM    4  C   UNL     1     -12.047  14.021  64.454  1.00  0.00    -0.458 C  
ENDROOT
BRANCH   4   5
HETATM    5  O   UNL     1     -10.802  14.651  64.784  1.00  0.00    -0.399 OA 
BRANCH   5   6
HETATM    6  C   UNL     1     -10.869  15.963  65.133  1.00  0.00    -0.421 C  
HETATM    7  O   UNL     1     -11.085  16.886  64.364  1.00  0.00    -1.128 OA 
BRANCH   6   8
HETATM    8  C   UNL     1     -10.629  16.119  66.624  1.00  0.00    -0.274 C  
BRANCH   8   9
HETATM    9  C   UNL     1      -9.177  16.313  66.997  1.00  0.00    -0.230 A  
HETATM   10  C   UNL     1      -8.446  17.273  66.267  1.00  0.00    -0.278 A  
HETATM   11  C   UNL     1      -7.111  17.540  66.562  1.00  0.00    -0.289 A  
HETATM   12  C   UNL     1      -6.493  16.884  67.617  1.00  0.00    -0.165 A  
HETATM   13  C   UNL     1      -7.195  15.913  68.333  1.00  0.00    -0.121 A  
HETATM   14  C   UNL     1      -8.516  15.575  68.004  1.00  0.00    -0.143 A  
BRANCH  14  15
HETATM   15  N   UNL     1      -9.119  14.465  68.637  1.00  0.00    -0.231 NA 
HETATM   16  H   UNL     1      -9.165  14.541  69.654  1.00  0.00     0.000 HD 
BRANCH  15  17
HETATM   17  C   UNL     1      -9.674  13.259  68.116  1.00  0.00    -0.227 A  
HETATM   18  C   UNL     1     -11.076  13.082  68.237  1.00  0.00    -0.263 A  
HETATM   19  C   UNL     1     -11.754  12.035  67.603  1.00  0.00    -0.365 A  
HETATM   20 CL   UNL     1     -12.033  14.174  69.189  1.00  0.00    -0.378 Cl 
HETATM   21  C   UNL     1     -11.049  11.115  66.841  1.00  0.00    -0.313 A  
HETATM   22  C   UNL     1      -9.662  11.203  66.782  1.00  0.00    -0.220 A  
HETATM   23  C   UNL     1      -8.971  12.247  67.426  1.00  0.00    -0.183 A  
HETATM   24 CL   UNL     1      -7.255  12.207  67.209  1.00  0.00    -0.145 Cl 
ENDBRANCH  15  17
ENDBRANCH  14  15
ENDBRANCH   8   9
ENDBRANCH   6   8
ENDBRANCH   5   6
ENDBRANCH   4   5
TORSDOF 6
ENDMDL
MODEL       55
REMARK 921   NORMALIZED FREE ENERGY PREDICTED BY IDOCK:   -5.94 KCAL/MOL
REMARK 922        TOTAL FREE ENERGY PREDICTED BY IDOCK:   -8.98 KCAL/MOL
REMARK 923 INTER-LIGAND FREE ENERGY PREDICTED BY IDOCK:   -7.88 KCAL/MOL
REMARK 924 INTRA-LIGAND FREE ENERGY PREDICTED BY IDOCK:   -1.11 KCAL/MOL
REMARK 927      BINDING AFFINITY PREDICTED BY RF-SCORE:    0.00 PKD
ROOT
HETATM    1  O   UNL     1     -12.081   8.989  72.172  1.00  0.00    -0.363 OA 
HETATM    2  C   UNL     1     -12.392  10.183  71.613  1.00  0.00    -0.377 C  
HETATM    3  O   UNL     1     -13.266  10.904  72.068  1.00  0.00    -0.492 OA 
HETATM    4  C   UNL     1     -11.544  10.505  70.387  1.00  0.00    -0.342 C  
ENDROOT
BRANCH   4   5
HETATM    5  O   UNL     1     -11.960  11.744  69.796  1.00  0.00    -0.310 OA 
BRANCH   5   6
HETATM    6  C   UNL     1     -11.546  11.969  68.522  1.00  0.00    -0.309 C  
HETATM    7  O   UNL     1     -12.144  11.622  67.516  1.00  0.00    -0.611 OA 
BRANCH   6   8
HETATM    8  C   UNL     1     -10.223  12.713  68.527  1.00  0.00    -0.207 C  
BRANCH   8   9
HETATM    9  C   UNL     1     -10.355  14.205  68.323  1.00  0.00    -0.245 A  
HETATM   10  C   UNL     1     -10.892  14.958  69.387  1.00  0.00    -0.274 A  
HETATM   11  C   UNL     1     -11.022  16.342  69.299  1.00  0.00    -0.317 A  
HETATM   12  C   UNL     1     -10.581  17.004  68.163  1.00  0.00    -0.369 A  
HETATM   13  C   UNL     1     -10.070  16.272  67.090  1.00  0.00    -0.268 A  
HETATM   14  C   UNL     1     -10.000  14.872  67.128  1.00  0.00    -0.231 A  
BRANCH  14  15
HETATM   15  N   UNL     1      -9.646  14.170  65.955  1.00  0.00    -0.495 NA 
HETATM   16  H   UNL     1      -8.646  14.174  65.753  1.00  0.00     0.000 HD 
BRANCH  15  17
HETATM   17  C   UNL     1     -10.432  13.457  65.000  1.00  0.00    -0.365 A  
HETATM   18  C   UNL     1     -10.166  12.073  64.842  1.00  0.00    -0.270 A  
HETATM   19  C   UNL     1     -10.990  11.238  64.079  1.00  0.00    -0.377 A  
HETATM   20 CL   UNL     1      -8.789  11.338  65.602  1.00  0.00    -0.165 Cl 
HETATM   21  C   UNL     1     -12.097  11.763  63.430  1.00  0.00    -0.449 A  
HETATM   22  C   UNL     1     -12.329  13.133  63.484  1.00  0.00    -0.478 A  
HETATM   23  C   UNL     1     -11.500  13.982  64.240  1.00  0.00    -0.297 A  
HETATM   24 CL   UNL     1     -11.969  15.647  64.213  1.00  0.00    -0.267 Cl 
ENDBRANCH  15  17
ENDBRANCH  14  15
ENDBRANCH   8   9
ENDBRANCH   6   8
ENDBRANCH   5   6
ENDBRANCH   4   5
TORSDOF 6
ENDMDL
MODEL       56
REMARK 921   NORMALIZED FREE ENERGY PREDICTED BY IDOCK:   -5.93 KCAL/MOL
REMARK 922        TOTAL FREE ENERGY PREDICTED BY IDOCK:   -8.97 KCAL/MOL
REMARK 923 INTER-LIGAND FREE ENERGY PREDICTED BY IDOCK:   -7.63 KCAL/MOL
REMARK 924 INTRA-LIGAND FREE ENERGY PREDICTED BY IDOCK:   -1.33 KCAL/MOL
REMARK 927      BINDING AFFINITY PREDICTED BY RF-SCORE:    0.00 PKD
ROOT
HETATM    1  O   UNL     1     -13.042  12.061  63.695  1.00  0.00    -0.756 OA 
HETATM    2  C   UNL     1     -12.266  13.171  63.750  1.00  0.00    -0.456 C  
HETATM    3  O   UNL     1     -12.551  14.192  63.144  1.00  0.00    -0.686 OA 
HETATM    4  C   UNL     1     -11.035  12.992  64.632  1.00  0.00    -0.342 C  
ENDROOT
BRANCH   4   5
HETATM    5  O   UNL     1     -10.216  14.169  64.600  1.00  0.00    -0.408 OA 
BRANCH   5   6
HETATM    6  C   UNL     1     -10.332  15.008  65.662  1.00  0.00    -0.353 C  
HETATM    7  O   UNL     1     -10.766  16.148  65.614  1.00  0.00    -0.346 OA 
BRANCH   6   8
HETATM    8  C   UNL     1      -9.836  14.325  66.924  1.00  0.00    -0.264 C  
BRANCH   8   9
HETATM    9  C   UNL     1     -10.565  14.746  68.179  1.00  0.00    -0.241 A  
HETATM   10  C   UNL     1     -11.886  14.283  68.345  1.00  0.00    -0.373 A  
HETATM   11  C   UNL     1     -12.622  14.595  69.485  1.00  0.00    -0.039 A  
HETATM   12  C   UNL     1     -12.040  15.343  70.499  1.00  0.00    -0.411 A  
HETATM   13  C   UNL     1     -10.742  15.831  70.339  1.00  0.00    -0.305 A  
HETATM   14  C   UNL     1     -10.010  15.591  69.167  1.00  0.00    -0.246 A  
BRANCH  14  15
HETATM   15  N   UNL     1      -8.778  16.255  68.980  1.00  0.00    -0.252 NA 
HETATM   16  H   UNL     1      -8.052  15.979  69.641  1.00  0.00     0.000 HD 
BRANCH  15  17
HETATM   17  C   UNL     1      -8.362  17.240  68.035  1.00  0.00    -0.228 A  
HETATM   18  C   UNL     1      -7.270  16.913  67.191  1.00  0.00    -0.180 A  
HETATM   19  C   UNL     1      -6.896  17.719  66.109  1.00  0.00    -0.329 A  
HETATM   20 CL   UNL     1      -6.334  15.477  67.462  1.00  0.00    -0.181 Cl 
HETATM   21  C   UNL     1      -7.591  18.890  65.846  1.00  0.00    -0.209 A  
HETATM   22  C   UNL     1      -8.603  19.289  66.712  1.00  0.00    -0.326 A  
HETATM   23  C   UNL     1      -8.978  18.491  67.809  1.00  0.00    -0.275 A  
HETATM   24 CL   UNL     1     -10.280  19.136  68.748  1.00  0.00    -0.427 Cl 
ENDBRANCH  15  17
ENDBRANCH  14  15
ENDBRANCH   8   9
ENDBRANCH   6   8
ENDBRANCH   5   6
ENDBRANCH   4   5
TORSDOF 6
ENDMDL
MODEL       57
REMARK 921   NORMALIZED FREE ENERGY PREDICTED BY IDOCK:   -5.92 KCAL/MOL
REMARK 922        TOTAL FREE ENERGY PREDICTED BY IDOCK:   -8.96 KCAL/MOL
REMARK 923 INTER-LIGAND FREE ENERGY PREDICTED BY IDOCK:   -7.96 KCAL/MOL
REMARK 924 INTRA-LIGAND FREE ENERGY PREDICTED BY IDOCK:   -1.00 KCAL/MOL
REMARK 927      BINDING AFFINITY PREDICTED BY RF-SCORE:    0.00 PKD
ROOT
HETATM    1  O   UNL     1     -12.626  14.194  63.261  1.00  0.00    -0.766 OA 
HETATM    2  C   UNL     1     -12.398  13.087  64.011  1.00  0.00    -0.363 C  
HETATM    3  O   UNL     1     -13.169  12.730  64.888  1.00  0.00    -0.808 OA 
HETATM    4  C   UNL     1     -11.106  12.370  63.636  1.00  0.00    -0.473 C  
ENDROOT
BRANCH   4   5
HETATM    5  O   UNL     1     -10.882  11.250  64.503  1.00  0.00    -0.329 OA 
BRANCH   5   6
HETATM    6  C   UNL     1      -9.588  11.001  64.837  1.00  0.00    -0.245 C  
HETATM    7  O   UNL     1      -8.710  10.675  64.055  1.00  0.00    -0.177 OA 
BRANCH   6   8
HETATM    8  C   UNL     1      -9.391  11.181  66.331  1.00  0.00    -0.207 C  
BRANCH   8   9
HETATM    9  C   UNL     1     -10.158  12.342  66.919  1.00  0.00    -0.230 A  
HETATM   10  C   UNL     1      -9.623  13.633  66.728  1.00  0.00    -0.277 A  
HETATM   11  C   UNL     1     -10.279  14.764  67.208  1.00  0.00    -0.241 A  
HETATM   12  C   UNL     1     -11.501  14.632  67.852  1.00  0.00    -0.350 A  
HETATM   13  C   UNL     1     -12.032  13.360  68.072  1.00  0.00    -0.357 A  
HETATM   14  C   UNL     1     -11.352  12.204  67.663  1.00  0.00    -0.314 A  
BRANCH  14  15
HETATM   15  N   UNL     1     -11.840  10.941  68.067  1.00  0.00    -0.759 NA 
HETATM   16  H   UNL     1     -12.588  10.576  67.477  1.00  0.00     0.000 HD 
BRANCH  15  17
HETATM   17  C   UNL     1     -11.479  10.084  69.149  1.00  0.00    -0.033 A  
HETATM   18  C   UNL     1     -10.810   8.876  68.826  1.00  0.00    -0.002 A  
HETATM   19  C   UNL     1     -10.245   8.051  69.806  1.00  0.00    -0.206 A  
HETATM   20 CL   UNL     1     -10.654   8.356  67.177  1.00  0.00    -0.373 Cl 
HETATM   21  C   UNL     1     -10.348   8.397  71.145  1.00  0.00    -0.264 A  
HETATM   22  C   UNL     1     -11.082   9.523  71.501  1.00  0.00    -0.406 A  
HETATM   23  C   UNL     1     -11.663  10.352  70.523  1.00  0.00    -0.344 A  
HETATM   24 CL   UNL     1     -12.506  11.722  71.159  1.00  0.00    -0.438 Cl 
ENDBRANCH  15  17
ENDBRANCH  14  15
ENDBRANCH   8   9
ENDBRANCH   6   8
ENDBRANCH   5   6
ENDBRANCH   4   5
TORSDOF 6
ENDMDL
MODEL       58
REMARK 921   NORMALIZED FREE ENERGY PREDICTED BY IDOCK:   -5.92 KCAL/MOL
REMARK 922        TOTAL FREE ENERGY PREDICTED BY IDOCK:   -8.95 KCAL/MOL
REMARK 923 INTER-LIGAND FREE ENERGY PREDICTED BY IDOCK:   -7.86 KCAL/MOL
REMARK 924 INTRA-LIGAND FREE ENERGY PREDICTED BY IDOCK:   -1.09 KCAL/MOL
REMARK 927      BINDING AFFINITY PREDICTED BY RF-SCORE:    0.00 PKD
ROOT
HETATM    1  O   UNL     1     -11.101   5.682  71.012  1.00  0.00    -0.233 OA 
HETATM    2  C   UNL     1     -11.093   6.588  70.004  1.00  0.00    -0.363 C  
HETATM    3  O   UNL     1     -11.403   6.288  68.861  1.00  0.00    -0.373 OA 
HETATM    4  C   UNL     1     -10.664   7.979  70.457  1.00  0.00    -0.229 C  
ENDROOT
BRANCH   4   5
HETATM    5  O   UNL     1     -10.609   8.878  69.341  1.00  0.00    -0.227 OA 
BRANCH   5   6
HETATM    6  C   UNL     1      -9.367   9.246  68.930  1.00  0.00    -0.150 C  
HETATM    7  O   UNL     1      -8.501   8.482  68.535  1.00  0.00    -0.129 OA 
BRANCH   6   8
HETATM    8  C   UNL     1      -9.206  10.752  69.038  1.00  0.00    -0.157 C  
BRANCH   8   9
HETATM    9  C   UNL     1     -10.079  11.534  68.084  1.00  0.00    -0.201 A  
HETATM   10  C   UNL     1      -9.923  11.278  66.706  1.00  0.00    -0.238 A  
HETATM   11  C   UNL     1     -10.707  11.930  65.757  1.00  0.00    -0.327 A  
HETATM   12  C   UNL     1     -11.689  12.820  66.168  1.00  0.00    -0.458 A  
HETATM   13  C   UNL     1     -11.839  13.104  67.526  1.00  0.00    -0.409 A  
HETATM   14  C   UNL     1     -11.011  12.516  68.492  1.00  0.00    -0.249 A  
BRANCH  14  15
HETATM   15  N   UNL     1     -11.083  12.970  69.828  1.00  0.00    -0.473 NA 
HETATM   16  H   UNL     1     -10.252  12.766  70.382  1.00  0.00     0.000 HD 
BRANCH  15  17
HETATM   17  C   UNL     1     -12.106  13.663  70.542  1.00  0.00    -0.339 A  
HETATM   18  C   UNL     1     -12.952  12.890  71.378  1.00  0.00    -0.270 A  
HETATM   19  C   UNL     1     -13.863  13.478  72.264  1.00  0.00    -0.680 A  
HETATM   20 CL   UNL     1     -12.896  11.156  71.344  1.00  0.00    -0.541 Cl 
HETATM   21  C   UNL     1     -13.973  14.859  72.330  1.00  0.00    -0.602 A  
HETATM   22  C   UNL     1     -13.228  15.641  71.454  1.00  0.00    -0.540 A  
HETATM   23  C   UNL     1     -12.318  15.059  70.552  1.00  0.00    -0.356 A  
HETATM   24 CL   UNL     1     -11.460  16.196  69.571  1.00  0.00    -0.316 Cl 
ENDBRANCH  15  17
ENDBRANCH  14  15
ENDBRANCH   8   9
ENDBRANCH   6   8
ENDBRANCH   5   6
ENDBRANCH   4   5
TORSDOF 6
ENDMDL
MODEL       59
REMARK 921   NORMALIZED FREE ENERGY PREDICTED BY IDOCK:   -5.91 KCAL/MOL
REMARK 922        TOTAL FREE ENERGY PREDICTED BY IDOCK:   -8.94 KCAL/MOL
REMARK 923 INTER-LIGAND FREE ENERGY PREDICTED BY IDOCK:   -8.25 KCAL/MOL
REMARK 924 INTRA-LIGAND FREE ENERGY PREDICTED BY IDOCK:   -0.70 KCAL/MOL
REMARK 927      BINDING AFFINITY PREDICTED BY RF-SCORE:    0.00 PKD
ROOT
HETATM    1  O   UNL     1     -11.663   7.690  71.174  1.00  0.00    -0.282 OA 
HETATM    2  C   UNL     1     -11.315   8.970  70.895  1.00  0.00    -0.293 C  
HETATM    3  O   UNL     1     -11.607   9.897  71.634  1.00  0.00    -0.360 OA 
HETATM    4  C   UNL     1     -10.540   9.104  69.588  1.00  0.00    -0.228 C  
ENDROOT
BRANCH   4   5
HETATM    5  O   UNL     1     -10.257  10.482  69.309  1.00  0.00    -0.208 OA 
BRANCH   5   6
HETATM    6  C   UNL     1     -11.066  11.087  68.400  1.00  0.00    -0.251 C  
HETATM    7  O   UNL     1     -12.281  10.982  68.360  1.00  0.00    -0.586 OA 
BRANCH   6   8
HETATM    8  C   UNL     1     -10.238  11.912  67.432  1.00  0.00    -0.214 C  
BRANCH   8   9
HETATM    9  C   UNL     1     -10.925  12.188  66.115  1.00  0.00    -0.335 A  
HETATM   10  C   UNL     1     -10.491  11.452  64.993  1.00  0.00    -0.361 A  
HETATM   11  C   UNL     1     -11.087  11.618  63.745  1.00  0.00    -0.499 A  
HETATM   12  C   UNL     1     -12.155  12.493  63.603  1.00  0.00    -0.642 A  
HETATM   13  C   UNL     1     -12.580  13.248  64.697  1.00  0.00    -0.354 A  
HETATM   14  C   UNL     1     -11.945  13.151  65.943  1.00  0.00    -0.427 A  
BRANCH  14  15
HETATM   15  N   UNL     1     -12.293  14.063  66.964  1.00  0.00    -0.538 NA 
HETATM   16  H   UNL     1     -13.289  14.083  67.182  1.00  0.00     0.000 HD 
BRANCH  15  17
HETATM   17  C   UNL     1     -11.506  14.962  67.745  1.00  0.00    -0.338 A  
HETATM   18  C   UNL     1     -10.757  15.944  67.049  1.00  0.00    -0.292 A  
HETATM   19  C   UNL     1     -10.101  16.989  67.710  1.00  0.00    -0.302 A  
HETATM   20 CL   UNL     1     -10.619  15.900  65.320  1.00  0.00    -0.436 Cl 
HETATM   21  C   UNL     1     -10.156  17.076  69.094  1.00  0.00    -0.259 A  
HETATM   22  C   UNL     1     -10.799  16.073  69.812  1.00  0.00    -0.337 A  
HETATM   23  C   UNL     1     -11.452  15.013  69.155  1.00  0.00    -0.301 A  
HETATM   24 CL   UNL     1     -12.224  13.885  70.216  1.00  0.00    -0.407 Cl 
ENDBRANCH  15  17
ENDBRANCH  14  15
ENDBRANCH   8   9
ENDBRANCH   6   8
ENDBRANCH   5   6
ENDBRANCH   4   5
TORSDOF 6
ENDMDL
MODEL       60
REMARK 921   NORMALIZED FREE ENERGY PREDICTED BY IDOCK:   -5.90 KCAL/MOL
REMARK 922        TOTAL FREE ENERGY PREDICTED BY IDOCK:   -8.93 KCAL/MOL
REMARK 923 INTER-LIGAND FREE ENERGY PREDICTED BY IDOCK:   -8.09 KCAL/MOL
REMARK 924 INTRA-LIGAND FREE ENERGY PREDICTED BY IDOCK:   -0.84 KCAL/MOL
REMARK 927      BINDING AFFINITY PREDICTED BY RF-SCORE:    0.00 PKD
ROOT
HETATM    1  O   UNL     1      -9.437  10.047  66.880  1.00  0.00    -0.158 OA 
HETATM    2  C   UNL     1     -10.656  10.641  66.885  1.00  0.00    -0.254 C  
HETATM    3  O   UNL     1     -11.440  10.501  67.810  1.00  0.00    -0.443 OA 
HETATM    4  C   UNL     1     -10.917  11.475  65.636  1.00  0.00    -0.236 C  
ENDROOT
BRANCH   4   5
HETATM    5  O   UNL     1     -12.242  12.022  65.662  1.00  0.00    -0.503 OA 
BRANCH   5   6
HETATM    6  C   UNL     1     -12.331  13.377  65.631  1.00  0.00    -0.470 C  
HETATM    7  O   UNL     1     -13.297  14.010  65.235  1.00  0.00    -0.741 OA 
BRANCH   6   8
HETATM    8  C   UNL     1     -11.049  13.997  66.156  1.00  0.00    -0.302 C  
BRANCH   8   9
HETATM    9  C   UNL     1     -11.208  14.713  67.478  1.00  0.00    -0.343 A  
HETATM   10  C   UNL     1     -11.863  14.017  68.515  1.00  0.00    -0.399 A  
HETATM   11  C   UNL     1     -12.027  14.588  69.775  1.00  0.00    -0.383 A  
HETATM   12  C   UNL     1     -11.504  15.846  70.036  1.00  0.00    -0.354 A  
HETATM   13  C   UNL     1     -10.875  16.558  69.014  1.00  0.00    -0.329 A  
HETATM   14  C   UNL     1     -10.765  16.034  67.718  1.00  0.00    -0.323 A  
BRANCH  14  15
HETATM   15  N   UNL     1     -10.285  16.862  66.680  1.00  0.00    -0.304 NA 
HETATM   16  H   UNL     1     -10.881  16.881  65.853  1.00  0.00     0.000 HD 
BRANCH  15  17
HETATM   17  C   UNL     1      -9.117  17.677  66.577  1.00  0.00    -0.265 A  
HETATM   18  C   UNL     1      -7.860  17.026  66.659  1.00  0.00    -0.264 A  
HETATM   19  C   UNL     1      -6.658  17.689  66.387  1.00  0.00    -0.278 A  
HETATM   20 CL   UNL     1      -7.751  15.352  67.104  1.00  0.00    -0.242 Cl 
HETATM   21  C   UNL     1      -6.670  19.032  66.043  1.00  0.00    -0.265 A  
HETATM   22  C   UNL     1      -7.877  19.724  66.050  1.00  0.00    -0.344 A  
HETATM   23  C   UNL     1      -9.090  19.068  66.333  1.00  0.00    -0.329 A  
HETATM   24 CL   UNL     1     -10.486  20.086  66.258  1.00  0.00    -0.559 Cl 
ENDBRANCH  15  17
ENDBRANCH  14  15
ENDBRANCH   8   9
ENDBRANCH   6   8
ENDBRANCH   5   6
ENDBRANCH   4   5
TORSDOF 6
ENDMDL
MODEL       61
REMARK 921   NORMALIZED FREE ENERGY PREDICTED BY IDOCK:   -5.87 KCAL/MOL
REMARK 922        TOTAL FREE ENERGY PREDICTED BY IDOCK:   -8.89 KCAL/MOL
REMARK 923 INTER-LIGAND FREE ENERGY PREDICTED BY IDOCK:   -8.03 KCAL/MOL
REMARK 924 INTRA-LIGAND FREE ENERGY PREDICTED BY IDOCK:   -0.86 KCAL/MOL
REMARK 927      BINDING AFFINITY PREDICTED BY RF-SCORE:    0.00 PKD
ROOT
HETATM    1  O   UNL     1     -14.409   8.640  72.803  1.00  0.00    -0.520 OA 
HETATM    2  C   UNL     1     -13.288   8.418  72.076  1.00  0.00    -0.343 C  
HETATM    3  O   UNL     1     -13.057   7.339  71.554  1.00  0.00    -0.369 OA 
HETATM    4  C   UNL     1     -12.381   9.641  71.993  1.00  0.00    -0.298 C  
ENDROOT
BRANCH   4   5
HETATM    5  O   UNL     1     -11.180   9.331  71.272  1.00  0.00    -0.295 OA 
BRANCH   5   6
HETATM    6  C   UNL     1     -10.867  10.163  70.245  1.00  0.00    -0.310 C  
HETATM    7  O   UNL     1      -9.739  10.373  69.828  1.00  0.00    -0.182 OA 
BRANCH   6   8
HETATM    8  C   UNL     1     -12.126  10.804  69.689  1.00  0.00    -0.361 C  
BRANCH   8   9
HETATM    9  C   UNL     1     -11.978  12.272  69.365  1.00  0.00    -0.318 A  
HETATM   10  C   UNL     1     -12.029  13.180  70.442  1.00  0.00    -0.343 A  
HETATM   11  C   UNL     1     -11.871  14.549  70.241  1.00  0.00    -0.373 A  
HETATM   12  C   UNL     1     -11.619  15.034  68.965  1.00  0.00    -0.342 A  
HETATM   13  C   UNL     1     -11.592  14.152  67.884  1.00  0.00    -0.370 A  
HETATM   14  C   UNL     1     -11.823  12.779  68.054  1.00  0.00    -0.336 A  
BRANCH  14  15
HETATM   15  N   UNL     1     -11.963  11.960  66.913  1.00  0.00    -0.591 NA 
HETATM   16  H   UNL     1     -12.697  11.257  66.993  1.00  0.00     0.000 HD 
BRANCH  15  17
HETATM   17  C   UNL     1     -11.265  11.935  65.668  1.00  0.00    -0.306 A  
HETATM   18  C   UNL     1     -10.349  10.873  65.457  1.00  0.00    -0.252 A  
HETATM   19  C   UNL     1      -9.751  10.641  64.213  1.00  0.00    -0.372 A  
HETATM   20 CL   UNL     1      -9.924   9.793  66.747  1.00  0.00    -0.262 Cl 
HETATM   21  C   UNL     1     -10.032  11.476  63.142  1.00  0.00    -0.404 A  
HETATM   22  C   UNL     1     -10.849  12.584  63.342  1.00  0.00    -0.351 A  
HETATM   23  C   UNL     1     -11.446  12.832  64.592  1.00  0.00    -0.324 A  
HETATM   24 CL   UNL     1     -12.455  14.236  64.635  1.00  0.00    -0.411 Cl 
ENDBRANCH  15  17
ENDBRANCH  14  15
ENDBRANCH   8   9
ENDBRANCH   6   8
ENDBRANCH   5   6
ENDBRANCH   4   5
TORSDOF 6
ENDMDL
MODEL       62
REMARK 921   NORMALIZED FREE ENERGY PREDICTED BY IDOCK:   -5.85 KCAL/MOL
REMARK 922        TOTAL FREE ENERGY PREDICTED BY IDOCK:   -8.87 KCAL/MOL
REMARK 923 INTER-LIGAND FREE ENERGY PREDICTED BY IDOCK:   -7.63 KCAL/MOL
REMARK 924 INTRA-LIGAND FREE ENERGY PREDICTED BY IDOCK:   -1.24 KCAL/MOL
REMARK 927      BINDING AFFINITY PREDICTED BY RF-SCORE:    0.00 PKD
ROOT
HETATM    1  O   UNL     1     -12.838  15.920  74.490  1.00  0.00    -0.586 OA 
HETATM    2  C   UNL     1     -13.126  15.956  73.166  1.00  0.00    -0.572 C  
HETATM    3  O   UNL     1     -14.253  15.754  72.742  1.00  0.00    -0.539 OA 
HETATM    4  C   UNL     1     -11.909  16.269  72.301  1.00  0.00    -0.511 C  
ENDROOT
BRANCH   4   5
HETATM    5  O   UNL     1     -12.255  16.227  70.910  1.00  0.00    -0.199 OA 
BRANCH   5   6
HETATM    6  C   UNL     1     -11.443  15.484  70.114  1.00  0.00    -0.327 C  
HETATM    7  O   UNL     1     -10.226  15.558  70.085  1.00  0.00    -0.308 OA 
BRANCH   6   8
HETATM    8  C   UNL     1     -12.272  14.546  69.254  1.00  0.00    -0.264 C  
BRANCH   8   9
HETATM    9  C   UNL     1     -12.157  13.090  69.644  1.00  0.00    -0.304 A  
HETATM   10  C   UNL     1     -12.656  12.719  70.910  1.00  0.00    -0.342 A  
HETATM   11  C   UNL     1     -12.619  11.395  71.340  1.00  0.00    -0.439 A  
HETATM   12  C   UNL     1     -12.122  10.410  70.499  1.00  0.00    -0.423 A  
HETATM   13  C   UNL     1     -11.600  10.764  69.254  1.00  0.00    -0.376 A  
HETATM   14  C   UNL     1     -11.559  12.100  68.832  1.00  0.00    -0.324 A  
BRANCH  14  15
HETATM   15  N   UNL     1     -10.861  12.425  67.647  1.00  0.00    -0.218 NA 
HETATM   16  H   UNL     1     -11.229  11.973  66.810  1.00  0.00     0.000 HD 
BRANCH  15  17
HETATM   17  C   UNL     1      -9.736  13.270  67.408  1.00  0.00    -0.221 A  
HETATM   18  C   UNL     1      -9.958  14.451  66.655  1.00  0.00    -0.272 A  
HETATM   19  C   UNL     1      -8.979  15.442  66.516  1.00  0.00    -0.344 A  
HETATM   20 CL   UNL     1     -11.476  14.730  65.861  1.00  0.00    -0.344 Cl 
HETATM   21  C   UNL     1      -7.736  15.276  67.110  1.00  0.00    -0.238 A  
HETATM   22  C   UNL     1      -7.454  14.085  67.772  1.00  0.00    -0.169 A  
HETATM   23  C   UNL     1      -8.429  13.079  67.906  1.00  0.00    -0.185 A  
HETATM   24 CL   UNL     1      -7.901  11.689  68.791  1.00  0.00    -0.125 Cl 
ENDBRANCH  15  17
ENDBRANCH  14  15
ENDBRANCH   8   9
ENDBRANCH   6   8
ENDBRANCH   5   6
ENDBRANCH   4   5
TORSDOF 6
ENDMDL
MODEL       63
REMARK 921   NORMALIZED FREE ENERGY PREDICTED BY IDOCK:   -5.83 KCAL/MOL
REMARK 922        TOTAL FREE ENERGY PREDICTED BY IDOCK:   -8.84 KCAL/MOL
REMARK 923 INTER-LIGAND FREE ENERGY PREDICTED BY IDOCK:   -7.83 KCAL/MOL
REMARK 924 INTRA-LIGAND FREE ENERGY PREDICTED BY IDOCK:   -1.01 KCAL/MOL
REMARK 927      BINDING AFFINITY PREDICTED BY RF-SCORE:    0.00 PKD
ROOT
HETATM    1  O   UNL     1     -13.612  11.925  64.090  1.00  0.00    -0.481 OA 
HETATM    2  C   UNL     1     -12.508  12.516  64.609  1.00  0.00    -0.463 C  
HETATM    3  O   UNL     1     -12.006  12.144  65.657  1.00  0.00    -0.503 OA 
HETATM    4  C   UNL     1     -11.989  13.664  63.750  1.00  0.00    -0.377 C  
ENDROOT
BRANCH   4   5
HETATM    5  O   UNL     1     -10.865  14.296  64.377  1.00  0.00    -0.329 OA 
BRANCH   5   6
HETATM    6  C   UNL     1     -11.084  15.534  64.892  1.00  0.00    -0.416 C  
HETATM    7  O   UNL     1     -11.203  16.557  64.237  1.00  0.00    -0.992 OA 
BRANCH   6   8
HETATM    8  C   UNL     1     -11.154  15.465  66.407  1.00  0.00    -0.230 C  
BRANCH   8   9
HETATM    9  C   UNL     1      -9.888  14.959  67.059  1.00  0.00    -0.239 A  
HETATM   10  C   UNL     1     -10.007  13.859  67.932  1.00  0.00    -0.242 A  
HETATM   11  C   UNL     1      -8.889  13.307  68.554  1.00  0.00    -0.055 A  
HETATM   12  C   UNL     1      -7.628  13.818  68.284  1.00  0.00    -0.129 A  
HETATM   13  C   UNL     1      -7.495  14.923  67.443  1.00  0.00    -0.228 A  
HETATM   14  C   UNL     1      -8.614  15.540  66.866  1.00  0.00    -0.256 A  
BRANCH  14  15
HETATM   15  N   UNL     1      -8.445  16.759  66.171  1.00  0.00    -0.436 NA 
HETATM   16  H   UNL     1      -8.508  16.671  65.157  1.00  0.00     0.000 HD 
BRANCH  15  17
HETATM   17  C   UNL     1      -8.201  18.088  66.628  1.00  0.00    -0.261 A  
HETATM   18  C   UNL     1      -6.862  18.554  66.589  1.00  0.00    -0.196 A  
HETATM   19  C   UNL     1      -6.530  19.892  66.834  1.00  0.00    -0.214 A  
HETATM   20 CL   UNL     1      -5.552  17.474  66.227  1.00  0.00    -0.233 Cl 
HETATM   21  C   UNL     1      -7.526  20.806  67.147  1.00  0.00    -0.366 A  
HETATM   22  C   UNL     1      -8.835  20.361  67.290  1.00  0.00    -0.444 A  
HETATM   23  C   UNL     1      -9.176  19.015  67.056  1.00  0.00    -0.299 A  
HETATM   24 CL   UNL     1     -10.859  18.662  67.250  1.00  0.00    -0.444 Cl 
ENDBRANCH  15  17
ENDBRANCH  14  15
ENDBRANCH   8   9
ENDBRANCH   6   8
ENDBRANCH   5   6
ENDBRANCH   4   5
TORSDOF 6
ENDMDL
MODEL       64
REMARK 921   NORMALIZED FREE ENERGY PREDICTED BY IDOCK:   -5.83 KCAL/MOL
REMARK 922        TOTAL FREE ENERGY PREDICTED BY IDOCK:   -8.84 KCAL/MOL
REMARK 923 INTER-LIGAND FREE ENERGY PREDICTED BY IDOCK:   -7.85 KCAL/MOL
REMARK 924 INTRA-LIGAND FREE ENERGY PREDICTED BY IDOCK:   -0.99 KCAL/MOL
REMARK 927      BINDING AFFINITY PREDICTED BY RF-SCORE:    0.00 PKD
ROOT
HETATM    1  O   UNL     1     -12.579  13.210  63.531  1.00  0.00    -0.722 OA 
HETATM    2  C   UNL     1     -12.683  13.129  64.880  1.00  0.00    -0.356 C  
HETATM    3  O   UNL     1     -13.387  13.892  65.522  1.00  0.00    -0.662 OA 
HETATM    4  C   UNL     1     -11.842  12.005  65.475  1.00  0.00    -0.181 C  
ENDROOT
BRANCH   4   5
HETATM    5  O   UNL     1     -11.936  12.008  66.906  1.00  0.00    -0.612 OA 
BRANCH   5   6
HETATM    6  C   UNL     1     -11.254  11.026  67.552  1.00  0.00    -0.302 C  
HETATM    7  O   UNL     1     -11.034   9.912  67.107  1.00  0.00    -0.218 OA 
BRANCH   6   8
HETATM    8  C   UNL     1     -10.808  11.514  68.919  1.00  0.00    -0.263 C  
BRANCH   8   9
HETATM    9  C   UNL     1     -11.609  10.946  70.067  1.00  0.00    -0.424 A  
HETATM   10  C   UNL     1     -12.455  11.832  70.766  1.00  0.00    -0.405 A  
HETATM   11  C   UNL     1     -13.253  11.389  71.819  1.00  0.00    -0.472 A  
HETATM   12  C   UNL     1     -13.252  10.046  72.166  1.00  0.00    -0.489 A  
HETATM   13  C   UNL     1     -12.402   9.160  71.502  1.00  0.00    -0.421 A  
HETATM   14  C   UNL     1     -11.536   9.599  70.490  1.00  0.00    -0.272 A  
BRANCH  14  15
HETATM   15  N   UNL     1     -10.572   8.704  69.976  1.00  0.00    -0.224 NA 
HETATM   16  H   UNL     1     -10.091   9.045  69.143  1.00  0.00     0.000 HD 
BRANCH  15  17
HETATM   17  C   UNL     1     -10.149   7.411  70.407  1.00  0.00    -0.192 A  
HETATM   18  C   UNL     1     -10.350   6.329  69.513  1.00  0.00    -0.212 A  
HETATM   19  C   UNL     1      -9.811   5.058  69.747  1.00  0.00    -0.286 A  
HETATM   20 CL   UNL     1     -11.284   6.532  68.064  1.00  0.00    -0.325 Cl 
HETATM   21  C   UNL     1      -9.068   4.822  70.894  1.00  0.00    -0.181 A  
HETATM   22  C   UNL     1      -8.936   5.835  71.838  1.00  0.00    -0.142 A  
HETATM   23  C   UNL     1      -9.484   7.112  71.616  1.00  0.00    -0.152 A  
HETATM   24 CL   UNL     1      -9.184   8.247  72.887  1.00  0.00    -0.335 Cl 
ENDBRANCH  15  17
ENDBRANCH  14  15
ENDBRANCH   8   9
ENDBRANCH   6   8
ENDBRANCH   5   6
ENDBRANCH   4   5
TORSDOF 6
ENDMDL
MODEL       65
REMARK 921   NORMALIZED FREE ENERGY PREDICTED BY IDOCK:   -5.82 KCAL/MOL
REMARK 922        TOTAL FREE ENERGY PREDICTED BY IDOCK:   -8.82 KCAL/MOL
REMARK 923 INTER-LIGAND FREE ENERGY PREDICTED BY IDOCK:   -7.44 KCAL/MOL
REMARK 924 INTRA-LIGAND FREE ENERGY PREDICTED BY IDOCK:   -1.38 KCAL/MOL
REMARK 927      BINDING AFFINITY PREDICTED BY RF-SCORE:    0.00 PKD
ROOT
HETATM    1  O   UNL     1      -6.453  15.976  66.711  1.00  0.00    -0.278 OA 
HETATM    2  C   UNL     1      -7.729  15.646  67.028  1.00  0.00    -0.222 C  
HETATM    3  O   UNL     1      -7.995  14.915  67.969  1.00  0.00    -0.117 OA 
HETATM    4  C   UNL     1      -8.757  16.279  66.096  1.00  0.00    -0.318 C  
ENDROOT
BRANCH   4   5
HETATM    5  O   UNL     1     -10.080  15.844  66.434  1.00  0.00    -0.263 OA 
BRANCH   5   6
HETATM    6  C   UNL     1     -10.939  15.676  65.395  1.00  0.00    -0.333 C  
HETATM    7  O   UNL     1     -11.037  16.423  64.435  1.00  0.00    -0.825 OA 
BRANCH   6   8
HETATM    8  C   UNL     1     -11.768  14.421  65.600  1.00  0.00    -0.356 C  
BRANCH   8   9
HETATM    9  C   UNL     1     -11.043  13.140  65.258  1.00  0.00    -0.304 A  
HETATM   10  C   UNL     1     -11.263  12.595  63.977  1.00  0.00    -0.459 A  
HETATM   11  C   UNL     1     -10.613  11.434  63.565  1.00  0.00    -0.468 A  
HETATM   12  C   UNL     1      -9.700  10.819  64.409  1.00  0.00    -0.356 A  
HETATM   13  C   UNL     1      -9.489  11.331  65.690  1.00  0.00    -0.254 A  
HETATM   14  C   UNL     1     -10.189  12.455  66.152  1.00  0.00    -0.242 A  
BRANCH  14  15
HETATM   15  N   UNL     1     -10.074  12.824  67.511  1.00  0.00    -0.211 NA 
HETATM   16  H   UNL     1      -9.396  13.565  67.685  1.00  0.00     0.000 HD 
BRANCH  15  17
HETATM   17  C   UNL     1     -10.734  12.349  68.684  1.00  0.00    -0.232 A  
HETATM   18  C   UNL     1     -11.467  13.294  69.445  1.00  0.00    -0.263 A  
HETATM   19  C   UNL     1     -12.302  12.914  70.503  1.00  0.00    -0.362 A  
HETATM   20 CL   UNL     1     -11.366  14.991  69.096  1.00  0.00    -0.289 Cl 
HETATM   21  C   UNL     1     -12.416  11.575  70.847  1.00  0.00    -0.464 A  
HETATM   22  C   UNL     1     -11.635  10.635  70.184  1.00  0.00    -0.414 A  
HETATM   23  C   UNL     1     -10.785  11.009  69.127  1.00  0.00    -0.234 A  
HETATM   24 CL   UNL     1      -9.923   9.695  68.405  1.00  0.00    -0.170 Cl 
ENDBRANCH  15  17
ENDBRANCH  14  15
ENDBRANCH   8   9
ENDBRANCH   6   8
ENDBRANCH   5   6
ENDBRANCH   4   5
TORSDOF 6
ENDMDL
MODEL       66
REMARK 921   NORMALIZED FREE ENERGY PREDICTED BY IDOCK:   -5.81 KCAL/MOL
REMARK 922        TOTAL FREE ENERGY PREDICTED BY IDOCK:   -8.81 KCAL/MOL
REMARK 923 INTER-LIGAND FREE ENERGY PREDICTED BY IDOCK:   -8.52 KCAL/MOL
REMARK 924 INTRA-LIGAND FREE ENERGY PREDICTED BY IDOCK:   -0.29 KCAL/MOL
REMARK 927      BINDING AFFINITY PREDICTED BY RF-SCORE:    0.00 PKD
ROOT
HETATM    1  O   UNL     1     -10.034  20.421  66.718  1.00  0.00    -0.450 OA 
HETATM    2  C   UNL     1      -9.606  19.252  66.183  1.00  0.00    -0.306 C  
HETATM    3  O   UNL     1      -8.423  19.025  65.986  1.00  0.00    -0.455 OA 
HETATM    4  C   UNL     1     -10.745  18.289  65.869  1.00  0.00    -0.144 C  
ENDROOT
BRANCH   4   5
HETATM    5  O   UNL     1     -10.243  17.100  65.243  1.00  0.00    -0.591 OA 
BRANCH   5   6
HETATM    6  C   UNL     1     -11.172  16.182  64.868  1.00  0.00    -0.285 C  
HETATM    7  O   UNL     1     -11.967  16.319  63.952  1.00  0.00    -1.003 OA 
BRANCH   6   8
HETATM    8  C   UNL     1     -11.086  14.957  65.761  1.00  0.00    -0.342 C  
BRANCH   8   9
HETATM    9  C   UNL     1     -10.114  15.099  66.909  1.00  0.00    -0.256 A  
HETATM   10  C   UNL     1      -8.752  15.266  66.585  1.00  0.00    -0.327 A  
HETATM   11  C   UNL     1      -7.790  15.434  67.578  1.00  0.00    -0.193 A  
HETATM   12  C   UNL     1      -8.174  15.481  68.910  1.00  0.00    -0.201 A  
HETATM   13  C   UNL     1      -9.515  15.292  69.250  1.00  0.00    -0.242 A  
HETATM   14  C   UNL     1     -10.489  15.046  68.271  1.00  0.00    -0.237 A  
BRANCH  14  15
HETATM   15  N   UNL     1     -11.792  14.683  68.675  1.00  0.00    -0.431 NA 
HETATM   16  H   UNL     1     -12.534  15.200  68.202  1.00  0.00     0.000 HD 
BRANCH  15  17
HETATM   17  C   UNL     1     -12.262  13.727  69.625  1.00  0.00    -0.305 A  
HETATM   18  C   UNL     1     -12.069  12.356  69.318  1.00  0.00    -0.165 A  
HETATM   19  C   UNL     1     -12.317  11.341  70.250  1.00  0.00    -0.389 A  
HETATM   20 CL   UNL     1     -11.504  11.864  67.752  1.00  0.00    -0.373 Cl 
HETATM   21  C   UNL     1     -12.786  11.662  71.514  1.00  0.00    -0.469 A  
HETATM   22  C   UNL     1     -13.080  12.988  71.814  1.00  0.00    -0.469 A  
HETATM   23  C   UNL     1     -12.844  14.014  70.879  1.00  0.00    -0.318 A  
HETATM   24 CL   UNL     1     -13.238  15.600  71.447  1.00  0.00    -0.563 Cl 
ENDBRANCH  15  17
ENDBRANCH  14  15
ENDBRANCH   8   9
ENDBRANCH   6   8
ENDBRANCH   5   6
ENDBRANCH   4   5
TORSDOF 6
ENDMDL
MODEL       67
REMARK 921   NORMALIZED FREE ENERGY PREDICTED BY IDOCK:   -5.79 KCAL/MOL
REMARK 922        TOTAL FREE ENERGY PREDICTED BY IDOCK:   -8.79 KCAL/MOL
REMARK 923 INTER-LIGAND FREE ENERGY PREDICTED BY IDOCK:   -7.78 KCAL/MOL
REMARK 924 INTRA-LIGAND FREE ENERGY PREDICTED BY IDOCK:   -1.01 KCAL/MOL
REMARK 927      BINDING AFFINITY PREDICTED BY RF-SCORE:    0.00 PKD
ROOT
HETATM    1  O   UNL     1      -9.601  19.021  67.980  1.00  0.00    -0.304 OA 
HETATM    2  C   UNL     1      -9.663  18.567  66.704  1.00  0.00    -0.341 C  
HETATM    3  O   UNL     1      -9.750  19.324  65.750  1.00  0.00    -0.421 OA 
HETATM    4  C   UNL     1      -9.612  17.046  66.610  1.00  0.00    -0.266 C  
ENDROOT
BRANCH   4   5
HETATM    5  O   UNL     1      -9.749  16.619  65.248  1.00  0.00    -0.431 OA 
BRANCH   5   6
HETATM    6  C   UNL     1     -10.981  16.181  64.879  1.00  0.00    -0.349 C  
HETATM    7  O   UNL     1     -11.655  16.653  63.977  1.00  0.00    -1.197 OA 
BRANCH   6   8
HETATM    8  C   UNL     1     -11.406  15.018  65.757  1.00  0.00    -0.279 C  
BRANCH   8   9
HETATM    9  C   UNL     1     -11.215  13.662  65.118  1.00  0.00    -0.318 A  
HETATM   10  C   UNL     1     -12.037  13.344  64.018  1.00  0.00    -0.506 A  
HETATM   11  C   UNL     1     -11.909  12.129  63.348  1.00  0.00    -0.553 A  
HETATM   12  C   UNL     1     -10.930  11.227  63.739  1.00  0.00    -0.381 A  
HETATM   13  C   UNL     1     -10.125  11.514  64.842  1.00  0.00    -0.314 A  
HETATM   14  C   UNL     1     -10.288  12.698  65.576  1.00  0.00    -0.286 A  
BRANCH  14  15
HETATM   15  N   UNL     1      -9.575  12.859  66.785  1.00  0.00    -0.240 NA 
HETATM   16  H   UNL     1      -9.202  13.798  66.926  1.00  0.00     0.000 HD 
BRANCH  15  17
HETATM   17  C   UNL     1      -9.283  11.949  67.845  1.00  0.00    -0.187 A  
HETATM   18  C   UNL     1     -10.360  11.554  68.679  1.00  0.00    -0.210 A  
HETATM   19  C   UNL     1     -10.233  10.531  69.626  1.00  0.00    -0.207 A  
HETATM   20 CL   UNL     1     -11.909  12.327  68.560  1.00  0.00    -0.373 Cl 
HETATM   21  C   UNL     1      -9.018   9.882  69.786  1.00  0.00    -0.242 A  
HETATM   22  C   UNL     1      -7.916  10.313  69.053  1.00  0.00    -0.125 A  
HETATM   23  C   UNL     1      -8.032  11.348  68.107  1.00  0.00    -0.133 A  
HETATM   24 CL   UNL     1      -6.563  11.718  67.272  1.00  0.00    -0.118 Cl 
ENDBRANCH  15  17
ENDBRANCH  14  15
ENDBRANCH   8   9
ENDBRANCH   6   8
ENDBRANCH   5   6
ENDBRANCH   4   5
TORSDOF 6
ENDMDL
MODEL       68
REMARK 921   NORMALIZED FREE ENERGY PREDICTED BY IDOCK:   -5.78 KCAL/MOL
REMARK 922        TOTAL FREE ENERGY PREDICTED BY IDOCK:   -8.78 KCAL/MOL
REMARK 923 INTER-LIGAND FREE ENERGY PREDICTED BY IDOCK:   -7.68 KCAL/MOL
REMARK 924 INTRA-LIGAND FREE ENERGY PREDICTED BY IDOCK:   -1.10 KCAL/MOL
REMARK 927      BINDING AFFINITY PREDICTED BY RF-SCORE:    0.00 PKD
ROOT
HETATM    1  O   UNL     1     -13.936  16.319  73.372  1.00  0.00    -0.500 OA 
HETATM    2  C   UNL     1     -13.280  15.148  73.185  1.00  0.00    -0.494 C  
HETATM    3  O   UNL     1     -12.223  14.901  73.745  1.00  0.00    -0.473 OA 
HETATM    4  C   UNL     1     -14.000  14.209  72.223  1.00  0.00    -0.548 C  
ENDROOT
BRANCH   4   5
HETATM    5  O   UNL     1     -13.231  13.018  72.010  1.00  0.00    -0.438 OA 
BRANCH   5   6
HETATM    6  C   UNL     1     -12.547  12.949  70.838  1.00  0.00    -0.270 C  
HETATM    7  O   UNL     1     -11.936  13.872  70.324  1.00  0.00    -0.306 OA 
BRANCH   6   8
HETATM    8  C   UNL     1     -12.655  11.553  70.252  1.00  0.00    -0.193 C  
BRANCH   8   9
HETATM    9  C   UNL     1     -11.387  11.060  69.595  1.00  0.00    -0.363 A  
HETATM   10  C   UNL     1     -10.569  10.187  70.342  1.00  0.00    -0.287 A  
HETATM   11  C   UNL     1      -9.397   9.660  69.806  1.00  0.00    -0.238 A  
HETATM   12  C   UNL     1      -9.040   9.962  68.499  1.00  0.00    -0.125 A  
HETATM   13  C   UNL     1      -9.824  10.844  67.755  1.00  0.00    -0.194 A  
HETATM   14  C   UNL     1     -10.967  11.445  68.301  1.00  0.00    -0.216 A  
BRANCH  14  15
HETATM   15  N   UNL     1     -11.622  12.464  67.574  1.00  0.00    -0.348 NA 
HETATM   16  H   UNL     1     -12.639  12.434  67.639  1.00  0.00     0.000 HD 
BRANCH  15  17
HETATM   17  C   UNL     1     -11.120  13.527  66.765  1.00  0.00    -0.299 A  
HETATM   18  C   UNL     1     -11.743  13.739  65.509  1.00  0.00    -0.346 A  
HETATM   19  C   UNL     1     -11.464  14.859  64.717  1.00  0.00    -0.410 A  
HETATM   20 CL   UNL     1     -12.901  12.606  64.887  1.00  0.00    -0.473 Cl 
HETATM   21  C   UNL     1     -10.535  15.796  65.146  1.00  0.00    -0.394 A  
HETATM   22  C   UNL     1      -9.835  15.567  66.326  1.00  0.00    -0.317 A  
HETATM   23  C   UNL     1     -10.101  14.438  67.123  1.00  0.00    -0.253 A  
HETATM   24 CL   UNL     1      -9.155  14.346  68.568  1.00  0.00    -0.192 Cl 
ENDBRANCH  15  17
ENDBRANCH  14  15
ENDBRANCH   8   9
ENDBRANCH   6   8
ENDBRANCH   5   6
ENDBRANCH   4   5
TORSDOF 6
ENDMDL
MODEL       69
REMARK 921   NORMALIZED FREE ENERGY PREDICTED BY IDOCK:   -5.78 KCAL/MOL
REMARK 922        TOTAL FREE ENERGY PREDICTED BY IDOCK:   -8.77 KCAL/MOL
REMARK 923 INTER-LIGAND FREE ENERGY PREDICTED BY IDOCK:   -8.25 KCAL/MOL
REMARK 924 INTRA-LIGAND FREE ENERGY PREDICTED BY IDOCK:   -0.52 KCAL/MOL
REMARK 927      BINDING AFFINITY PREDICTED BY RF-SCORE:    0.00 PKD
ROOT
HETATM    1  O   UNL     1     -10.180  18.252  65.655  1.00  0.00    -0.573 OA 
HETATM    2  C   UNL     1     -10.629  17.058  65.196  1.00  0.00    -0.015 C  
HETATM    3  O   UNL     1     -11.445  16.977  64.292  1.00  0.00    -1.124 OA 
HETATM    4  C   UNL     1     -10.010  15.870  65.923  1.00  0.00    -0.349 C  
ENDROOT
BRANCH   4   5
HETATM    5  O   UNL     1     -10.569  14.639  65.446  1.00  0.00    -0.323 OA 
BRANCH   5   6
HETATM    6  C   UNL     1     -11.222  13.882  66.365  1.00  0.00    -0.315 C  
HETATM    7  O   UNL     1     -12.434  13.798  66.475  1.00  0.00    -0.404 OA 
BRANCH   6   8
HETATM    8  C   UNL     1     -10.223  13.154  67.247  1.00  0.00    -0.243 C  
BRANCH   8   9
HETATM    9  C   UNL     1     -10.039  11.696  66.895  1.00  0.00    -0.238 A  
HETATM   10  C   UNL     1     -10.064  11.353  65.528  1.00  0.00    -0.293 A  
HETATM   11  C   UNL     1      -9.872  10.039  65.109  1.00  0.00    -0.388 A  
HETATM   12  C   UNL     1      -9.610   9.049  66.046  1.00  0.00    -0.342 A  
HETATM   13  C   UNL     1      -9.607   9.366  67.405  1.00  0.00    -0.184 A  
HETATM   14  C   UNL     1      -9.873  10.669  67.851  1.00  0.00    -0.161 A  
BRANCH  14  15
HETATM   15  N   UNL     1     -10.036  10.900  69.235  1.00  0.00    -0.384 NA 
HETATM   16  H   UNL     1      -9.212  11.291  69.692  1.00  0.00     0.000 HD 
BRANCH  15  17
HETATM   17  C   UNL     1     -11.142  10.686  70.111  1.00  0.00    -0.268 A  
HETATM   18  C   UNL     1     -11.280   9.395  70.682  1.00  0.00    -0.284 A  
HETATM   19  C   UNL     1     -12.210   9.122  71.692  1.00  0.00    -0.433 A  
HETATM   20 CL   UNL     1     -10.287   8.075  70.150  1.00  0.00    -0.211 Cl 
HETATM   21  C   UNL     1     -13.047  10.127  72.152  1.00  0.00    -0.463 A  
HETATM   22  C   UNL     1     -13.005  11.378  71.545  1.00  0.00    -0.505 A  
HETATM   23  C   UNL     1     -12.081  11.658  70.521  1.00  0.00    -0.366 A  
HETATM   24 CL   UNL     1     -12.157  13.277  69.916  1.00  0.00    -0.390 Cl 
ENDBRANCH  15  17
ENDBRANCH  14  15
ENDBRANCH   8   9
ENDBRANCH   6   8
ENDBRANCH   5   6
ENDBRANCH   4   5
TORSDOF 6
ENDMDL
MODEL       70
REMARK 921   NORMALIZED FREE ENERGY PREDICTED BY IDOCK:   -5.77 KCAL/MOL
REMARK 922        TOTAL FREE ENERGY PREDICTED BY IDOCK:   -8.76 KCAL/MOL
REMARK 923 INTER-LIGAND FREE ENERGY PREDICTED BY IDOCK:   -8.17 KCAL/MOL
REMARK 924 INTRA-LIGAND FREE ENERGY PREDICTED BY IDOCK:   -0.59 KCAL/MOL
REMARK 927      BINDING AFFINITY PREDICTED BY RF-SCORE:    0.00 PKD
ROOT
HETATM    1  O   UNL     1      -9.644  19.603  68.604  1.00  0.00    -0.372 OA 
HETATM    2  C   UNL     1      -9.793  19.192  67.321  1.00  0.00    -0.334 C  
HETATM    3  O   UNL     1     -10.251  19.921  66.456  1.00  0.00    -0.429 OA 
HETATM    4  C   UNL     1      -9.333  17.755  67.100  1.00  0.00    -0.264 C  
ENDROOT
BRANCH   4   5
HETATM    5  O   UNL     1      -9.576  17.350  65.746  1.00  0.00    -0.526 OA 
BRANCH   5   6
HETATM    6  C   UNL     1     -10.784  16.780  65.498  1.00  0.00    -0.196 C  
HETATM    7  O   UNL     1     -11.394  16.854  64.444  1.00  0.00    -1.133 OA 
BRANCH   6   8
HETATM    8  C   UNL     1     -11.274  16.039  66.729  1.00  0.00     0.095 C  
BRANCH   8   9
HETATM    9  C   UNL     1     -11.188  14.534  66.617  1.00  0.00    -0.346 A  
HETATM   10  C   UNL     1     -11.508  13.961  65.369  1.00  0.00    -0.316 A  
HETATM   11  C   UNL     1     -11.427  12.585  65.165  1.00  0.00    -0.369 A  
HETATM   12  C   UNL     1     -10.987  11.761  66.191  1.00  0.00    -0.355 A  
HETATM   13  C   UNL     1     -10.691  12.309  67.439  1.00  0.00    -0.261 A  
HETATM   14  C   UNL     1     -10.837  13.682  67.688  1.00  0.00    -0.256 A  
BRANCH  14  15
HETATM   15  N   UNL     1     -10.700  14.158  69.010  1.00  0.00    -0.278 NA 
HETATM   16  H   UNL     1      -9.771  14.520  69.228  1.00  0.00     0.000 HD 
BRANCH  15  17
HETATM   17  C   UNL     1     -11.622  14.226  70.097  1.00  0.00    -0.246 A  
HETATM   18  C   UNL     1     -11.901  15.509  70.635  1.00  0.00    -0.365 A  
HETATM   19  C   UNL     1     -12.921  15.720  71.570  1.00  0.00    -0.495 A  
HETATM   20 CL   UNL     1     -10.980  16.898  70.149  1.00  0.00    -0.015 Cl 
HETATM   21  C   UNL     1     -13.684  14.651  72.015  1.00  0.00    -0.527 A  
HETATM   22  C   UNL     1     -13.371  13.367  71.582  1.00  0.00    -0.420 A  
HETATM   23  C   UNL     1     -12.340  13.144  70.650  1.00  0.00    -0.326 A  
HETATM   24 CL   UNL     1     -12.126  11.485  70.208  1.00  0.00    -0.434 Cl 
ENDBRANCH  15  17
ENDBRANCH  14  15
ENDBRANCH   8   9
ENDBRANCH   6   8
ENDBRANCH   5   6
ENDBRANCH   4   5
TORSDOF 6
ENDMDL
MODEL       71
REMARK 921   NORMALIZED FREE ENERGY PREDICTED BY IDOCK:   -5.76 KCAL/MOL
REMARK 922        TOTAL FREE ENERGY PREDICTED BY IDOCK:   -8.74 KCAL/MOL
REMARK 923 INTER-LIGAND FREE ENERGY PREDICTED BY IDOCK:   -7.78 KCAL/MOL
REMARK 924 INTRA-LIGAND FREE ENERGY PREDICTED BY IDOCK:   -0.97 KCAL/MOL
REMARK 927      BINDING AFFINITY PREDICTED BY RF-SCORE:    0.00 PKD
ROOT
HETATM    1  O   UNL     1     -14.106   7.301  71.390  1.00  0.00    -0.413 OA 
HETATM    2  C   UNL     1     -13.398   8.424  71.664  1.00  0.00    -0.338 C  
HETATM    3  O   UNL     1     -13.832   9.300  72.395  1.00  0.00    -0.470 OA 
HETATM    4  C   UNL     1     -12.041   8.457  70.970  1.00  0.00    -0.198 C  
ENDROOT
BRANCH   4   5
HETATM    5  O   UNL     1     -11.367   9.694  71.239  1.00  0.00    -0.344 OA 
BRANCH   5   6
HETATM    6  C   UNL     1     -10.962  10.403  70.153  1.00  0.00    -0.300 C  
HETATM    7  O   UNL     1      -9.854  10.341  69.646  1.00  0.00    -0.230 OA 
BRANCH   6   8
HETATM    8  C   UNL     1     -12.088  11.295  69.662  1.00  0.00    -0.391 C  
BRANCH   8   9
HETATM    9  C   UNL     1     -11.852  12.769  69.895  1.00  0.00    -0.371 A  
HETATM   10  C   UNL     1     -12.517  13.365  70.988  1.00  0.00    -0.437 A  
HETATM   11  C   UNL     1     -12.335  14.711  71.296  1.00  0.00    -0.407 A  
HETATM   12  C   UNL     1     -11.455  15.477  70.545  1.00  0.00    -0.368 A  
HETATM   13  C   UNL     1     -10.810  14.911  69.445  1.00  0.00    -0.274 A  
HETATM   14  C   UNL     1     -11.036  13.578  69.072  1.00  0.00    -0.250 A  
BRANCH  14  15
HETATM   15  N   UNL     1     -10.502  13.106  67.853  1.00  0.00    -0.234 NA 
HETATM   16  H   UNL     1      -9.648  12.558  67.957  1.00  0.00     0.000 HD 
BRANCH  15  17
HETATM   17  C   UNL     1     -10.938  13.257  66.502  1.00  0.00    -0.286 A  
HETATM   18  C   UNL     1     -11.230  12.073  65.777  1.00  0.00    -0.334 A  
HETATM   19  C   UNL     1     -11.838  12.102  64.517  1.00  0.00    -0.418 A  
HETATM   20 CL   UNL     1     -10.844  10.511  66.428  1.00  0.00    -0.162 Cl 
HETATM   21  C   UNL     1     -12.157  13.317  63.930  1.00  0.00    -0.531 A  
HETATM   22  C   UNL     1     -11.795  14.497  64.571  1.00  0.00    -0.459 A  
HETATM   23  C   UNL     1     -11.172  14.478  65.833  1.00  0.00    -0.331 A  
HETATM   24 CL   UNL     1     -10.831  16.044  66.484  1.00  0.00    -0.230 Cl 
ENDBRANCH  15  17
ENDBRANCH  14  15
ENDBRANCH   8   9
ENDBRANCH   6   8
ENDBRANCH   5   6
ENDBRANCH   4   5
TORSDOF 6
ENDMDL
MODEL       72
REMARK 921   NORMALIZED FREE ENERGY PREDICTED BY IDOCK:   -5.76 KCAL/MOL
REMARK 922        TOTAL FREE ENERGY PREDICTED BY IDOCK:   -8.74 KCAL/MOL
REMARK 923 INTER-LIGAND FREE ENERGY PREDICTED BY IDOCK:   -7.70 KCAL/MOL
REMARK 924 INTRA-LIGAND FREE ENERGY PREDICTED BY IDOCK:   -1.03 KCAL/MOL
REMARK 927      BINDING AFFINITY PREDICTED BY RF-SCORE:    0.00 PKD
ROOT
HETATM    1  O   UNL     1     -14.335   7.140  71.673  1.00  0.00    -0.417 OA 
HETATM    2  C   UNL     1     -13.643   8.280  71.916  1.00  0.00    -0.357 C  
HETATM    3  O   UNL     1     -14.151   9.240  72.473  1.00  0.00    -0.440 OA 
HETATM    4  C   UNL     1     -12.202   8.217  71.423  1.00  0.00    -0.297 C  
ENDROOT
BRANCH   4   5
HETATM    5  O   UNL     1     -11.539   9.469  71.642  1.00  0.00    -0.377 OA 
BRANCH   5   6
HETATM    6  C   UNL     1     -11.018  10.072  70.542  1.00  0.00    -0.326 C  
HETATM    7  O   UNL     1      -9.871   9.946  70.146  1.00  0.00    -0.247 OA 
BRANCH   6   8
HETATM    8  C   UNL     1     -12.072  10.937  69.873  1.00  0.00    -0.428 C  
BRANCH   8   9
HETATM    9  C   UNL     1     -12.218  12.312  70.483  1.00  0.00    -0.387 A  
HETATM   10  C   UNL     1     -13.208  12.478  71.473  1.00  0.00    -0.298 A  
HETATM   11  C   UNL     1     -13.392  13.702  72.111  1.00  0.00    -0.587 A  
HETATM   12  C   UNL     1     -12.566  14.772  71.801  1.00  0.00    -0.400 A  
HETATM   13  C   UNL     1     -11.598  14.633  70.805  1.00  0.00    -0.289 A  
HETATM   14  C   UNL     1     -11.446  13.431  70.098  1.00  0.00     0.013 A  
BRANCH  14  15
HETATM   15  N   UNL     1     -10.580  13.396  68.982  1.00  0.00    -0.408 NA 
HETATM   16  H   UNL     1      -9.849  12.689  69.045  1.00  0.00     0.000 HD 
BRANCH  15  17
HETATM   17  C   UNL     1     -10.542  14.170  67.784  1.00  0.00    -0.243 A  
HETATM   18  C   UNL     1     -11.126  13.602  66.623  1.00  0.00    -0.306 A  
HETATM   19  C   UNL     1     -11.314  14.336  65.446  1.00  0.00    -0.329 A  
HETATM   20 CL   UNL     1     -11.647  11.946  66.608  1.00  0.00    -0.387 Cl 
HETATM   21  C   UNL     1     -10.905  15.660  65.384  1.00  0.00    -0.394 A  
HETATM   22  C   UNL     1     -10.241  16.217  66.471  1.00  0.00    -0.307 A  
HETATM   23  C   UNL     1     -10.038  15.483  67.654  1.00  0.00    -0.243 A  
HETATM   24 CL   UNL     1      -9.224  16.358  68.905  1.00  0.00    -0.251 Cl 
ENDBRANCH  15  17
ENDBRANCH  14  15
ENDBRANCH   8   9
ENDBRANCH   6   8
ENDBRANCH   5   6
ENDBRANCH   4   5
TORSDOF 6
ENDMDL
MODEL       73
REMARK 921   NORMALIZED FREE ENERGY PREDICTED BY IDOCK:   -5.76 KCAL/MOL
REMARK 922        TOTAL FREE ENERGY PREDICTED BY IDOCK:   -8.74 KCAL/MOL
REMARK 923 INTER-LIGAND FREE ENERGY PREDICTED BY IDOCK:   -7.49 KCAL/MOL
REMARK 924 INTRA-LIGAND FREE ENERGY PREDICTED BY IDOCK:   -1.24 KCAL/MOL
REMARK 927      BINDING AFFINITY PREDICTED BY RF-SCORE:    0.00 PKD
ROOT
HETATM    1  O   UNL     1     -11.400  15.435  72.240  1.00  0.00    -0.440 OA 
HETATM    2  C   UNL     1     -11.954  15.708  71.034  1.00  0.00    -0.400 C  
HETATM    3  O   UNL     1     -13.157  15.857  70.893  1.00  0.00    -0.505 OA 
HETATM    4  C   UNL     1     -10.924  15.804  69.914  1.00  0.00    -0.333 C  
ENDROOT
BRANCH   4   5
HETATM    5  O   UNL     1     -11.569  16.027  68.653  1.00  0.00    -0.386 OA 
BRANCH   5   6
HETATM    6  C   UNL     1     -10.803  16.581  67.677  1.00  0.00    -0.269 C  
HETATM    7  O   UNL     1     -10.749  17.772  67.415  1.00  0.00    -0.357 OA 
BRANCH   6   8
HETATM    8  C   UNL     1     -10.021  15.501  66.950  1.00  0.00    -0.251 C  
BRANCH   8   9
HETATM    9  C   UNL     1     -10.884  14.534  66.174  1.00  0.00    -0.317 A  
HETATM   10  C   UNL     1     -11.301  14.930  64.886  1.00  0.00    -0.415 A  
HETATM   11  C   UNL     1     -12.073  14.090  64.087  1.00  0.00    -0.456 A  
HETATM   12  C   UNL     1     -12.409  12.823  64.542  1.00  0.00    -0.515 A  
HETATM   13  C   UNL     1     -12.027  12.425  65.823  1.00  0.00    -0.437 A  
HETATM   14  C   UNL     1     -11.313  13.283  66.673  1.00  0.00    -0.321 A  
BRANCH  14  15
HETATM   15  N   UNL     1     -11.108  12.903  68.018  1.00  0.00    -0.241 NA 
HETATM   16  H   UNL     1     -11.449  13.582  68.699  1.00  0.00     0.000 HD 
BRANCH  15  17
HETATM   17  C   UNL     1     -10.510  11.745  68.598  1.00  0.00    -0.222 A  
HETATM   18  C   UNL     1     -11.093  11.238  69.787  1.00  0.00    -0.167 A  
HETATM   19  C   UNL     1     -10.713  10.009  70.340  1.00  0.00    -0.369 A  
HETATM   20 CL   UNL     1     -12.326  12.128  70.625  1.00  0.00    -0.428 Cl 
HETATM   21  C   UNL     1      -9.721   9.254  69.732  1.00  0.00    -0.202 A  
HETATM   22  C   UNL     1      -9.061   9.768  68.621  1.00  0.00    -0.130 A  
HETATM   23  C   UNL     1      -9.430  11.008  68.065  1.00  0.00    -0.166 A  
HETATM   24 CL   UNL     1      -8.518  11.461  66.666  1.00  0.00    -0.168 Cl 
ENDBRANCH  15  17
ENDBRANCH  14  15
ENDBRANCH   8   9
ENDBRANCH   6   8
ENDBRANCH   5   6
ENDBRANCH   4   5
TORSDOF 6
ENDMDL
MODEL       74
REMARK 921   NORMALIZED FREE ENERGY PREDICTED BY IDOCK:   -5.74 KCAL/MOL
REMARK 922        TOTAL FREE ENERGY PREDICTED BY IDOCK:   -8.71 KCAL/MOL
REMARK 923 INTER-LIGAND FREE ENERGY PREDICTED BY IDOCK:   -8.03 KCAL/MOL
REMARK 924 INTRA-LIGAND FREE ENERGY PREDICTED BY IDOCK:   -0.69 KCAL/MOL
REMARK 927      BINDING AFFINITY PREDICTED BY RF-SCORE:    0.00 PKD
ROOT
HETATM    1  O   UNL     1     -14.199  13.248  72.493  1.00  0.00    -0.697 OA 
HETATM    2  C   UNL     1     -13.416  14.332  72.270  1.00  0.00    -0.457 C  
HETATM    3  O   UNL     1     -13.493  15.339  72.955  1.00  0.00    -0.480 OA 
HETATM    4  C   UNL     1     -12.460  14.144  71.097  1.00  0.00    -0.371 C  
ENDROOT
BRANCH   4   5
HETATM    5  O   UNL     1     -11.707  15.341  70.863  1.00  0.00    -0.287 OA 
BRANCH   5   6
HETATM    6  C   UNL     1     -11.444  15.639  69.564  1.00  0.00    -0.344 C  
HETATM    7  O   UNL     1     -12.249  15.573  68.649  1.00  0.00    -0.178 OA 
BRANCH   6   8
HETATM    8  C   UNL     1      -9.994  16.061  69.408  1.00  0.00    -0.262 C  
BRANCH   8   9
HETATM    9  C   UNL     1      -9.782  17.180  68.415  1.00  0.00    -0.284 A  
HETATM   10  C   UNL     1     -10.056  18.493  68.852  1.00  0.00    -0.348 A  
HETATM   11  C   UNL     1      -9.860  19.588  68.014  1.00  0.00    -0.500 A  
HETATM   12  C   UNL     1      -9.349  19.398  66.738  1.00  0.00    -0.395 A  
HETATM   13  C   UNL     1      -9.096  18.103  66.281  1.00  0.00    -0.199 A  
HETATM   14  C   UNL     1      -9.357  16.982  67.082  1.00  0.00    -0.236 A  
BRANCH  14  15
HETATM   15  N   UNL     1      -9.256  15.693  66.512  1.00  0.00    -0.267 NA 
HETATM   16  H   UNL     1      -8.306  15.424  66.258  1.00  0.00     0.000 HD 
BRANCH  15  17
HETATM   17  C   UNL     1     -10.241  14.700  66.226  1.00  0.00    -0.292 A  
HETATM   18  C   UNL     1     -11.186  14.994  65.211  1.00  0.00    -0.367 A  
HETATM   19  C   UNL     1     -12.075  14.032  64.718  1.00  0.00    -0.455 A  
HETATM   20 CL   UNL     1     -11.285  16.583  64.518  1.00  0.00    -0.265 Cl 
HETATM   21  C   UNL     1     -12.062  12.747  65.239  1.00  0.00    -0.505 A  
HETATM   22  C   UNL     1     -11.216  12.453  66.303  1.00  0.00    -0.361 A  
HETATM   23  C   UNL     1     -10.326  13.418  66.812  1.00  0.00    -0.263 A  
HETATM   24 CL   UNL     1      -9.330  12.855  68.110  1.00  0.00    -0.211 Cl 
ENDBRANCH  15  17
ENDBRANCH  14  15
ENDBRANCH   8   9
ENDBRANCH   6   8
ENDBRANCH   5   6
ENDBRANCH   4   5
TORSDOF 6
ENDMDL
MODEL       75
REMARK 921   NORMALIZED FREE ENERGY PREDICTED BY IDOCK:   -5.74 KCAL/MOL
REMARK 922        TOTAL FREE ENERGY PREDICTED BY IDOCK:   -8.71 KCAL/MOL
REMARK 923 INTER-LIGAND FREE ENERGY PREDICTED BY IDOCK:   -7.64 KCAL/MOL
REMARK 924 INTRA-LIGAND FREE ENERGY PREDICTED BY IDOCK:   -1.07 KCAL/MOL
REMARK 927      BINDING AFFINITY PREDICTED BY RF-SCORE:    0.00 PKD
ROOT
HETATM    1  O   UNL     1      -9.154  19.619  66.908  1.00  0.00    -0.312 OA 
HETATM    2  C   UNL     1      -9.026  18.442  66.247  1.00  0.00    -0.191 C  
HETATM    3  O   UNL     1      -7.985  18.117  65.698  1.00  0.00    -0.502 OA 
HETATM    4  C   UNL     1     -10.300  17.604  66.271  1.00  0.00    -0.342 C  
ENDROOT
BRANCH   4   5
HETATM    5  O   UNL     1     -10.131  16.406  65.502  1.00  0.00    -0.508 OA 
BRANCH   5   6
HETATM    6  C   UNL     1     -11.207  16.003  64.777  1.00  0.00    -0.339 C  
HETATM    7  O   UNL     1     -11.573  16.502  63.725  1.00  0.00    -1.109 OA 
BRANCH   6   8
HETATM    8  C   UNL     1     -11.897  14.841  65.468  1.00  0.00    -0.231 C  
BRANCH   8   9
HETATM    9  C   UNL     1     -11.349  13.485  65.087  1.00  0.00    -0.315 A  
HETATM   10  C   UNL     1     -11.661  13.000  63.800  1.00  0.00    -0.547 A  
HETATM   11  C   UNL     1     -11.174  11.775  63.353  1.00  0.00    -0.440 A  
HETATM   12  C   UNL     1     -10.333  11.029  64.166  1.00  0.00    -0.434 A  
HETATM   13  C   UNL     1     -10.035  11.481  65.452  1.00  0.00    -0.288 A  
HETATM   14  C   UNL     1     -10.575  12.676  65.950  1.00  0.00    -0.273 A  
BRANCH  14  15
HETATM   15  N   UNL     1     -10.390  12.998  67.312  1.00  0.00    -0.238 NA 
HETATM   16  H   UNL     1     -11.052  12.544  67.941  1.00  0.00     0.000 HD 
BRANCH  15  17
HETATM   17  C   UNL     1      -9.447  13.843  67.970  1.00  0.00    -0.208 A  
HETATM   18  C   UNL     1      -9.961  14.923  68.733  1.00  0.00    -0.228 A  
HETATM   19  C   UNL     1      -9.149  15.701  69.567  1.00  0.00    -0.240 A  
HETATM   20 CL   UNL     1     -11.646  15.334  68.670  1.00  0.00    -0.354 Cl 
HETATM   21  C   UNL     1      -7.790  15.438  69.651  1.00  0.00    -0.149 A  
HETATM   22  C   UNL     1      -7.238  14.450  68.841  1.00  0.00    -0.125 A  
HETATM   23  C   UNL     1      -8.045  13.671  67.991  1.00  0.00    -0.161 A  
HETATM   24 CL   UNL     1      -7.183  12.472  67.091  1.00  0.00    -0.107 Cl 
ENDBRANCH  15  17
ENDBRANCH  14  15
ENDBRANCH   8   9
ENDBRANCH   6   8
ENDBRANCH   5   6
ENDBRANCH   4   5
TORSDOF 6
ENDMDL
MODEL       76
REMARK 921   NORMALIZED FREE ENERGY PREDICTED BY IDOCK:   -5.74 KCAL/MOL
REMARK 922        TOTAL FREE ENERGY PREDICTED BY IDOCK:   -8.71 KCAL/MOL
REMARK 923 INTER-LIGAND FREE ENERGY PREDICTED BY IDOCK:   -7.72 KCAL/MOL
REMARK 924 INTRA-LIGAND FREE ENERGY PREDICTED BY IDOCK:   -0.99 KCAL/MOL
REMARK 927      BINDING AFFINITY PREDICTED BY RF-SCORE:    0.00 PKD
ROOT
HETATM    1  O   UNL     1     -11.620  15.981  72.101  1.00  0.00    -0.443 OA 
HETATM    2  C   UNL     1     -12.309  15.405  71.086  1.00  0.00    -0.385 C  
HETATM    3  O   UNL     1     -13.502  15.602  70.919  1.00  0.00    -0.569 OA 
HETATM    4  C   UNL     1     -11.440  14.511  70.209  1.00  0.00    -0.224 C  
ENDROOT
BRANCH   4   5
HETATM    5  O   UNL     1     -12.230  13.875  69.196  1.00  0.00    -0.356 OA 
BRANCH   5   6
HETATM    6  C   UNL     1     -11.678  13.812  67.957  1.00  0.00    -0.355 C  
HETATM    7  O   UNL     1     -12.203  14.214  66.931  1.00  0.00    -0.439 OA 
BRANCH   6   8
HETATM    8  C   UNL     1     -10.308  13.163  68.028  1.00  0.00    -0.240 C  
BRANCH   8   9
HETATM    9  C   UNL     1     -10.278  11.732  67.541  1.00  0.00    -0.214 A  
HETATM   10  C   UNL     1     -10.205  11.526  66.148  1.00  0.00    -0.272 A  
HETATM   11  C   UNL     1     -10.142  10.242  65.611  1.00  0.00    -0.341 A  
HETATM   12  C   UNL     1     -10.112   9.142  66.456  1.00  0.00    -0.357 A  
HETATM   13  C   UNL     1     -10.210   9.328  67.836  1.00  0.00    -0.263 A  
HETATM   14  C   UNL     1     -10.349  10.607  68.393  1.00  0.00    -0.175 A  
BRANCH  14  15
HETATM   15  N   UNL     1     -10.625  10.729  69.773  1.00  0.00    -0.426 NA 
HETATM   16  H   UNL     1     -10.856  11.677  70.069  1.00  0.00     0.000 HD 
BRANCH  15  17
HETATM   17  C   UNL     1     -10.640   9.768  70.828  1.00  0.00    -0.301 A  
HETATM   18  C   UNL     1     -11.883   9.516  71.461  1.00  0.00    -0.405 A  
HETATM   19  C   UNL     1     -12.057   8.469  72.374  1.00  0.00    -0.436 A  
HETATM   20 CL   UNL     1     -13.270  10.505  71.127  1.00  0.00    -0.415 Cl 
HETATM   21  C   UNL     1     -10.986   7.650  72.700  1.00  0.00    -0.405 A  
HETATM   22  C   UNL     1      -9.730   7.932  72.172  1.00  0.00    -0.257 A  
HETATM   23  C   UNL     1      -9.544   8.990  71.262  1.00  0.00    -0.291 A  
HETATM   24 CL   UNL     1      -7.921   9.160  70.690  1.00  0.00    -0.155 Cl 
ENDBRANCH  15  17
ENDBRANCH  14  15
ENDBRANCH   8   9
ENDBRANCH   6   8
ENDBRANCH   5   6
ENDBRANCH   4   5
TORSDOF 6
ENDMDL
MODEL       77
REMARK 921   NORMALIZED FREE ENERGY PREDICTED BY IDOCK:   -5.74 KCAL/MOL
REMARK 922        TOTAL FREE ENERGY PREDICTED BY IDOCK:   -8.71 KCAL/MOL
REMARK 923 INTER-LIGAND FREE ENERGY PREDICTED BY IDOCK:   -8.06 KCAL/MOL
REMARK 924 INTRA-LIGAND FREE ENERGY PREDICTED BY IDOCK:   -0.65 KCAL/MOL
REMARK 927      BINDING AFFINITY PREDICTED BY RF-SCORE:    0.00 PKD
ROOT
HETATM    1  O   UNL     1     -13.608  15.643  73.147  1.00  0.00    -0.541 OA 
HETATM    2  C   UNL     1     -13.502  14.484  72.453  1.00  0.00    -0.448 C  
HETATM    3  O   UNL     1     -14.310  13.576  72.580  1.00  0.00    -0.713 OA 
HETATM    4  C   UNL     1     -12.292  14.453  71.526  1.00  0.00    -0.353 C  
ENDROOT
BRANCH   4   5
HETATM    5  O   UNL     1     -12.191  13.183  70.869  1.00  0.00    -0.358 OA 
BRANCH   5   6
HETATM    6  C   UNL     1     -11.874  13.214  69.549  1.00  0.00    -0.322 C  
HETATM    7  O   UNL     1     -11.350  12.304  68.929  1.00  0.00    -0.246 OA 
BRANCH   6   8
HETATM    8  C   UNL     1     -12.263  14.555  68.951  1.00  0.00    -0.194 C  
BRANCH   8   9
HETATM    9  C   UNL     1     -11.646  14.827  67.598  1.00  0.00    -0.374 A  
HETATM   10  C   UNL     1     -12.007  13.970  66.538  1.00  0.00    -0.470 A  
HETATM   11  C   UNL     1     -11.511  14.165  65.251  1.00  0.00    -0.330 A  
HETATM   12  C   UNL     1     -10.677  15.242  64.990  1.00  0.00    -0.461 A  
HETATM   13  C   UNL     1     -10.289  16.085  66.032  1.00  0.00    -0.366 A  
HETATM   14  C   UNL     1     -10.717  15.863  67.349  1.00  0.00    -0.313 A  
BRANCH  14  15
HETATM   15  N   UNL     1     -10.155  16.632  68.392  1.00  0.00    -0.255 NA 
HETATM   16  H   UNL     1     -10.692  16.613  69.259  1.00  0.00     0.000 HD 
BRANCH  15  17
HETATM   17  C   UNL     1      -8.973  17.430  68.455  1.00  0.00    -0.276 A  
HETATM   18  C   UNL     1      -7.734  16.750  68.571  1.00  0.00    -0.223 A  
HETATM   19  C   UNL     1      -6.506  17.412  68.454  1.00  0.00    -0.177 A  
HETATM   20 CL   UNL     1      -7.680  15.040  68.864  1.00  0.00    -0.141 Cl 
HETATM   21  C   UNL     1      -6.476  18.781  68.238  1.00  0.00    -0.235 A  
HETATM   22  C   UNL     1      -7.672  19.492  68.218  1.00  0.00    -0.356 A  
HETATM   23  C   UNL     1      -8.910  18.836  68.345  1.00  0.00    -0.342 A  
HETATM   24 CL   UNL     1     -10.284  19.884  68.260  1.00  0.00    -0.567 Cl 
ENDBRANCH  15  17
ENDBRANCH  14  15
ENDBRANCH   8   9
ENDBRANCH   6   8
ENDBRANCH   5   6
ENDBRANCH   4   5
TORSDOF 6
ENDMDL
MODEL       78
REMARK 921   NORMALIZED FREE ENERGY PREDICTED BY IDOCK:   -5.73 KCAL/MOL
REMARK 922        TOTAL FREE ENERGY PREDICTED BY IDOCK:   -8.71 KCAL/MOL
REMARK 923 INTER-LIGAND FREE ENERGY PREDICTED BY IDOCK:   -7.53 KCAL/MOL
REMARK 924 INTRA-LIGAND FREE ENERGY PREDICTED BY IDOCK:   -1.18 KCAL/MOL
REMARK 927      BINDING AFFINITY PREDICTED BY RF-SCORE:    0.00 PKD
ROOT
HETATM    1  O   UNL     1      -9.720  20.549  67.261  1.00  0.00    -0.443 OA 
HETATM    2  C   UNL     1      -9.445  19.513  66.431  1.00  0.00    -0.386 C  
HETATM    3  O   UNL     1      -8.422  19.471  65.766  1.00  0.00    -0.418 OA 
HETATM    4  C   UNL     1     -10.532  18.445  66.432  1.00  0.00    -0.383 C  
ENDROOT
BRANCH   4   5
HETATM    5  O   UNL     1     -10.223  17.410  65.489  1.00  0.00    -0.604 OA 
BRANCH   5   6
HETATM    6  C   UNL     1      -9.751  16.247  66.010  1.00  0.00    -0.339 C  
HETATM    7  O   UNL     1      -8.574  15.986  66.196  1.00  0.00    -0.333 OA 
BRANCH   6   8
HETATM    8  C   UNL     1     -10.904  15.310  66.324  1.00  0.00    -0.312 C  
BRANCH   8   9
HETATM    9  C   UNL     1     -11.059  14.174  65.340  1.00  0.00    -0.321 A  
HETATM   10  C   UNL     1     -12.086  14.287  64.380  1.00  0.00    -0.490 A  
HETATM   11  C   UNL     1     -12.284  13.302  63.415  1.00  0.00    -0.476 A  
HETATM   12  C   UNL     1     -11.434  12.206  63.365  1.00  0.00    -0.501 A  
HETATM   13  C   UNL     1     -10.429  12.066  64.323  1.00  0.00    -0.369 A  
HETATM   14  C   UNL     1     -10.261  13.008  65.348  1.00  0.00    -0.288 A  
BRANCH  14  15
HETATM   15  N   UNL     1      -9.351  12.730  66.393  1.00  0.00    -0.349 NA 
HETATM   16  H   UNL     1      -8.578  13.392  66.459  1.00  0.00     0.000 HD 
BRANCH  15  17
HETATM   17  C   UNL     1      -9.317  11.693  67.373  1.00  0.00    -0.168 A  
HETATM   18  C   UNL     1      -8.143  10.900  67.440  1.00  0.00    -0.114 A  
HETATM   19  C   UNL     1      -7.920   9.984  68.474  1.00  0.00    -0.102 A  
HETATM   20 CL   UNL     1      -6.908  11.033  66.228  1.00  0.00    -0.123 Cl 
HETATM   21  C   UNL     1      -8.874   9.815  69.467  1.00  0.00    -0.202 A  
HETATM   22  C   UNL     1     -10.078  10.505  69.376  1.00  0.00    -0.233 A  
HETATM   23  C   UNL     1     -10.315  11.420  68.333  1.00  0.00    -0.195 A  
HETATM   24 CL   UNL     1     -11.855  12.205  68.411  1.00  0.00    -0.383 Cl 
ENDBRANCH  15  17
ENDBRANCH  14  15
ENDBRANCH   8   9
ENDBRANCH   6   8
ENDBRANCH   5   6
ENDBRANCH   4   5
TORSDOF 6
ENDMDL
MODEL       79
REMARK 921   NORMALIZED FREE ENERGY PREDICTED BY IDOCK:   -5.70 KCAL/MOL
REMARK 922        TOTAL FREE ENERGY PREDICTED BY IDOCK:   -8.66 KCAL/MOL
REMARK 923 INTER-LIGAND FREE ENERGY PREDICTED BY IDOCK:   -7.75 KCAL/MOL
REMARK 924 INTRA-LIGAND FREE ENERGY PREDICTED BY IDOCK:   -0.91 KCAL/MOL
REMARK 927      BINDING AFFINITY PREDICTED BY RF-SCORE:    0.00 PKD
ROOT
HETATM    1  O   UNL     1     -14.394   7.960  71.941  1.00  0.00    -0.408 OA 
HETATM    2  C   UNL     1     -13.072   8.065  71.663  1.00  0.00    -0.329 C  
HETATM    3  O   UNL     1     -12.332   7.093  71.659  1.00  0.00    -0.325 OA 
HETATM    4  C   UNL     1     -12.636   9.495  71.368  1.00  0.00    -0.359 C  
ENDROOT
BRANCH   4   5
HETATM    5  O   UNL     1     -11.221   9.557  71.149  1.00  0.00    -0.315 OA 
BRANCH   5   6
HETATM    6  C   UNL     1     -10.814  10.242  70.048  1.00  0.00    -0.307 C  
HETATM    7  O   UNL     1      -9.660  10.334  69.663  1.00  0.00    -0.215 OA 
BRANCH   6   8
HETATM    8  C   UNL     1     -12.006  10.887  69.364  1.00  0.00    -0.393 C  
BRANCH   8   9
HETATM    9  C   UNL     1     -11.784  12.328  68.967  1.00  0.00    -0.376 A  
HETATM   10  C   UNL     1     -11.695  13.278  70.006  1.00  0.00    -0.295 A  
HETATM   11  C   UNL     1     -11.460  14.624  69.734  1.00  0.00    -0.325 A  
HETATM   12  C   UNL     1     -11.269  15.040  68.425  1.00  0.00    -0.303 A  
HETATM   13  C   UNL     1     -11.379  14.117  67.383  1.00  0.00    -0.346 A  
HETATM   14  C   UNL     1     -11.689  12.772  67.629  1.00  0.00    -0.367 A  
BRANCH  14  15
HETATM   15  N   UNL     1     -11.966  11.920  66.536  1.00  0.00    -0.545 NA 
HETATM   16  H   UNL     1     -12.928  11.584  66.504  1.00  0.00     0.000 HD 
BRANCH  15  17
HETATM   17  C   UNL     1     -11.145  11.444  65.470  1.00  0.00    -0.136 A  
HETATM   18  C   UNL     1     -11.103  12.222  64.285  1.00  0.00    -0.348 A  
HETATM   19  C   UNL     1     -10.197  11.958  63.251  1.00  0.00    -0.428 A  
HETATM   20 CL   UNL     1     -12.185  13.561  64.058  1.00  0.00    -0.475 Cl 
HETATM   21  C   UNL     1      -9.316  10.892  63.359  1.00  0.00    -0.308 A  
HETATM   22  C   UNL     1      -9.399  10.051  64.463  1.00  0.00    -0.345 A  
HETATM   23  C   UNL     1     -10.314  10.304  65.502  1.00  0.00    -0.169 A  
HETATM   24 CL   UNL     1     -10.243   9.168  66.806  1.00  0.00    -0.332 Cl 
ENDBRANCH  15  17
ENDBRANCH  14  15
ENDBRANCH   8   9
ENDBRANCH   6   8
ENDBRANCH   5   6
ENDBRANCH   4   5
TORSDOF 6
ENDMDL
MODEL       80
REMARK 921   NORMALIZED FREE ENERGY PREDICTED BY IDOCK:   -5.69 KCAL/MOL
REMARK 922        TOTAL FREE ENERGY PREDICTED BY IDOCK:   -8.64 KCAL/MOL
REMARK 923 INTER-LIGAND FREE ENERGY PREDICTED BY IDOCK:   -7.96 KCAL/MOL
REMARK 924 INTRA-LIGAND FREE ENERGY PREDICTED BY IDOCK:   -0.69 KCAL/MOL
REMARK 927      BINDING AFFINITY PREDICTED BY RF-SCORE:    0.00 PKD
ROOT
HETATM    1  O   UNL     1     -12.660  14.498  64.025  1.00  0.00    -0.797 OA 
HETATM    2  C   UNL     1     -12.644  13.350  64.745  1.00  0.00    -0.314 C  
HETATM    3  O   UNL     1     -13.183  12.329  64.348  1.00  0.00    -0.806 OA 
HETATM    4  C   UNL     1     -11.896  13.486  66.066  1.00  0.00    -0.379 C  
ENDROOT
BRANCH   4   5
HETATM    5  O   UNL     1     -11.968  12.266  66.815  1.00  0.00    -0.586 OA 
BRANCH   5   6
HETATM    6  C   UNL     1     -10.860  11.480  66.789  1.00  0.00    -0.282 C  
HETATM    7  O   UNL     1      -9.792  11.787  66.286  1.00  0.00    -0.210 OA 
BRANCH   6   8
HETATM    8  C   UNL     1     -11.144  10.155  67.473  1.00  0.00    -0.251 C  
BRANCH   8   9
HETATM    9  C   UNL     1      -9.906   9.344  67.780  1.00  0.00    -0.207 A  
HETATM   10  C   UNL     1      -9.397   8.526  66.750  1.00  0.00    -0.232 A  
HETATM   11  C   UNL     1      -8.244   7.767  66.934  1.00  0.00    -0.116 A  
HETATM   12  C   UNL     1      -7.554   7.842  68.136  1.00  0.00    -0.116 A  
HETATM   13  C   UNL     1      -8.057   8.627  69.174  1.00  0.00    -0.116 A  
HETATM   14  C   UNL     1      -9.257   9.339  69.036  1.00  0.00    -0.144 A  
BRANCH  14  15
HETATM   15  N   UNL     1      -9.816   9.970  70.169  1.00  0.00    -0.386 NA 
HETATM   16  H   UNL     1      -9.187  10.627  70.632  1.00  0.00     0.000 HD 
BRANCH  15  17
HETATM   17  C   UNL     1     -11.098   9.856  70.786  1.00  0.00    -0.347 A  
HETATM   18  C   UNL     1     -11.418   8.618  71.398  1.00  0.00    -0.289 A  
HETATM   19  C   UNL     1     -12.561   8.450  72.189  1.00  0.00    -0.412 A  
HETATM   20 CL   UNL     1     -10.392   7.233  71.196  1.00  0.00    -0.204 Cl 
HETATM   21  C   UNL     1     -13.434   9.511  72.378  1.00  0.00    -0.475 A  
HETATM   22  C   UNL     1     -13.201  10.709  71.711  1.00  0.00    -0.526 A  
HETATM   23  C   UNL     1     -12.060  10.883  70.905  1.00  0.00    -0.349 A  
HETATM   24 CL   UNL     1     -11.926  12.452  70.189  1.00  0.00    -0.413 Cl 
ENDBRANCH  15  17
ENDBRANCH  14  15
ENDBRANCH   8   9
ENDBRANCH   6   8
ENDBRANCH   5   6
ENDBRANCH   4   5
TORSDOF 6
ENDMDL
MODEL       81
REMARK 921   NORMALIZED FREE ENERGY PREDICTED BY IDOCK:   -5.68 KCAL/MOL
REMARK 922        TOTAL FREE ENERGY PREDICTED BY IDOCK:   -8.63 KCAL/MOL
REMARK 923 INTER-LIGAND FREE ENERGY PREDICTED BY IDOCK:   -7.79 KCAL/MOL
REMARK 924 INTRA-LIGAND FREE ENERGY PREDICTED BY IDOCK:   -0.84 KCAL/MOL
REMARK 927      BINDING AFFINITY PREDICTED BY RF-SCORE:    0.00 PKD
ROOT
HETATM    1  O   UNL     1      -7.641   9.768  63.709  1.00  0.00    -0.121 OA 
HETATM    2  C   UNL     1      -8.919  10.133  63.444  1.00  0.00    -0.246 C  
HETATM    3  O   UNL     1      -9.420   9.983  62.341  1.00  0.00    -0.295 OA 
HETATM    4  C   UNL     1      -9.629  10.736  64.651  1.00  0.00    -0.268 C  
ENDROOT
BRANCH   4   5
HETATM    5  O   UNL     1     -10.950  11.167  64.297  1.00  0.00    -0.341 OA 
BRANCH   5   6
HETATM    6  C   UNL     1     -11.561  12.006  65.173  1.00  0.00    -0.272 C  
HETATM    7  O   UNL     1     -12.716  12.391  65.089  1.00  0.00    -0.630 OA 
BRANCH   6   8
HETATM    8  C   UNL     1     -10.595  12.406  66.274  1.00  0.00    -0.277 C  
BRANCH   8   9
HETATM    9  C   UNL     1     -11.178  12.318  67.665  1.00  0.00    -0.346 A  
HETATM   10  C   UNL     1     -11.198  11.048  68.278  1.00  0.00    -0.340 A  
HETATM   11  C   UNL     1     -11.688  10.878  69.571  1.00  0.00    -0.400 A  
HETATM   12  C   UNL     1     -12.130  11.979  70.291  1.00  0.00    -0.395 A  
HETATM   13  C   UNL     1     -12.141  13.238  69.690  1.00  0.00    -0.331 A  
HETATM   14  C   UNL     1     -11.722  13.419  68.364  1.00  0.00    -0.355 A  
BRANCH  14  15
HETATM   15  N   UNL     1     -11.921  14.674  67.746  1.00  0.00    -0.545 NA 
HETATM   16  H   UNL     1     -12.772  14.732  67.187  1.00  0.00     0.000 HD 
BRANCH  15  17
HETATM   17  C   UNL     1     -11.149  15.874  67.761  1.00  0.00    -0.288 A  
HETATM   18  C   UNL     1     -10.778  16.424  66.507  1.00  0.00    -0.163 A  
HETATM   19  C   UNL     1     -10.186  17.687  66.393  1.00  0.00    -0.364 A  
HETATM   20 CL   UNL     1     -11.046  15.546  65.034  1.00  0.00    -0.410 Cl 
HETATM   21  C   UNL     1      -9.927  18.436  67.532  1.00  0.00    -0.349 A  
HETATM   22  C   UNL     1     -10.188  17.884  68.781  1.00  0.00    -0.362 A  
HETATM   23  C   UNL     1     -10.773  16.610  68.906  1.00  0.00    -0.337 A  
HETATM   24 CL   UNL     1     -11.054  16.111  70.538  1.00  0.00    -0.356 Cl 
ENDBRANCH  15  17
ENDBRANCH  14  15
ENDBRANCH   8   9
ENDBRANCH   6   8
ENDBRANCH   5   6
ENDBRANCH   4   5
TORSDOF 6
ENDMDL
MODEL       82
REMARK 921   NORMALIZED FREE ENERGY PREDICTED BY IDOCK:   -5.67 KCAL/MOL
REMARK 922        TOTAL FREE ENERGY PREDICTED BY IDOCK:   -8.62 KCAL/MOL
REMARK 923 INTER-LIGAND FREE ENERGY PREDICTED BY IDOCK:   -8.19 KCAL/MOL
REMARK 924 INTRA-LIGAND FREE ENERGY PREDICTED BY IDOCK:   -0.43 KCAL/MOL
REMARK 927      BINDING AFFINITY PREDICTED BY RF-SCORE:    0.00 PKD
ROOT
HETATM    1  O   UNL     1     -10.637   7.106  73.425  1.00  0.00    -0.325 OA 
HETATM    2  C   UNL     1     -10.427   8.169  72.611  1.00  0.00    -0.330 C  
HETATM    3  O   UNL     1      -9.305   8.570  72.345  1.00  0.00    -0.268 OA 
HETATM    4  C   UNL     1     -11.721   8.783  72.088  1.00  0.00    -0.363 C  
ENDROOT
BRANCH   4   5
HETATM    5  O   UNL     1     -11.444   9.942  71.290  1.00  0.00    -0.365 OA 
BRANCH   5   6
HETATM    6  C   UNL     1     -12.517  10.539  70.708  1.00  0.00    -0.378 C  
HETATM    7  O   UNL     1     -13.657  10.105  70.723  1.00  0.00    -0.233 OA 
BRANCH   6   8
HETATM    8  C   UNL     1     -12.091  11.827  70.027  1.00  0.00    -0.387 C  
BRANCH   8   9
HETATM    9  C   UNL     1     -12.583  13.079  70.715  1.00  0.00    -0.321 A  
HETATM   10  C   UNL     1     -13.045  12.948  72.041  1.00  0.00    -0.483 A  
HETATM   11  C   UNL     1     -13.487  14.054  72.764  1.00  0.00    -0.576 A  
HETATM   12  C   UNL     1     -13.439  15.316  72.190  1.00  0.00    -0.546 A  
HETATM   13  C   UNL     1     -13.009  15.460  70.870  1.00  0.00    -0.539 A  
HETATM   14  C   UNL     1     -12.630  14.351  70.101  1.00  0.00    -0.286 A  
BRANCH  14  15
HETATM   15  N   UNL     1     -12.376  14.526  68.722  1.00  0.00    -0.586 NA 
HETATM   16  H   UNL     1     -13.215  14.670  68.160  1.00  0.00     0.000 HD 
BRANCH  15  17
HETATM   17  C   UNL     1     -11.162  14.538  67.973  1.00  0.00    -0.292 A  
HETATM   18  C   UNL     1     -10.255  15.601  68.220  1.00  0.00    -0.223 A  
HETATM   19  C   UNL     1      -8.961  15.617  67.686  1.00  0.00    -0.183 A  
HETATM   20 CL   UNL     1     -10.712  16.949  69.213  1.00  0.00    -0.325 Cl 
HETATM   21  C   UNL     1      -8.536  14.579  66.870  1.00  0.00    -0.207 A  
HETATM   22  C   UNL     1      -9.433  13.573  66.529  1.00  0.00    -0.265 A  
HETATM   23  C   UNL     1     -10.740  13.554  67.052  1.00  0.00    -0.277 A  
HETATM   24 CL   UNL     1     -11.694  12.205  66.540  1.00  0.00    -0.426 Cl 
ENDBRANCH  15  17
ENDBRANCH  14  15
ENDBRANCH   8   9
ENDBRANCH   6   8
ENDBRANCH   5   6
ENDBRANCH   4   5
TORSDOF 6
ENDMDL
MODEL       83
REMARK 921   NORMALIZED FREE ENERGY PREDICTED BY IDOCK:   -5.66 KCAL/MOL
REMARK 922        TOTAL FREE ENERGY PREDICTED BY IDOCK:   -8.61 KCAL/MOL
REMARK 923 INTER-LIGAND FREE ENERGY PREDICTED BY IDOCK:   -7.62 KCAL/MOL
REMARK 924 INTRA-LIGAND FREE ENERGY PREDICTED BY IDOCK:   -0.99 KCAL/MOL
REMARK 927      BINDING AFFINITY PREDICTED BY RF-SCORE:    0.00 PKD
ROOT
HETATM    1  O   UNL     1     -12.636  13.090  63.180  1.00  0.00    -0.649 OA 
HETATM    2  C   UNL     1     -12.357  12.727  64.456  1.00  0.00    -0.445 C  
HETATM    3  O   UNL     1     -13.052  13.079  65.396  1.00  0.00    -0.607 OA 
HETATM    4  C   UNL     1     -11.111  11.855  64.567  1.00  0.00    -0.325 C  
ENDROOT
BRANCH   4   5
HETATM    5  O   UNL     1     -10.825  11.558  65.941  1.00  0.00    -0.273 OA 
BRANCH   5   6
HETATM    6  C   UNL     1      -9.513  11.398  66.258  1.00  0.00    -0.209 C  
HETATM    7  O   UNL     1      -8.697  10.786  65.588  1.00  0.00    -0.182 OA 
BRANCH   6   8
HETATM    8  C   UNL     1      -9.207  12.088  67.575  1.00  0.00    -0.180 C  
BRANCH   8   9
HETATM    9  C   UNL     1      -9.357  13.591  67.533  1.00  0.00    -0.220 A  
HETATM   10  C   UNL     1      -8.200  14.348  67.256  1.00  0.00    -0.223 A  
HETATM   11  C   UNL     1      -8.250  15.737  67.167  1.00  0.00    -0.237 A  
HETATM   12  C   UNL     1      -9.464  16.393  67.312  1.00  0.00    -0.231 A  
HETATM   13  C   UNL     1     -10.614  15.662  67.612  1.00  0.00    -0.294 A  
HETATM   14  C   UNL     1     -10.571  14.270  67.780  1.00  0.00    -0.253 A  
BRANCH  14  15
HETATM   15  N   UNL     1     -11.719  13.601  68.258  1.00  0.00    -0.343 NA 
HETATM   16  H   UNL     1     -12.416  13.405  67.540  1.00  0.00     0.000 HD 
BRANCH  15  17
HETATM   17  C   UNL     1     -12.083  13.150  69.563  1.00  0.00    -0.238 A  
HETATM   18  C   UNL     1     -12.583  14.118  70.470  1.00  0.00    -0.342 A  
HETATM   19  C   UNL     1     -13.142  13.765  71.704  1.00  0.00    -0.456 A  
HETATM   20 CL   UNL     1     -12.528  15.810  70.087  1.00  0.00    -0.339 Cl 
HETATM   21  C   UNL     1     -13.202  12.432  72.081  1.00  0.00    -0.491 A  
HETATM   22  C   UNL     1     -12.631  11.467  71.258  1.00  0.00    -0.452 A  
HETATM   23  C   UNL     1     -12.057  11.814  70.020  1.00  0.00    -0.310 A  
HETATM   24 CL   UNL     1     -11.431  10.473  69.124  1.00  0.00    -0.316 Cl 
ENDBRANCH  15  17
ENDBRANCH  14  15
ENDBRANCH   8   9
ENDBRANCH   6   8
ENDBRANCH   5   6
ENDBRANCH   4   5
TORSDOF 6
ENDMDL
MODEL       84
REMARK 921   NORMALIZED FREE ENERGY PREDICTED BY IDOCK:   -5.63 KCAL/MOL
REMARK 922        TOTAL FREE ENERGY PREDICTED BY IDOCK:   -8.57 KCAL/MOL
REMARK 923 INTER-LIGAND FREE ENERGY PREDICTED BY IDOCK:   -7.61 KCAL/MOL
REMARK 924 INTRA-LIGAND FREE ENERGY PREDICTED BY IDOCK:   -0.96 KCAL/MOL
REMARK 927      BINDING AFFINITY PREDICTED BY RF-SCORE:    0.00 PKD
ROOT
HETATM    1  O   UNL     1     -12.528  14.054  63.463  1.00  0.00    -0.826 OA 
HETATM    2  C   UNL     1     -12.078  13.165  64.381  1.00  0.00    -0.410 C  
HETATM    3  O   UNL     1     -12.839  12.496  65.062  1.00  0.00    -0.742 OA 
HETATM    4  C   UNL     1     -10.556  13.106  64.457  1.00  0.00    -0.406 C  
ENDROOT
BRANCH   4   5
HETATM    5  O   UNL     1     -10.137  12.202  65.488  1.00  0.00    -0.241 OA 
BRANCH   5   6
HETATM    6  C   UNL     1     -10.141  10.883  65.167  1.00  0.00    -0.292 C  
HETATM    7  O   UNL     1      -9.792  10.419  64.093  1.00  0.00    -0.319 OA 
BRANCH   6   8
HETATM    8  C   UNL     1     -10.650  10.061  66.337  1.00  0.00    -0.138 C  
BRANCH   8   9
HETATM    9  C   UNL     1      -9.678   9.963  67.490  1.00  0.00    -0.193 A  
HETATM   10  C   UNL     1      -8.348   9.608  67.185  1.00  0.00    -0.121 A  
HETATM   11  C   UNL     1      -7.377   9.523  68.180  1.00  0.00    -0.078 A  
HETATM   12  C   UNL     1      -7.706   9.830  69.492  1.00  0.00    -0.120 A  
HETATM   13  C   UNL     1      -9.023  10.158  69.815  1.00  0.00    -0.159 A  
HETATM   14  C   UNL     1     -10.032  10.176  68.841  1.00  0.00    -0.199 A  
BRANCH  14  15
HETATM   15  N   UNL     1     -11.376  10.336  69.247  1.00  0.00    -0.347 NA 
HETATM   16  H   UNL     1     -12.003   9.610  68.903  1.00  0.00     0.000 HD 
BRANCH  15  17
HETATM   17  C   UNL     1     -12.015  11.328  70.050  1.00  0.00    -0.368 A  
HETATM   18  C   UNL     1     -12.838  10.873  71.112  1.00  0.00    -0.409 A  
HETATM   19  C   UNL     1     -13.363  11.744  72.074  1.00  0.00    -0.417 A  
HETATM   20 CL   UNL     1     -13.237   9.192  71.273  1.00  0.00    -0.329 Cl 
HETATM   21  C   UNL     1     -13.098  13.103  71.995  1.00  0.00    -0.476 A  
HETATM   22  C   UNL     1     -12.377  13.593  70.912  1.00  0.00    -0.450 A  
HETATM   23  C   UNL     1     -11.854  12.726  69.934  1.00  0.00    -0.301 A  
HETATM   24 CL   UNL     1     -10.956  13.518  68.685  1.00  0.00    -0.276 Cl 
ENDBRANCH  15  17
ENDBRANCH  14  15
ENDBRANCH   8   9
ENDBRANCH   6   8
ENDBRANCH   5   6
ENDBRANCH   4   5
TORSDOF 6
ENDMDL
MODEL       85
REMARK 921   NORMALIZED FREE ENERGY PREDICTED BY IDOCK:   -5.62 KCAL/MOL
REMARK 922        TOTAL FREE ENERGY PREDICTED BY IDOCK:   -8.56 KCAL/MOL
REMARK 923 INTER-LIGAND FREE ENERGY PREDICTED BY IDOCK:   -7.51 KCAL/MOL
REMARK 924 INTRA-LIGAND FREE ENERGY PREDICTED BY IDOCK:   -1.05 KCAL/MOL
REMARK 927      BINDING AFFINITY PREDICTED BY RF-SCORE:    0.00 PKD
ROOT
HETATM    1  O   UNL     1     -10.116   4.442  66.743  1.00  0.00    -0.221 OA 
HETATM    2  C   UNL     1     -10.383   5.659  67.278  1.00  0.00    -0.241 C  
HETATM    3  O   UNL     1     -11.246   6.392  66.821  1.00  0.00    -0.327 OA 
HETATM    4  C   UNL     1      -9.502   5.988  68.479  1.00  0.00    -0.120 C  
ENDROOT
BRANCH   4   5
HETATM    5  O   UNL     1      -9.779   7.309  68.960  1.00  0.00    -0.150 OA 
BRANCH   5   6
HETATM    6  C   UNL     1      -9.255   7.627  70.173  1.00  0.00    -0.154 C  
HETATM    7  O   UNL     1      -8.713   6.841  70.933  1.00  0.00    -0.139 OA 
BRANCH   6   8
HETATM    8  C   UNL     1      -9.446   9.106  70.453  1.00  0.00    -0.269 C  
BRANCH   8   9
HETATM    9  C   UNL     1     -10.840   9.472  70.908  1.00  0.00    -0.407 A  
HETATM   10  C   UNL     1     -11.560   8.499  71.631  1.00  0.00    -0.364 A  
HETATM   11  C   UNL     1     -12.839   8.760  72.116  1.00  0.00    -0.456 A  
HETATM   12  C   UNL     1     -13.408  10.010  71.923  1.00  0.00    -0.516 A  
HETATM   13  C   UNL     1     -12.720  10.976  71.187  1.00  0.00    -0.521 A  
HETATM   14  C   UNL     1     -11.463  10.709  70.627  1.00  0.00    -0.281 A  
BRANCH  14  15
HETATM   15  N   UNL     1     -10.890  11.652  69.743  1.00  0.00    -0.448 NA 
HETATM   16  H   UNL     1      -9.996  12.027  70.058  1.00  0.00     0.000 HD 
BRANCH  15  17
HETATM   17  C   UNL     1     -11.335  12.174  68.492  1.00  0.00    -0.275 A  
HETATM   18  C   UNL     1     -11.843  13.498  68.483  1.00  0.00    -0.362 A  
HETATM   19  C   UNL     1     -12.133  14.178  67.294  1.00  0.00    -0.407 A  
HETATM   20 CL   UNL     1     -12.132  14.351  69.967  1.00  0.00    -0.378 Cl 
HETATM   21  C   UNL     1     -11.942  13.549  66.073  1.00  0.00    -0.449 A  
HETATM   22  C   UNL     1     -11.539  12.218  66.050  1.00  0.00    -0.451 A  
HETATM   23  C   UNL     1     -11.256  11.523  67.241  1.00  0.00    -0.301 A  
HETATM   24 CL   UNL     1     -10.735   9.890  67.007  1.00  0.00    -0.275 Cl 
ENDBRANCH  15  17
ENDBRANCH  14  15
ENDBRANCH   8   9
ENDBRANCH   6   8
ENDBRANCH   5   6
ENDBRANCH   4   5
TORSDOF 6
ENDMDL
MODEL       86
REMARK 921   NORMALIZED FREE ENERGY PREDICTED BY IDOCK:   -5.62 KCAL/MOL
REMARK 922        TOTAL FREE ENERGY PREDICTED BY IDOCK:   -8.56 KCAL/MOL
REMARK 923 INTER-LIGAND FREE ENERGY PREDICTED BY IDOCK:   -7.51 KCAL/MOL
REMARK 924 INTRA-LIGAND FREE ENERGY PREDICTED BY IDOCK:   -1.05 KCAL/MOL
REMARK 927      BINDING AFFINITY PREDICTED BY RF-SCORE:    0.00 PKD
ROOT
HETATM    1  O   UNL     1     -12.577  15.671  63.831  1.00  0.00    -0.697 OA 
HETATM    2  C   UNL     1     -12.104  14.443  64.155  1.00  0.00    -0.376 C  
HETATM    3  O   UNL     1     -12.456  13.436  63.561  1.00  0.00    -0.738 OA 
HETATM    4  C   UNL     1     -11.113  14.474  65.313  1.00  0.00    -0.353 C  
ENDROOT
BRANCH   4   5
HETATM    5  O   UNL     1     -10.698  13.145  65.658  1.00  0.00    -0.274 OA 
BRANCH   5   6
HETATM    6  C   UNL     1     -11.135  12.673  66.854  1.00  0.00    -0.273 C  
HETATM    7  O   UNL     1     -12.131  11.987  67.019  1.00  0.00    -0.603 OA 
BRANCH   6   8
HETATM    8  C   UNL     1     -10.205  13.126  67.966  1.00  0.00    -0.233 C  
BRANCH   8   9
HETATM    9  C   UNL     1      -9.131  12.123  68.318  1.00  0.00    -0.191 A  
HETATM   10  C   UNL     1      -7.802  12.458  67.989  1.00  0.00    -0.141 A  
HETATM   11  C   UNL     1      -6.744  11.608  68.304  1.00  0.00    -0.064 A  
HETATM   12  C   UNL     1      -6.990  10.427  68.989  1.00  0.00    -0.071 A  
HETATM   13  C   UNL     1      -8.303  10.068  69.299  1.00  0.00    -0.154 A  
HETATM   14  C   UNL     1      -9.388  10.873  68.925  1.00  0.00    -0.160 A  
BRANCH  14  15
HETATM   15  N   UNL     1     -10.700  10.381  69.101  1.00  0.00    -0.218 NA 
HETATM   16  H   UNL     1     -11.258  10.369  68.247  1.00  0.00     0.000 HD 
BRANCH  15  17
HETATM   17  C   UNL     1     -11.389   9.900  70.255  1.00  0.00    -0.291 A  
HETATM   18  C   UNL     1     -12.211  10.821  70.953  1.00  0.00    -0.384 A  
HETATM   19  C   UNL     1     -13.073  10.420  71.981  1.00  0.00    -0.521 A  
HETATM   20 CL   UNL     1     -12.188  12.511  70.560  1.00  0.00    -0.434 Cl 
HETATM   21  C   UNL     1     -13.129   9.087  72.358  1.00  0.00    -0.487 A  
HETATM   22  C   UNL     1     -12.264   8.176  71.760  1.00  0.00    -0.358 A  
HETATM   23  C   UNL     1     -11.386   8.572  70.734  1.00  0.00    -0.266 A  
HETATM   24 CL   UNL     1     -10.416   7.291  70.092  1.00  0.00    -0.221 Cl 
ENDBRANCH  15  17
ENDBRANCH  14  15
ENDBRANCH   8   9
ENDBRANCH   6   8
ENDBRANCH   5   6
ENDBRANCH   4   5
TORSDOF 6
ENDMDL
MODEL       87
REMARK 921   NORMALIZED FREE ENERGY PREDICTED BY IDOCK:   -5.62 KCAL/MOL
REMARK 922        TOTAL FREE ENERGY PREDICTED BY IDOCK:   -8.55 KCAL/MOL
REMARK 923 INTER-LIGAND FREE ENERGY PREDICTED BY IDOCK:   -7.23 KCAL/MOL
REMARK 924 INTRA-LIGAND FREE ENERGY PREDICTED BY IDOCK:   -1.32 KCAL/MOL
REMARK 927      BINDING AFFINITY PREDICTED BY RF-SCORE:    0.00 PKD
ROOT
HETATM    1  O   UNL     1      -9.912   9.475  65.412  1.00  0.00    -0.284 OA 
HETATM    2  C   UNL     1      -9.803  10.795  65.123  1.00  0.00    -0.277 C  
HETATM    3  O   UNL     1      -9.104  11.547  65.783  1.00  0.00    -0.209 OA 
HETATM    4  C   UNL     1     -10.633  11.210  63.913  1.00  0.00    -0.364 C  
ENDROOT
BRANCH   4   5
HETATM    5  O   UNL     1     -10.534  12.623  63.694  1.00  0.00    -0.414 OA 
BRANCH   5   6
HETATM    6  C   UNL     1     -11.682  13.334  63.846  1.00  0.00    -0.431 C  
HETATM    7  O   UNL     1     -12.755  13.056  63.335  1.00  0.00    -0.694 OA 
BRANCH   6   8
HETATM    8  C   UNL     1     -11.438  14.535  64.742  1.00  0.00    -0.408 C  
BRANCH   8   9
HETATM    9  C   UNL     1     -11.175  14.181  66.187  1.00  0.00    -0.326 A  
HETATM   10  C   UNL     1     -12.075  13.291  66.809  1.00  0.00    -0.403 A  
HETATM   11  C   UNL     1     -11.894  12.886  68.129  1.00  0.00    -0.380 A  
HETATM   12  C   UNL     1     -10.788  13.329  68.840  1.00  0.00    -0.245 A  
HETATM   13  C   UNL     1      -9.901  14.230  68.249  1.00  0.00    -0.235 A  
HETATM   14  C   UNL     1     -10.107  14.709  66.947  1.00  0.00    -0.255 A  
BRANCH  14  15
HETATM   15  N   UNL     1      -9.286  15.751  66.462  1.00  0.00    -0.259 NA 
HETATM   16  H   UNL     1      -8.915  15.587  65.526  1.00  0.00     0.000 HD 
BRANCH  15  17
HETATM   17  C   UNL     1      -8.882  16.991  67.041  1.00  0.00    -0.224 A  
HETATM   18  C   UNL     1      -9.655  18.138  66.729  1.00  0.00    -0.301 A  
HETATM   19  C   UNL     1      -9.469  19.364  67.380  1.00  0.00    -0.397 A  
HETATM   20 CL   UNL     1     -10.889  18.076  65.509  1.00  0.00    -0.108 Cl 
HETATM   21  C   UNL     1      -8.488  19.488  68.353  1.00  0.00    -0.387 A  
HETATM   22  C   UNL     1      -7.649  18.411  68.612  1.00  0.00    -0.321 A  
HETATM   23  C   UNL     1      -7.821  17.178  67.954  1.00  0.00    -0.193 A  
HETATM   24 CL   UNL     1      -6.703  15.950  68.437  1.00  0.00    -0.113 Cl 
ENDBRANCH  15  17
ENDBRANCH  14  15
ENDBRANCH   8   9
ENDBRANCH   6   8
ENDBRANCH   5   6
ENDBRANCH   4   5
TORSDOF 6
ENDMDL
MODEL       88
REMARK 921   NORMALIZED FREE ENERGY PREDICTED BY IDOCK:   -5.61 KCAL/MOL
REMARK 922        TOTAL FREE ENERGY PREDICTED BY IDOCK:   -8.55 KCAL/MOL
REMARK 923 INTER-LIGAND FREE ENERGY PREDICTED BY IDOCK:   -7.83 KCAL/MOL
REMARK 924 INTRA-LIGAND FREE ENERGY PREDICTED BY IDOCK:   -0.72 KCAL/MOL
REMARK 927      BINDING AFFINITY PREDICTED BY RF-SCORE:    0.00 PKD
ROOT
HETATM    1  O   UNL     1     -13.553  13.595  72.547  1.00  0.00    -0.537 OA 
HETATM    2  C   UNL     1     -13.137  14.129  71.372  1.00  0.00    -0.358 C  
HETATM    3  O   UNL     1     -13.445  15.259  71.029  1.00  0.00    -0.465 OA 
HETATM    4  C   UNL     1     -12.266  13.175  70.561  1.00  0.00    -0.328 C  
ENDROOT
BRANCH   4   5
HETATM    5  O   UNL     1     -11.912  13.763  69.302  1.00  0.00    -0.320 OA 
BRANCH   5   6
HETATM    6  C   UNL     1     -12.099  12.985  68.204  1.00  0.00    -0.157 C  
HETATM    7  O   UNL     1     -12.128  11.765  68.203  1.00  0.00    -0.556 OA 
BRANCH   6   8
HETATM    8  C   UNL     1     -12.260  13.853  66.970  1.00  0.00    -0.392 C  
BRANCH   8   9
HETATM    9  C   UNL     1     -11.765  13.210  65.695  1.00  0.00    -0.402 A  
HETATM   10  C   UNL     1     -12.708  12.508  64.917  1.00  0.00    -0.371 A  
HETATM   11  C   UNL     1     -12.348  11.909  63.712  1.00  0.00    -0.541 A  
HETATM   12  C   UNL     1     -11.049  12.035  63.242  1.00  0.00    -0.400 A  
HETATM   13  C   UNL     1     -10.096  12.704  64.012  1.00  0.00    -0.280 A  
HETATM   14  C   UNL     1     -10.420  13.249  65.262  1.00  0.00    -0.313 A  
BRANCH  14  15
HETATM   15  N   UNL     1      -9.385  13.755  66.080  1.00  0.00    -0.503 NA 
HETATM   16  H   UNL     1      -8.711  13.051  66.381  1.00  0.00     0.000 HD 
BRANCH  15  17
HETATM   17  C   UNL     1      -9.110  15.070  66.561  1.00  0.00    -0.286 A  
HETATM   18  C   UNL     1      -8.191  15.191  67.634  1.00  0.00    -0.164 A  
HETATM   19  C   UNL     1      -7.705  16.432  68.063  1.00  0.00    -0.159 A  
HETATM   20 CL   UNL     1      -7.613  13.787  68.475  1.00  0.00    -0.130 Cl 
HETATM   21  C   UNL     1      -8.138  17.596  67.447  1.00  0.00    -0.217 A  
HETATM   22  C   UNL     1      -9.113  17.518  66.458  1.00  0.00    -0.284 A  
HETATM   23  C   UNL     1      -9.616  16.276  66.028  1.00  0.00    -0.337 A  
HETATM   24 CL   UNL     1     -10.795  16.382  64.767  1.00  0.00    -0.329 Cl 
ENDBRANCH  15  17
ENDBRANCH  14  15
ENDBRANCH   8   9
ENDBRANCH   6   8
ENDBRANCH   5   6
ENDBRANCH   4   5
TORSDOF 6
ENDMDL
MODEL       89
REMARK 921   NORMALIZED FREE ENERGY PREDICTED BY IDOCK:   -5.61 KCAL/MOL
REMARK 922        TOTAL FREE ENERGY PREDICTED BY IDOCK:   -8.53 KCAL/MOL
REMARK 923 INTER-LIGAND FREE ENERGY PREDICTED BY IDOCK:   -7.49 KCAL/MOL
REMARK 924 INTRA-LIGAND FREE ENERGY PREDICTED BY IDOCK:   -1.04 KCAL/MOL
REMARK 927      BINDING AFFINITY PREDICTED BY RF-SCORE:    0.00 PKD
ROOT
HETATM    1  O   UNL     1     -10.366   5.550  68.847  1.00  0.00    -0.204 OA 
HETATM    2  C   UNL     1     -10.714   6.448  67.892  1.00  0.00    -0.299 C  
HETATM    3  O   UNL     1     -11.241   6.108  66.845  1.00  0.00    -0.290 OA 
HETATM    4  C   UNL     1     -10.376   7.884  68.275  1.00  0.00    -0.197 C  
ENDROOT
BRANCH   4   5
HETATM    5  O   UNL     1     -10.702   8.781  67.204  1.00  0.00    -0.271 OA 
BRANCH   5   6
HETATM    6  C   UNL     1      -9.677   9.133  66.385  1.00  0.00    -0.262 C  
HETATM    7  O   UNL     1      -9.054   8.367  65.668  1.00  0.00    -0.172 OA 
BRANCH   6   8
HETATM    8  C   UNL     1      -9.410  10.624  66.493  1.00  0.00    -0.192 C  
BRANCH   8   9
HETATM    9  C   UNL     1     -10.485  11.488  65.874  1.00  0.00    -0.303 A  
HETATM   10  C   UNL     1     -10.811  11.246  64.524  1.00  0.00    -0.354 A  
HETATM   11  C   UNL     1     -11.810  11.973  63.881  1.00  0.00    -0.543 A  
HETATM   12  C   UNL     1     -12.529  12.927  64.585  1.00  0.00    -0.499 A  
HETATM   13  C   UNL     1     -12.202  13.197  65.915  1.00  0.00    -0.497 A  
HETATM   14  C   UNL     1     -11.151  12.530  66.559  1.00  0.00    -0.287 A  
BRANCH  14  15
HETATM   15  N   UNL     1     -10.744  12.964  67.840  1.00  0.00    -0.215 NA 
HETATM   16  H   UNL     1      -9.771  12.753  68.061  1.00  0.00     0.000 HD 
BRANCH  15  17
HETATM   17  C   UNL     1     -11.445  13.643  68.881  1.00  0.00    -0.303 A  
HETATM   18  C   UNL     1     -12.027  12.848  69.900  1.00  0.00    -0.307 A  
HETATM   19  C   UNL     1     -12.573  13.406  71.062  1.00  0.00    -0.425 A  
HETATM   20 CL   UNL     1     -12.086  11.119  69.757  1.00  0.00    -0.400 Cl 
HETATM   21  C   UNL     1     -12.575  14.782  71.233  1.00  0.00    -0.403 A  
HETATM   22  C   UNL     1     -12.101  15.595  70.209  1.00  0.00    -0.413 A  
HETATM   23  C   UNL     1     -11.560  15.043  69.033  1.00  0.00    -0.319 A  
HETATM   24 CL   UNL     1     -10.992  16.212  67.892  1.00  0.00    -0.334 Cl 
ENDBRANCH  15  17
ENDBRANCH  14  15
ENDBRANCH   8   9
ENDBRANCH   6   8
ENDBRANCH   5   6
ENDBRANCH   4   5
TORSDOF 6
ENDMDL
MODEL       90
REMARK 921   NORMALIZED FREE ENERGY PREDICTED BY IDOCK:   -5.60 KCAL/MOL
REMARK 922        TOTAL FREE ENERGY PREDICTED BY IDOCK:   -8.52 KCAL/MOL
REMARK 923 INTER-LIGAND FREE ENERGY PREDICTED BY IDOCK:   -7.93 KCAL/MOL
REMARK 924 INTRA-LIGAND FREE ENERGY PREDICTED BY IDOCK:   -0.59 KCAL/MOL
REMARK 927      BINDING AFFINITY PREDICTED BY RF-SCORE:    0.00 PKD
ROOT
HETATM    1  O   UNL     1     -10.000  20.357  67.233  1.00  0.00    -0.435 OA 
HETATM    2  C   UNL     1      -9.589  19.151  66.771  1.00  0.00    -0.331 C  
HETATM    3  O   UNL     1      -8.470  18.718  66.996  1.00  0.00    -0.268 OA 
HETATM    4  C   UNL     1     -10.660  18.426  65.962  1.00  0.00    -0.309 C  
ENDROOT
BRANCH   4   5
HETATM    5  O   UNL     1     -10.151  17.191  65.442  1.00  0.00    -0.571 OA 
BRANCH   5   6
HETATM    6  C   UNL     1     -11.078  16.271  65.070  1.00  0.00    -0.254 C  
HETATM    7  O   UNL     1     -11.883  16.410  64.164  1.00  0.00    -0.901 OA 
BRANCH   6   8
HETATM    8  C   UNL     1     -10.973  15.038  65.950  1.00  0.00    -0.343 C  
BRANCH   8   9
HETATM    9  C   UNL     1      -9.897  15.127  67.007  1.00  0.00    -0.233 A  
HETATM   10  C   UNL     1      -8.563  15.239  66.564  1.00  0.00    -0.264 A  
HETATM   11  C   UNL     1      -7.510  15.356  67.468  1.00  0.00    -0.215 A  
HETATM   12  C   UNL     1      -7.772  15.405  68.830  1.00  0.00    -0.150 A  
HETATM   13  C   UNL     1      -9.084  15.269  69.286  1.00  0.00    -0.240 A  
HETATM   14  C   UNL     1     -10.151  15.075  68.397  1.00  0.00    -0.225 A  
BRANCH  14  15
HETATM   15  N   UNL     1     -11.428  14.763  68.914  1.00  0.00    -0.282 NA 
HETATM   16  H   UNL     1     -12.182  15.335  68.533  1.00  0.00     0.000 HD 
BRANCH  15  17
HETATM   17  C   UNL     1     -11.856  13.796  69.872  1.00  0.00    -0.327 A  
HETATM   18  C   UNL     1     -12.266  14.276  71.142  1.00  0.00    -0.356 A  
HETATM   19  C   UNL     1     -12.877  13.447  72.091  1.00  0.00    -0.314 A  
HETATM   20 CL   UNL     1     -12.030  15.937  71.586  1.00  0.00    -0.502 Cl 
HETATM   21  C   UNL     1     -13.081  12.105  71.808  1.00  0.00    -0.457 A  
HETATM   22  C   UNL     1     -12.601  11.582  70.612  1.00  0.00    -0.337 A  
HETATM   23  C   UNL     1     -11.975  12.406  69.657  1.00  0.00    -0.274 A  
HETATM   24 CL   UNL     1     -11.479  11.581  68.220  1.00  0.00    -0.340 Cl 
ENDBRANCH  15  17
ENDBRANCH  14  15
ENDBRANCH   8   9
ENDBRANCH   6   8
ENDBRANCH   5   6
ENDBRANCH   4   5
TORSDOF 6
ENDMDL
MODEL       91
REMARK 921   NORMALIZED FREE ENERGY PREDICTED BY IDOCK:   -5.59 KCAL/MOL
REMARK 922        TOTAL FREE ENERGY PREDICTED BY IDOCK:   -8.51 KCAL/MOL
REMARK 923 INTER-LIGAND FREE ENERGY PREDICTED BY IDOCK:   -7.51 KCAL/MOL
REMARK 924 INTRA-LIGAND FREE ENERGY PREDICTED BY IDOCK:   -1.00 KCAL/MOL
REMARK 927      BINDING AFFINITY PREDICTED BY RF-SCORE:    0.00 PKD
ROOT
HETATM    1  O   UNL     1      -9.981   8.894  68.824  1.00  0.00    -0.173 OA 
HETATM    2  C   UNL     1     -10.868   9.908  68.977  1.00  0.00    -0.215 C  
HETATM    3  O   UNL     1     -11.286  10.243  70.074  1.00  0.00    -0.260 OA 
HETATM    4  C   UNL     1     -11.265  10.556  67.656  1.00  0.00    -0.265 C  
ENDROOT
BRANCH   4   5
HETATM    5  O   UNL     1     -12.253  11.572  67.869  1.00  0.00    -0.586 OA 
BRANCH   5   6
HETATM    6  C   UNL     1     -11.904  12.833  67.502  1.00  0.00    -0.343 C  
HETATM    7  O   UNL     1     -12.399  13.460  66.580  1.00  0.00    -0.376 OA 
BRANCH   6   8
HETATM    8  C   UNL     1     -10.799  13.352  68.405  1.00  0.00    -0.284 C  
BRANCH   8   9
HETATM    9  C   UNL     1     -11.291  14.204  69.553  1.00  0.00    -0.308 A  
HETATM   10  C   UNL     1     -12.043  13.561  70.558  1.00  0.00    -0.409 A  
HETATM   11  C   UNL     1     -12.510  14.261  71.668  1.00  0.00    -0.419 A  
HETATM   12  C   UNL     1     -12.202  15.606  71.815  1.00  0.00    -0.494 A  
HETATM   13  C   UNL     1     -11.481  16.263  70.817  1.00  0.00    -0.327 A  
HETATM   14  C   UNL     1     -11.065  15.595  69.656  1.00  0.00    -0.299 A  
BRANCH  14  15
HETATM   15  N   UNL     1     -10.500  16.343  68.599  1.00  0.00    -0.274 NA 
HETATM   16  H   UNL     1     -11.057  16.342  67.744  1.00  0.00     0.000 HD 
BRANCH  15  17
HETATM   17  C   UNL     1      -9.292  17.098  68.508  1.00  0.00    -0.274 A  
HETATM   18  C   UNL     1      -9.397  18.442  68.070  1.00  0.00    -0.291 A  
HETATM   19  C   UNL     1      -8.315  19.329  68.119  1.00  0.00    -0.358 A  
HETATM   20 CL   UNL     1     -10.893  19.062  67.445  1.00  0.00    -0.543 Cl 
HETATM   21  C   UNL     1      -7.085  18.895  68.590  1.00  0.00    -0.327 A  
HETATM   22  C   UNL     1      -6.924  17.558  68.935  1.00  0.00    -0.252 A  
HETATM   23  C   UNL     1      -8.003  16.656  68.878  1.00  0.00    -0.236 A  
HETATM   24 CL   UNL     1      -7.615  15.046  69.379  1.00  0.00    -0.194 Cl 
ENDBRANCH  15  17
ENDBRANCH  14  15
ENDBRANCH   8   9
ENDBRANCH   6   8
ENDBRANCH   5   6
ENDBRANCH   4   5
TORSDOF 6
ENDMDL
MODEL       92
REMARK 921   NORMALIZED FREE ENERGY PREDICTED BY IDOCK:   -5.59 KCAL/MOL
REMARK 922        TOTAL FREE ENERGY PREDICTED BY IDOCK:   -8.51 KCAL/MOL
REMARK 923 INTER-LIGAND FREE ENERGY PREDICTED BY IDOCK:   -7.32 KCAL/MOL
REMARK 924 INTRA-LIGAND FREE ENERGY PREDICTED BY IDOCK:   -1.19 KCAL/MOL
REMARK 927      BINDING AFFINITY PREDICTED BY RF-SCORE:    0.00 PKD
ROOT
HETATM    1  O   UNL     1      -5.541  11.888  70.060  1.00  0.00    -0.095 OA 
HETATM    2  C   UNL     1      -6.694  11.190  69.912  1.00  0.00    -0.097 C  
HETATM    3  O   UNL     1      -6.952  10.214  70.598  1.00  0.00    -0.298 OA 
HETATM    4  C   UNL     1      -7.596  11.755  68.821  1.00  0.00    -0.104 C  
ENDROOT
BRANCH   4   5
HETATM    5  O   UNL     1      -8.765  10.941  68.661  1.00  0.00    -0.142 OA 
BRANCH   5   6
HETATM    6  C   UNL     1      -9.147  10.686  67.383  1.00  0.00    -0.139 C  
HETATM    7  O   UNL     1      -8.389  10.526  66.440  1.00  0.00    -0.135 OA 
BRANCH   6   8
HETATM    8  C   UNL     1     -10.662  10.632  67.291  1.00  0.00    -0.338 C  
BRANCH   8   9
HETATM    9  C   UNL     1     -11.287  11.877  66.705  1.00  0.00    -0.393 A  
HETATM   10  C   UNL     1     -11.537  11.883  65.317  1.00  0.00    -0.278 A  
HETATM   11  C   UNL     1     -12.139  12.975  64.697  1.00  0.00    -0.463 A  
HETATM   12  C   UNL     1     -12.539  14.065  65.456  1.00  0.00    -0.543 A  
HETATM   13  C   UNL     1     -12.276  14.087  66.826  1.00  0.00    -0.439 A  
HETATM   14  C   UNL     1     -11.604  13.030  67.458  1.00  0.00    -0.356 A  
BRANCH  14  15
HETATM   15  N   UNL     1     -11.203  13.179  68.804  1.00  0.00    -0.266 NA 
HETATM   16  H   UNL     1     -10.202  13.331  68.926  1.00  0.00     0.000 HD 
BRANCH  15  17
HETATM   17  C   UNL     1     -11.942  13.155  70.025  1.00  0.00    -0.321 A  
HETATM   18  C   UNL     1     -12.329  14.403  70.576  1.00  0.00    -0.345 A  
HETATM   19  C   UNL     1     -13.210  14.499  71.660  1.00  0.00    -0.424 A  
HETATM   20 CL   UNL     1     -11.724  15.892  69.921  1.00  0.00    -0.336 Cl 
HETATM   21  C   UNL     1     -13.718  13.348  72.243  1.00  0.00    -0.705 A  
HETATM   22  C   UNL     1     -13.281  12.107  71.790  1.00  0.00    -0.423 A  
HETATM   23  C   UNL     1     -12.388  12.002  70.707  1.00  0.00    -0.308 A  
HETATM   24 CL   UNL     1     -11.990  10.377  70.267  1.00  0.00    -0.371 Cl 
ENDBRANCH  15  17
ENDBRANCH  14  15
ENDBRANCH   8   9
ENDBRANCH   6   8
ENDBRANCH   5   6
ENDBRANCH   4   5
TORSDOF 6
ENDMDL
MODEL       93
REMARK 921   NORMALIZED FREE ENERGY PREDICTED BY IDOCK:   -5.57 KCAL/MOL
REMARK 922        TOTAL FREE ENERGY PREDICTED BY IDOCK:   -8.48 KCAL/MOL
REMARK 923 INTER-LIGAND FREE ENERGY PREDICTED BY IDOCK:   -7.78 KCAL/MOL
REMARK 924 INTRA-LIGAND FREE ENERGY PREDICTED BY IDOCK:   -0.71 KCAL/MOL
REMARK 927      BINDING AFFINITY PREDICTED BY RF-SCORE:    0.00 PKD
ROOT
HETATM    1  O   UNL     1      -9.669   9.858  64.776  1.00  0.00    -0.309 OA 
HETATM    2  C   UNL     1     -10.048  10.935  64.046  1.00  0.00    -0.358 C  
HETATM    3  O   UNL     1      -9.834  11.013  62.847  1.00  0.00    -0.310 OA 
HETATM    4  C   UNL     1     -10.751  12.001  64.879  1.00  0.00    -0.301 C  
ENDROOT
BRANCH   4   5
HETATM    5  O   UNL     1     -11.068  13.144  64.073  1.00  0.00    -0.384 OA 
BRANCH   5   6
HETATM    6  C   UNL     1     -11.850  14.089  64.657  1.00  0.00    -0.417 C  
HETATM    7  O   UNL     1     -13.048  13.983  64.863  1.00  0.00    -0.693 OA 
BRANCH   6   8
HETATM    8  C   UNL     1     -11.017  15.308  65.012  1.00  0.00    -0.450 C  
BRANCH   8   9
HETATM    9  C   UNL     1     -10.673  15.412  66.480  1.00  0.00    -0.308 A  
HETATM   10  C   UNL     1     -11.519  14.746  67.390  1.00  0.00    -0.376 A  
HETATM   11  C   UNL     1     -11.261  14.762  68.759  1.00  0.00    -0.286 A  
HETATM   12  C   UNL     1     -10.132  15.409  69.240  1.00  0.00    -0.253 A  
HETATM   13  C   UNL     1      -9.298  16.095  68.355  1.00  0.00    -0.206 A  
HETATM   14  C   UNL     1      -9.581  16.154  66.983  1.00  0.00    -0.224 A  
BRANCH  14  15
HETATM   15  N   UNL     1      -8.812  17.007  66.160  1.00  0.00    -0.474 NA 
HETATM   16  H   UNL     1      -8.696  16.670  65.205  1.00  0.00     0.000 HD 
BRANCH  15  17
HETATM   17  C   UNL     1      -8.167  18.253  66.421  1.00  0.00    -0.251 A  
HETATM   18  C   UNL     1      -8.981  19.413  66.452  1.00  0.00    -0.363 A  
HETATM   19  C   UNL     1      -8.495  20.655  66.879  1.00  0.00    -0.202 A  
HETATM   20 CL   UNL     1     -10.643  19.348  65.956  1.00  0.00    -0.583 Cl 
HETATM   21  C   UNL     1      -7.171  20.782  67.272  1.00  0.00    -0.415 A  
HETATM   22  C   UNL     1      -6.322  19.686  67.160  1.00  0.00    -0.203 A  
HETATM   23  C   UNL     1      -6.799  18.437  66.721  1.00  0.00    -0.192 A  
HETATM   24 CL   UNL     1      -5.601  17.190  66.683  1.00  0.00    -0.216 Cl 
ENDBRANCH  15  17
ENDBRANCH  14  15
ENDBRANCH   8   9
ENDBRANCH   6   8
ENDBRANCH   5   6
ENDBRANCH   4   5
TORSDOF 6
ENDMDL
MODEL       94
REMARK 921   NORMALIZED FREE ENERGY PREDICTED BY IDOCK:   -5.56 KCAL/MOL
REMARK 922        TOTAL FREE ENERGY PREDICTED BY IDOCK:   -8.47 KCAL/MOL
REMARK 923 INTER-LIGAND FREE ENERGY PREDICTED BY IDOCK:   -6.91 KCAL/MOL
REMARK 924 INTRA-LIGAND FREE ENERGY PREDICTED BY IDOCK:   -1.56 KCAL/MOL
REMARK 927      BINDING AFFINITY PREDICTED BY RF-SCORE:    0.00 PKD
ROOT
HETATM    1  O   UNL     1     -12.414  15.947  70.968  1.00  0.00    -0.440 OA 
HETATM    2  C   UNL     1     -12.167  15.365  69.769  1.00  0.00    -0.306 C  
HETATM    3  O   UNL     1     -11.847  16.016  68.787  1.00  0.00    -0.375 OA 
HETATM    4  C   UNL     1     -12.335  13.850  69.797  1.00  0.00    -0.275 C  
ENDROOT
BRANCH   4   5
HETATM    5  O   UNL     1     -12.130  13.296  68.490  1.00  0.00    -0.341 OA 
BRANCH   5   6
HETATM    6  C   UNL     1     -11.783  11.983  68.445  1.00  0.00    -0.332 C  
HETATM    7  O   UNL     1     -12.469  11.060  68.854  1.00  0.00    -0.460 OA 
BRANCH   6   8
HETATM    8  C   UNL     1     -10.412  11.826  67.814  1.00  0.00    -0.219 C  
BRANCH   8   9
HETATM    9  C   UNL     1     -10.389  12.068  66.322  1.00  0.00    -0.253 A  
HETATM   10  C   UNL     1     -10.366  10.934  65.484  1.00  0.00    -0.316 A  
HETATM   11  C   UNL     1     -10.374  11.061  64.097  1.00  0.00    -0.434 A  
HETATM   12  C   UNL     1     -10.447  12.321  63.521  1.00  0.00    -0.459 A  
HETATM   13  C   UNL     1     -10.444  13.455  64.336  1.00  0.00    -0.403 A  
HETATM   14  C   UNL     1     -10.361  13.351  65.732  1.00  0.00    -0.293 A  
BRANCH  14  15
HETATM   15  N   UNL     1     -10.180  14.524  66.497  1.00  0.00    -0.273 NA 
HETATM   16  H   UNL     1     -10.976  14.761  67.089  1.00  0.00     0.000 HD 
BRANCH  15  17
HETATM   17  C   UNL     1      -9.088  15.438  66.594  1.00  0.00    -0.279 A  
HETATM   18  C   UNL     1      -9.352  16.801  66.303  1.00  0.00    -0.279 A  
HETATM   19  C   UNL     1      -8.413  17.810  66.542  1.00  0.00    -0.288 A  
HETATM   20 CL   UNL     1     -10.876  17.289  65.630  1.00  0.00    -0.155 Cl 
HETATM   21  C   UNL     1      -7.168  17.488  67.063  1.00  0.00    -0.212 A  
HETATM   22  C   UNL     1      -6.842  16.152  67.267  1.00  0.00    -0.236 A  
HETATM   23  C   UNL     1      -7.777  15.129  67.018  1.00  0.00    -0.123 A  
HETATM   24 CL   UNL     1      -7.199  13.536  67.365  1.00  0.00    -0.158 Cl 
ENDBRANCH  15  17
ENDBRANCH  14  15
ENDBRANCH   8   9
ENDBRANCH   6   8
ENDBRANCH   5   6
ENDBRANCH   4   5
TORSDOF 6
ENDMDL
MODEL       95
REMARK 921   NORMALIZED FREE ENERGY PREDICTED BY IDOCK:   -5.56 KCAL/MOL
REMARK 922        TOTAL FREE ENERGY PREDICTED BY IDOCK:   -8.47 KCAL/MOL
REMARK 923 INTER-LIGAND FREE ENERGY PREDICTED BY IDOCK:   -7.26 KCAL/MOL
REMARK 924 INTRA-LIGAND FREE ENERGY PREDICTED BY IDOCK:   -1.21 KCAL/MOL
REMARK 927      BINDING AFFINITY PREDICTED BY RF-SCORE:    0.00 PKD
ROOT
HETATM    1  O   UNL     1     -11.581  11.354  63.197  1.00  0.00    -0.137 OA 
HETATM    2  C   UNL     1     -10.648  11.795  64.076  1.00  0.00    -0.375 C  
HETATM    3  O   UNL     1      -9.895  12.719  63.812  1.00  0.00    -0.286 OA 
HETATM    4  C   UNL     1     -10.656  11.022  65.390  1.00  0.00    -0.202 C  
ENDROOT
BRANCH   4   5
HETATM    5  O   UNL     1      -9.609  11.483  66.254  1.00  0.00    -0.205 OA 
BRANCH   5   6
HETATM    6  C   UNL     1      -9.937  11.640  67.562  1.00  0.00    -0.187 C  
HETATM    7  O   UNL     1      -9.155  11.927  68.455  1.00  0.00    -0.187 OA 
BRANCH   6   8
HETATM    8  C   UNL     1     -11.423  11.401  67.760  1.00  0.00    -0.353 C  
BRANCH   8   9
HETATM    9  C   UNL     1     -11.939  11.821  69.117  1.00  0.00    -0.356 A  
HETATM   10  C   UNL     1     -12.125  10.808  70.080  1.00  0.00    -0.427 A  
HETATM   11  C   UNL     1     -12.568  11.107  71.366  1.00  0.00    -0.479 A  
HETATM   12  C   UNL     1     -12.794  12.427  71.728  1.00  0.00    -0.350 A  
HETATM   13  C   UNL     1     -12.640  13.440  70.779  1.00  0.00    -0.369 A  
HETATM   14  C   UNL     1     -12.267  13.153  69.458  1.00  0.00    -0.158 A  
BRANCH  14  15
HETATM   15  N   UNL     1     -12.300  14.186  68.496  1.00  0.00    -0.541 NA 
HETATM   16  H   UNL     1     -13.223  14.596  68.357  1.00  0.00     0.000 HD 
BRANCH  15  17
HETATM   17  C   UNL     1     -11.277  14.760  67.682  1.00  0.00    -0.323 A  
HETATM   18  C   UNL     1     -11.499  14.788  66.282  1.00  0.00    -0.316 A  
HETATM   19  C   UNL     1     -10.660  15.488  65.407  1.00  0.00    -0.428 A  
HETATM   20 CL   UNL     1     -12.843  13.947  65.576  1.00  0.00    -0.537 Cl 
HETATM   21  C   UNL     1      -9.557  16.168  65.902  1.00  0.00    -0.359 A  
HETATM   22  C   UNL     1      -9.256  16.079  67.257  1.00  0.00    -0.215 A  
HETATM   23  C   UNL     1     -10.089  15.368  68.142  1.00  0.00    -0.222 A  
HETATM   24 CL   UNL     1      -9.569  15.402  69.792  1.00  0.00    -0.248 Cl 
ENDBRANCH  15  17
ENDBRANCH  14  15
ENDBRANCH   8   9
ENDBRANCH   6   8
ENDBRANCH   5   6
ENDBRANCH   4   5
TORSDOF 6
ENDMDL
MODEL       96
REMARK 921   NORMALIZED FREE ENERGY PREDICTED BY IDOCK:   -5.55 KCAL/MOL
REMARK 922        TOTAL FREE ENERGY PREDICTED BY IDOCK:   -8.46 KCAL/MOL
REMARK 923 INTER-LIGAND FREE ENERGY PREDICTED BY IDOCK:   -7.47 KCAL/MOL
REMARK 924 INTRA-LIGAND FREE ENERGY PREDICTED BY IDOCK:   -0.99 KCAL/MOL
REMARK 927      BINDING AFFINITY PREDICTED BY RF-SCORE:    0.00 PKD
ROOT
HETATM    1  O   UNL     1      -9.999   9.349  70.467  1.00  0.00    -0.230 OA 
HETATM    2  C   UNL     1     -11.029  10.000  69.874  1.00  0.00    -0.293 C  
HETATM    3  O   UNL     1     -12.088  10.199  70.449  1.00  0.00    -0.272 OA 
HETATM    4  C   UNL     1     -10.715  10.436  68.447  1.00  0.00    -0.225 C  
ENDROOT
BRANCH   4   5
HETATM    5  O   UNL     1     -11.859  11.056  67.845  1.00  0.00    -0.600 OA 
BRANCH   5   6
HETATM    6  C   UNL     1     -11.676  12.315  67.368  1.00  0.00    -0.335 C  
HETATM    7  O   UNL     1     -12.257  12.795  66.408  1.00  0.00    -0.507 OA 
BRANCH   6   8
HETATM    8  C   UNL     1     -10.635  13.042  68.199  1.00  0.00    -0.257 C  
BRANCH   8   9
HETATM    9  C   UNL     1     -11.214  14.035  69.181  1.00  0.00    -0.308 A  
HETATM   10  C   UNL     1     -12.338  13.625  69.927  1.00  0.00    -0.310 A  
HETATM   11  C   UNL     1     -12.918  14.463  70.876  1.00  0.00    -0.413 A  
HETATM   12  C   UNL     1     -12.364  15.710  71.127  1.00  0.00    -0.482 A  
HETATM   13  C   UNL     1     -11.267  16.141  70.379  1.00  0.00    -0.394 A  
HETATM   14  C   UNL     1     -10.713  15.344  69.367  1.00  0.00    -0.258 A  
BRANCH  14  15
HETATM   15  N   UNL     1      -9.725  15.895  68.522  1.00  0.00    -0.207 NA 
HETATM   16  H   UNL     1      -9.621  15.409  67.631  1.00  0.00     0.000 HD 
BRANCH  15  17
HETATM   17  C   UNL     1      -8.845  17.007  68.686  1.00  0.00    -0.267 A  
HETATM   18  C   UNL     1      -7.547  16.740  69.192  1.00  0.00    -0.181 A  
HETATM   19  C   UNL     1      -6.543  17.715  69.220  1.00  0.00    -0.233 A  
HETATM   20 CL   UNL     1      -7.135  15.169  69.805  1.00  0.00    -0.188 Cl 
HETATM   21  C   UNL     1      -6.809  18.996  68.761  1.00  0.00    -0.332 A  
HETATM   22  C   UNL     1      -8.099  19.317  68.352  1.00  0.00    -0.378 A  
HETATM   23  C   UNL     1      -9.118  18.346  68.331  1.00  0.00    -0.320 A  
HETATM   24 CL   UNL     1     -10.644  18.926  67.757  1.00  0.00    -0.479 Cl 
ENDBRANCH  15  17
ENDBRANCH  14  15
ENDBRANCH   8   9
ENDBRANCH   6   8
ENDBRANCH   5   6
ENDBRANCH   4   5
TORSDOF 6
ENDMDL
MODEL       97
REMARK 921   NORMALIZED FREE ENERGY PREDICTED BY IDOCK:   -5.55 KCAL/MOL
REMARK 922        TOTAL FREE ENERGY PREDICTED BY IDOCK:   -8.45 KCAL/MOL
REMARK 923 INTER-LIGAND FREE ENERGY PREDICTED BY IDOCK:   -7.11 KCAL/MOL
REMARK 924 INTRA-LIGAND FREE ENERGY PREDICTED BY IDOCK:   -1.35 KCAL/MOL
REMARK 927      BINDING AFFINITY PREDICTED BY RF-SCORE:    0.00 PKD
ROOT
HETATM    1  O   UNL     1     -13.234  12.278  63.104  1.00  0.00    -0.506 OA 
HETATM    2  C   UNL     1     -12.434  12.539  64.167  1.00  0.00    -0.430 C  
HETATM    3  O   UNL     1     -12.849  13.107  65.165  1.00  0.00    -0.669 OA 
HETATM    4  C   UNL     1     -11.003  12.055  63.968  1.00  0.00    -0.381 C  
ENDROOT
BRANCH   4   5
HETATM    5  O   UNL     1     -10.187  12.417  65.090  1.00  0.00    -0.278 OA 
BRANCH   5   6
HETATM    6  C   UNL     1      -9.879  11.415  65.955  1.00  0.00    -0.226 C  
HETATM    7  O   UNL     1     -10.030  10.224  65.735  1.00  0.00    -0.242 OA 
BRANCH   6   8
HETATM    8  C   UNL     1      -9.323  11.991  67.245  1.00  0.00    -0.180 C  
BRANCH   8   9
HETATM    9  C   UNL     1     -10.370  12.257  68.302  1.00  0.00    -0.227 A  
HETATM   10  C   UNL     1     -10.644  11.219  69.216  1.00  0.00    -0.187 A  
HETATM   11  C   UNL     1     -11.571  11.386  70.242  1.00  0.00    -0.334 A  
HETATM   12  C   UNL     1     -12.212  12.606  70.399  1.00  0.00    -0.368 A  
HETATM   13  C   UNL     1     -11.972  13.636  69.488  1.00  0.00    -0.397 A  
HETATM   14  C   UNL     1     -11.099  13.463  68.404  1.00  0.00    -0.273 A  
BRANCH  14  15
HETATM   15  N   UNL     1     -11.028  14.467  67.413  1.00  0.00    -0.295 NA 
HETATM   16  H   UNL     1     -11.611  14.287  66.596  1.00  0.00     0.000 HD 
BRANCH  15  17
HETATM   17  C   UNL     1     -10.290  15.687  67.346  1.00  0.00    -0.275 A  
HETATM   18  C   UNL     1     -10.462  16.489  66.189  1.00  0.00    -0.294 A  
HETATM   19  C   UNL     1      -9.939  17.784  66.094  1.00  0.00    -0.283 A  
HETATM   20 CL   UNL     1     -11.345  15.896  64.817  1.00  0.00    -0.369 Cl 
HETATM   21  C   UNL     1      -9.208  18.314  67.147  1.00  0.00    -0.264 A  
HETATM   22  C   UNL     1      -8.938  17.517  68.255  1.00  0.00    -0.267 A  
HETATM   23  C   UNL     1      -9.450  16.210  68.353  1.00  0.00    -0.210 A  
HETATM   24 CL   UNL     1      -9.036  15.390  69.819  1.00  0.00    -0.155 Cl 
ENDBRANCH  15  17
ENDBRANCH  14  15
ENDBRANCH   8   9
ENDBRANCH   6   8
ENDBRANCH   5   6
ENDBRANCH   4   5
TORSDOF 6
ENDMDL
MODEL       98
REMARK 921   NORMALIZED FREE ENERGY PREDICTED BY IDOCK:   -5.53 KCAL/MOL
REMARK 922        TOTAL FREE ENERGY PREDICTED BY IDOCK:   -8.44 KCAL/MOL
REMARK 923 INTER-LIGAND FREE ENERGY PREDICTED BY IDOCK:   -7.24 KCAL/MOL
REMARK 924 INTRA-LIGAND FREE ENERGY PREDICTED BY IDOCK:   -1.19 KCAL/MOL
REMARK 927      BINDING AFFINITY PREDICTED BY RF-SCORE:    0.00 PKD
ROOT
HETATM    1  O   UNL     1     -12.646  13.834  63.001  1.00  0.00    -0.721 OA 
HETATM    2  C   UNL     1     -12.406  12.746  63.773  1.00  0.00    -0.446 C  
HETATM    3  O   UNL     1     -13.253  12.281  64.519  1.00  0.00    -0.799 OA 
HETATM    4  C   UNL     1     -10.995  12.194  63.601  1.00  0.00    -0.461 C  
ENDROOT
BRANCH   4   5
HETATM    5  O   UNL     1     -10.773  11.090  64.489  1.00  0.00    -0.341 OA 
BRANCH   5   6
HETATM    6  C   UNL     1      -9.680  10.325  64.232  1.00  0.00    -0.308 C  
HETATM    7  O   UNL     1      -9.158  10.188  63.137  1.00  0.00    -0.229 OA 
BRANCH   6   8
HETATM    8  C   UNL     1      -9.200   9.656  65.507  1.00  0.00    -0.291 C  
BRANCH   8   9
HETATM    9  C   UNL     1      -8.479  10.584  66.456  1.00  0.00    -0.139 A  
HETATM   10  C   UNL     1      -7.085  10.723  66.291  1.00  0.00    -0.134 A  
HETATM   11  C   UNL     1      -6.344  11.580  67.100  1.00  0.00    -0.124 A  
HETATM   12  C   UNL     1      -6.985  12.345  68.063  1.00  0.00    -0.097 A  
HETATM   13  C   UNL     1      -8.360  12.202  68.258  1.00  0.00    -0.172 A  
HETATM   14  C   UNL     1      -9.113  11.289  67.504  1.00  0.00    -0.151 A  
BRANCH  14  15
HETATM   15  N   UNL     1     -10.459  11.051  67.860  1.00  0.00    -0.183 NA 
HETATM   16  H   UNL     1     -11.116  11.140  67.085  1.00  0.00     0.000 HD 
BRANCH  15  17
HETATM   17  C   UNL     1     -11.067  10.709  69.105  1.00  0.00    -0.255 A  
HETATM   18  C   UNL     1     -11.820  11.718  69.759  1.00  0.00    -0.349 A  
HETATM   19  C   UNL     1     -12.610  11.447  70.883  1.00  0.00    -0.453 A  
HETATM   20 CL   UNL     1     -11.800  13.357  69.189  1.00  0.00    -0.366 Cl 
HETATM   21  C   UNL     1     -12.659  10.162  71.402  1.00  0.00    -0.526 A  
HETATM   22  C   UNL     1     -11.856   9.173  70.843  1.00  0.00    -0.327 A  
HETATM   23  C   UNL     1     -11.050   9.439  69.721  1.00  0.00    -0.172 A  
HETATM   24 CL   UNL     1     -10.152   8.075  69.149  1.00  0.00    -0.196 Cl 
ENDBRANCH  15  17
ENDBRANCH  14  15
ENDBRANCH   8   9
ENDBRANCH   6   8
ENDBRANCH   5   6
ENDBRANCH   4   5
TORSDOF 6
ENDMDL
MODEL       99
REMARK 921   NORMALIZED FREE ENERGY PREDICTED BY IDOCK:   -5.53 KCAL/MOL
REMARK 922        TOTAL FREE ENERGY PREDICTED BY IDOCK:   -8.43 KCAL/MOL
REMARK 923 INTER-LIGAND FREE ENERGY PREDICTED BY IDOCK:   -7.68 KCAL/MOL
REMARK 924 INTRA-LIGAND FREE ENERGY PREDICTED BY IDOCK:   -0.76 KCAL/MOL
REMARK 927      BINDING AFFINITY PREDICTED BY RF-SCORE:    0.00 PKD
ROOT
HETATM    1  O   UNL     1     -13.535  16.238  73.387  1.00  0.00    -0.598 OA 
HETATM    2  C   UNL     1     -13.149  14.940  73.326  1.00  0.00    -0.469 C  
HETATM    3  O   UNL     1     -12.256  14.496  74.030  1.00  0.00    -0.395 OA 
HETATM    4  C   UNL     1     -13.942  14.131  72.306  1.00  0.00    -0.548 C  
ENDROOT
BRANCH   4   5
HETATM    5  O   UNL     1     -13.449  12.786  72.235  1.00  0.00    -0.565 OA 
BRANCH   5   6
HETATM    6  C   UNL     1     -12.763  12.459  71.109  1.00  0.00    -0.240 C  
HETATM    7  O   UNL     1     -12.149  13.244  70.406  1.00  0.00    -0.348 OA 
BRANCH   6   8
HETATM    8  C   UNL     1     -12.875  10.968  70.845  1.00  0.00    -0.393 C  
BRANCH   8   9
HETATM    9  C   UNL     1     -11.636  10.357  70.231  1.00  0.00    -0.410 A  
HETATM   10  C   UNL     1     -11.351  10.685  68.890  1.00  0.00    -0.337 A  
HETATM   11  C   UNL     1     -10.214  10.192  68.252  1.00  0.00    -0.192 A  
HETATM   12  C   UNL     1      -9.321   9.396  68.955  1.00  0.00    -0.154 A  
HETATM   13  C   UNL     1      -9.601   9.042  70.275  1.00  0.00    -0.230 A  
HETATM   14  C   UNL     1     -10.777   9.465  70.912  1.00  0.00    -0.323 A  
BRANCH  14  15
HETATM   15  N   UNL     1     -11.100   8.934  72.180  1.00  0.00    -0.343 NA 
HETATM   16  H   UNL     1     -11.499   9.615  72.827  1.00  0.00     0.000 HD 
BRANCH  15  17
HETATM   17  C   UNL     1     -10.971   7.620  72.722  1.00  0.00    -0.377 A  
HETATM   18  C   UNL     1     -11.963   6.670  72.368  1.00  0.00    -0.146 A  
HETATM   19  C   UNL     1     -11.842   5.312  72.684  1.00  0.00    -0.107 A  
HETATM   20 CL   UNL     1     -13.393   7.153  71.511  1.00  0.00    -0.434 Cl 
HETATM   21  C   UNL     1     -10.733   4.861  73.383  1.00  0.00    -0.329 A  
HETATM   22  C   UNL     1      -9.791   5.781  73.830  1.00  0.00    -0.183 A  
HETATM   23  C   UNL     1      -9.911   7.150  73.526  1.00  0.00    -0.280 A  
HETATM   24 CL   UNL     1      -8.624   8.132  74.139  1.00  0.00    -0.275 Cl 
ENDBRANCH  15  17
ENDBRANCH  14  15
ENDBRANCH   8   9
ENDBRANCH   6   8
ENDBRANCH   5   6
ENDBRANCH   4   5
TORSDOF 6
ENDMDL
MODEL      100
REMARK 921   NORMALIZED FREE ENERGY PREDICTED BY IDOCK:   -5.53 KCAL/MOL
REMARK 922        TOTAL FREE ENERGY PREDICTED BY IDOCK:   -8.43 KCAL/MOL
REMARK 923 INTER-LIGAND FREE ENERGY PREDICTED BY IDOCK:   -7.80 KCAL/MOL
REMARK 924 INTRA-LIGAND FREE ENERGY PREDICTED BY IDOCK:   -0.63 KCAL/MOL
REMARK 927      BINDING AFFINITY PREDICTED BY RF-SCORE:    0.00 PKD
ROOT
HETATM    1  O   UNL     1     -12.556  13.864  63.261  1.00  0.00    -0.824 OA 
HETATM    2  C   UNL     1     -12.292  12.570  63.566  1.00  0.00    -0.525 C  
HETATM    3  O   UNL     1     -13.180  11.762  63.788  1.00  0.00    -0.546 OA 
HETATM    4  C   UNL     1     -10.799  12.259  63.597  1.00  0.00    -0.469 C  
ENDROOT
BRANCH   4   5
HETATM    5  O   UNL     1     -10.576  10.898  63.991  1.00  0.00    -0.372 OA 
BRANCH   5   6
HETATM    6  C   UNL     1      -9.888  10.715  65.148  1.00  0.00    -0.284 C  
HETATM    7  O   UNL     1      -9.638   9.633  65.655  1.00  0.00    -0.233 OA 
BRANCH   6   8
HETATM    8  C   UNL     1      -9.476  12.056  65.729  1.00  0.00    -0.186 C  
BRANCH   8   9
HETATM    9  C   UNL     1     -10.281  12.477  66.937  1.00  0.00    -0.237 A  
HETATM   10  C   UNL     1     -11.256  11.575  67.409  1.00  0.00    -0.367 A  
HETATM   11  C   UNL     1     -12.023  11.867  68.535  1.00  0.00    -0.273 A  
HETATM   12  C   UNL     1     -11.803  13.045  69.233  1.00  0.00    -0.370 A  
HETATM   13  C   UNL     1     -10.859  13.960  68.764  1.00  0.00    -0.282 A  
HETATM   14  C   UNL     1     -10.129  13.720  67.591  1.00  0.00    -0.242 A  
BRANCH  14  15
HETATM   15  N   UNL     1      -9.322  14.752  67.062  1.00  0.00    -0.223 NA 
HETATM   16  H   UNL     1      -8.476  14.421  66.598  1.00  0.00     0.000 HD 
BRANCH  15  17
HETATM   17  C   UNL     1      -9.473  16.171  67.059  1.00  0.00    -0.222 A  
HETATM   18  C   UNL     1      -8.810  16.897  68.081  1.00  0.00    -0.223 A  
HETATM   19  C   UNL     1      -8.732  18.295  68.072  1.00  0.00    -0.287 A  
HETATM   20 CL   UNL     1      -8.051  16.077  69.409  1.00  0.00    -0.204 Cl 
HETATM   21  C   UNL     1      -9.332  19.015  67.050  1.00  0.00    -0.345 A  
HETATM   22  C   UNL     1     -10.073  18.338  66.086  1.00  0.00    -0.354 A  
HETATM   23  C   UNL     1     -10.166  16.934  66.094  1.00  0.00    -0.341 A  
HETATM   24 CL   UNL     1     -11.100  16.274  64.796  1.00  0.00    -0.391 Cl 
ENDBRANCH  15  17
ENDBRANCH  14  15
ENDBRANCH   8   9
ENDBRANCH   6   8
ENDBRANCH   5   6
ENDBRANCH   4   5
TORSDOF 6
ENDMDL
MODEL      101
REMARK 921   NORMALIZED FREE ENERGY PREDICTED BY IDOCK:   -5.52 KCAL/MOL
REMARK 922        TOTAL FREE ENERGY PREDICTED BY IDOCK:   -8.41 KCAL/MOL
REMARK 923 INTER-LIGAND FREE ENERGY PREDICTED BY IDOCK:   -7.51 KCAL/MOL
REMARK 924 INTRA-LIGAND FREE ENERGY PREDICTED BY IDOCK:   -0.91 KCAL/MOL
REMARK 927      BINDING AFFINITY PREDICTED BY RF-SCORE:    0.00 PKD
ROOT
HETATM    1  O   UNL     1     -11.195  16.336  64.210  1.00  0.00    -0.770 OA 
HETATM    2  C   UNL     1     -11.859  15.186  64.481  1.00  0.00    -0.330 C  
HETATM    3  O   UNL     1     -12.556  14.629  63.647  1.00  0.00    -0.773 OA 
HETATM    4  C   UNL     1     -11.637  14.692  65.906  1.00  0.00    -0.327 C  
ENDROOT
BRANCH   4   5
HETATM    5  O   UNL     1     -12.414  13.514  66.158  1.00  0.00    -0.417 OA 
BRANCH   5   6
HETATM    6  C   UNL     1     -11.714  12.381  66.428  1.00  0.00    -0.391 C  
HETATM    7  O   UNL     1     -11.284  11.603  65.591  1.00  0.00    -0.292 OA 
BRANCH   6   8
HETATM    8  C   UNL     1     -11.547  12.215  67.928  1.00  0.00    -0.413 C  
BRANCH   8   9
HETATM    9  C   UNL     1     -10.189  11.697  68.342  1.00  0.00    -0.211 A  
HETATM   10  C   UNL     1      -9.066  12.472  67.986  1.00  0.00    -0.200 A  
HETATM   11  C   UNL     1      -7.779  12.088  68.352  1.00  0.00    -0.138 A  
HETATM   12  C   UNL     1      -7.591  10.945  69.117  1.00  0.00    -0.133 A  
HETATM   13  C   UNL     1      -8.689  10.153  69.456  1.00  0.00    -0.189 A  
HETATM   14  C   UNL     1      -9.986  10.482  69.034  1.00  0.00    -0.211 A  
BRANCH  14  15
HETATM   15  N   UNL     1     -11.032   9.558  69.249  1.00  0.00    -0.373 NA 
HETATM   16  H   UNL     1     -11.966   9.965  69.187  1.00  0.00     0.000 HD 
BRANCH  15  17
HETATM   17  C   UNL     1     -11.023   8.160  69.536  1.00  0.00    -0.047 A  
HETATM   18  C   UNL     1     -10.639   7.283  68.489  1.00  0.00    -0.175 A  
HETATM   19  C   UNL     1     -10.414   5.918  68.704  1.00  0.00    -0.302 A  
HETATM   20 CL   UNL     1     -10.425   7.870  66.869  1.00  0.00    -0.412 Cl 
HETATM   21  C   UNL     1     -10.584   5.380  69.970  1.00  0.00    -0.354 A  
HETATM   22  C   UNL     1     -11.054   6.193  70.996  1.00  0.00    -0.359 A  
HETATM   23  C   UNL     1     -11.294   7.564  70.787  1.00  0.00    -0.280 A  
HETATM   24 CL   UNL     1     -11.841   8.415  72.190  1.00  0.00    -0.412 Cl 
ENDBRANCH  15  17
ENDBRANCH  14  15
ENDBRANCH   8   9
ENDBRANCH   6   8
ENDBRANCH   5   6
ENDBRANCH   4   5
TORSDOF 6
ENDMDL
MODEL      102
REMARK 921   NORMALIZED FREE ENERGY PREDICTED BY IDOCK:   -5.49 KCAL/MOL
REMARK 922        TOTAL FREE ENERGY PREDICTED BY IDOCK:   -8.38 KCAL/MOL
REMARK 923 INTER-LIGAND FREE ENERGY PREDICTED BY IDOCK:   -7.32 KCAL/MOL
REMARK 924 INTRA-LIGAND FREE ENERGY PREDICTED BY IDOCK:   -1.06 KCAL/MOL
REMARK 927      BINDING AFFINITY PREDICTED BY RF-SCORE:    0.00 PKD
ROOT
HETATM    1  O   UNL     1     -10.123   4.639  66.410  1.00  0.00    -0.220 OA 
HETATM    2  C   UNL     1      -9.883   5.839  66.993  1.00  0.00    -0.151 C  
HETATM    3  O   UNL     1      -8.963   6.559  66.638  1.00  0.00    -0.128 OA 
HETATM    4  C   UNL     1     -10.869   6.167  68.108  1.00  0.00    -0.306 C  
ENDROOT
BRANCH   4   5
HETATM    5  O   UNL     1     -10.529   7.412  68.733  1.00  0.00    -0.203 OA 
BRANCH   5   6
HETATM    6  C   UNL     1      -9.949   7.327  69.959  1.00  0.00    -0.184 C  
HETATM    7  O   UNL     1      -9.645   6.289  70.524  1.00  0.00    -0.164 OA 
BRANCH   6   8
HETATM    8  C   UNL     1      -9.736   8.716  70.532  1.00  0.00    -0.210 C  
BRANCH   8   9
HETATM    9  C   UNL     1     -11.014   9.426  70.917  1.00  0.00    -0.391 A  
HETATM   10  C   UNL     1     -11.904   8.739  71.768  1.00  0.00    -0.414 A  
HETATM   11  C   UNL     1     -13.090   9.328  72.198  1.00  0.00    -0.520 A  
HETATM   12  C   UNL     1     -13.391  10.629  71.819  1.00  0.00    -0.437 A  
HETATM   13  C   UNL     1     -12.534  11.313  70.956  1.00  0.00    -0.503 A  
HETATM   14  C   UNL     1     -11.372  10.712  70.452  1.00  0.00    -0.304 A  
BRANCH  14  15
HETATM   15  N   UNL     1     -10.636  11.377  69.446  1.00  0.00    -0.424 NA 
HETATM   16  H   UNL     1      -9.626  11.256  69.521  1.00  0.00     0.000 HD 
BRANCH  15  17
HETATM   17  C   UNL     1     -11.048  12.186  68.345  1.00  0.00    -0.245 A  
HETATM   18  C   UNL     1     -11.157  11.556  67.079  1.00  0.00    -0.307 A  
HETATM   19  C   UNL     1     -11.726  12.198  65.973  1.00  0.00    -0.388 A  
HETATM   20 CL   UNL     1     -10.586   9.935  66.839  1.00  0.00    -0.277 Cl 
HETATM   21  C   UNL     1     -12.187  13.501  66.090  1.00  0.00    -0.484 A  
HETATM   22  C   UNL     1     -12.005  14.180  67.290  1.00  0.00    -0.449 A  
HETATM   23  C   UNL     1     -11.424  13.546  68.404  1.00  0.00    -0.311 A  
HETATM   24 CL   UNL     1     -11.315  14.542  69.815  1.00  0.00    -0.300 Cl 
ENDBRANCH  15  17
ENDBRANCH  14  15
ENDBRANCH   8   9
ENDBRANCH   6   8
ENDBRANCH   5   6
ENDBRANCH   4   5
TORSDOF 6
ENDMDL
MODEL      103
REMARK 921   NORMALIZED FREE ENERGY PREDICTED BY IDOCK:   -5.49 KCAL/MOL
REMARK 922        TOTAL FREE ENERGY PREDICTED BY IDOCK:   -8.37 KCAL/MOL
REMARK 923 INTER-LIGAND FREE ENERGY PREDICTED BY IDOCK:   -7.58 KCAL/MOL
REMARK 924 INTRA-LIGAND FREE ENERGY PREDICTED BY IDOCK:   -0.79 KCAL/MOL
REMARK 927      BINDING AFFINITY PREDICTED BY RF-SCORE:    0.00 PKD
ROOT
HETATM    1  O   UNL     1     -12.001   5.968  72.161  1.00  0.00    -0.309 OA 
HETATM    2  C   UNL     1     -12.364   7.253  71.930  1.00  0.00    -0.312 C  
HETATM    3  O   UNL     1     -13.498   7.555  71.590  1.00  0.00    -0.362 OA 
HETATM    4  C   UNL     1     -11.223   8.242  72.140  1.00  0.00    -0.345 C  
ENDROOT
BRANCH   4   5
HETATM    5  O   UNL     1     -11.643   9.574  71.817  1.00  0.00    -0.385 OA 
BRANCH   5   6
HETATM    6  C   UNL     1     -11.101  10.117  70.696  1.00  0.00    -0.322 C  
HETATM    7  O   UNL     1      -9.952   9.954  70.319  1.00  0.00    -0.254 OA 
BRANCH   6   8
HETATM    8  C   UNL     1     -12.133  10.967  69.976  1.00  0.00    -0.441 C  
BRANCH   8   9
HETATM    9  C   UNL     1     -12.287  12.360  70.543  1.00  0.00    -0.346 A  
HETATM   10  C   UNL     1     -13.225  12.534  71.581  1.00  0.00    -0.381 A  
HETATM   11  C   UNL     1     -13.412  13.776  72.183  1.00  0.00    -0.596 A  
HETATM   12  C   UNL     1     -12.637  14.857  71.789  1.00  0.00    -0.398 A  
HETATM   13  C   UNL     1     -11.722  14.708  70.746  1.00  0.00    -0.336 A  
HETATM   14  C   UNL     1     -11.571  13.485  70.076  1.00  0.00    -0.164 A  
BRANCH  14  15
HETATM   15  N   UNL     1     -10.768  13.433  68.915  1.00  0.00    -0.352 NA 
HETATM   16  H   UNL     1     -10.331  12.526  68.752  1.00  0.00     0.000 HD 
BRANCH  15  17
HETATM   17  C   UNL     1     -10.455  14.417  67.930  1.00  0.00    -0.239 A  
HETATM   18  C   UNL     1      -9.314  15.228  68.159  1.00  0.00    -0.198 A  
HETATM   19  C   UNL     1      -8.805  16.092  67.182  1.00  0.00    -0.218 A  
HETATM   20 CL   UNL     1      -8.480  15.183  69.680  1.00  0.00    -0.152 Cl 
HETATM   21  C   UNL     1      -9.434  16.191  65.950  1.00  0.00    -0.337 A  
HETATM   22  C   UNL     1     -10.611  15.484  65.729  1.00  0.00    -0.370 A  
HETATM   23  C   UNL     1     -11.136  14.620  66.709  1.00  0.00    -0.335 A  
HETATM   24 CL   UNL     1     -12.585  13.803  66.237  1.00  0.00    -0.431 Cl 
ENDBRANCH  15  17
ENDBRANCH  14  15
ENDBRANCH   8   9
ENDBRANCH   6   8
ENDBRANCH   5   6
ENDBRANCH   4   5
TORSDOF 6
ENDMDL
MODEL      104
REMARK 921   NORMALIZED FREE ENERGY PREDICTED BY IDOCK:   -5.48 KCAL/MOL
REMARK 922        TOTAL FREE ENERGY PREDICTED BY IDOCK:   -8.37 KCAL/MOL
REMARK 923 INTER-LIGAND FREE ENERGY PREDICTED BY IDOCK:   -7.29 KCAL/MOL
REMARK 924 INTRA-LIGAND FREE ENERGY PREDICTED BY IDOCK:   -1.07 KCAL/MOL
REMARK 927      BINDING AFFINITY PREDICTED BY RF-SCORE:    0.00 PKD
ROOT
HETATM    1  O   UNL     1      -7.763   9.446  65.155  1.00  0.00    -0.104 OA 
HETATM    2  C   UNL     1      -8.352  10.539  65.698  1.00  0.00    -0.167 C  
HETATM    3  O   UNL     1      -9.300  11.095  65.166  1.00  0.00    -0.217 OA 
HETATM    4  C   UNL     1      -7.707  10.974  67.009  1.00  0.00    -0.134 C  
ENDROOT
BRANCH   4   5
HETATM    5  O   UNL     1      -8.324  12.170  67.503  1.00  0.00    -0.148 OA 
BRANCH   5   6
HETATM    6  C   UNL     1      -7.565  13.296  67.459  1.00  0.00    -0.164 C  
HETATM    7  O   UNL     1      -6.352  13.323  67.328  1.00  0.00    -0.284 OA 
BRANCH   6   8
HETATM    8  C   UNL     1      -8.445  14.525  67.605  1.00  0.00    -0.189 C  
BRANCH   8   9
HETATM    9  C   UNL     1      -9.853  14.338  67.090  1.00  0.00    -0.252 A  
HETATM   10  C   UNL     1     -10.109  14.717  65.757  1.00  0.00    -0.364 A  
HETATM   11  C   UNL     1     -11.371  14.552  65.189  1.00  0.00    -0.366 A  
HETATM   12  C   UNL     1     -12.389  13.968  65.928  1.00  0.00    -0.515 A  
HETATM   13  C   UNL     1     -12.159  13.611  67.258  1.00  0.00    -0.385 A  
HETATM   14  C   UNL     1     -10.919  13.837  67.872  1.00  0.00    -0.253 A  
BRANCH  14  15
HETATM   15  N   UNL     1     -10.793  13.626  69.263  1.00  0.00    -0.422 NA 
HETATM   16  H   UNL     1      -9.900  13.221  69.543  1.00  0.00     0.000 HD 
BRANCH  15  17
HETATM   17  C   UNL     1     -11.687  13.875  70.348  1.00  0.00    -0.199 A  
HETATM   18  C   UNL     1     -11.927  15.229  70.694  1.00  0.00    -0.343 A  
HETATM   19  C   UNL     1     -12.919  15.600  71.610  1.00  0.00    -0.551 A  
HETATM   20 CL   UNL     1     -10.993  16.510  69.987  1.00  0.00    -0.325 Cl 
HETATM   21  C   UNL     1     -13.691  14.626  72.225  1.00  0.00    -0.565 A  
HETATM   22  C   UNL     1     -13.414  13.285  71.982  1.00  0.00    -0.596 A  
HETATM   23  C   UNL     1     -12.411  12.903  71.071  1.00  0.00    -0.283 A  
HETATM   24 CL   UNL     1     -12.239  11.193  70.876  1.00  0.00    -0.469 Cl 
ENDBRANCH  15  17
ENDBRANCH  14  15
ENDBRANCH   8   9
ENDBRANCH   6   8
ENDBRANCH   5   6
ENDBRANCH   4   5
TORSDOF 6
ENDMDL
MODEL      105
REMARK 921   NORMALIZED FREE ENERGY PREDICTED BY IDOCK:   -5.48 KCAL/MOL
REMARK 922        TOTAL FREE ENERGY PREDICTED BY IDOCK:   -8.36 KCAL/MOL
REMARK 923 INTER-LIGAND FREE ENERGY PREDICTED BY IDOCK:   -7.33 KCAL/MOL
REMARK 924 INTRA-LIGAND FREE ENERGY PREDICTED BY IDOCK:   -1.03 KCAL/MOL
REMARK 927      BINDING AFFINITY PREDICTED BY RF-SCORE:    0.00 PKD
ROOT
HETATM    1  O   UNL     1     -12.911  14.520  70.993  1.00  0.00    -0.332 OA 
HETATM    2  C   UNL     1     -13.415  13.506  71.738  1.00  0.00    -0.380 C  
HETATM    3  O   UNL     1     -14.228  13.698  72.628  1.00  0.00    -0.735 OA 
HETATM    4  C   UNL     1     -12.859  12.143  71.341  1.00  0.00    -0.276 C  
ENDROOT
BRANCH   4   5
HETATM    5  O   UNL     1     -13.371  11.118  72.203  1.00  0.00    -0.452 OA 
BRANCH   5   6
HETATM    6  C   UNL     1     -13.174   9.838  71.795  1.00  0.00    -0.436 C  
HETATM    7  O   UNL     1     -14.052   9.005  71.638  1.00  0.00    -0.360 OA 
BRANCH   6   8
HETATM    8  C   UNL     1     -11.694   9.585  71.566  1.00  0.00    -0.472 C  
BRANCH   8   9
HETATM    9  C   UNL     1     -11.310   8.124  71.575  1.00  0.00    -0.308 A  
HETATM   10  C   UNL     1     -11.146   7.506  72.832  1.00  0.00    -0.426 A  
HETATM   11  C   UNL     1     -10.822   6.155  72.935  1.00  0.00    -0.290 A  
HETATM   12  C   UNL     1     -10.697   5.386  71.787  1.00  0.00    -0.271 A  
HETATM   13  C   UNL     1     -10.832   5.987  70.535  1.00  0.00    -0.382 A  
HETATM   14  C   UNL     1     -11.083   7.361  70.407  1.00  0.00    -0.265 A  
BRANCH  14  15
HETATM   15  N   UNL     1     -11.031   7.952  69.125  1.00  0.00    -0.428 NA 
HETATM   16  H   UNL     1     -11.931   8.289  68.785  1.00  0.00     0.000 HD 
BRANCH  15  17
HETATM   17  C   UNL     1      -9.949   8.162  68.218  1.00  0.00    -0.186 A  
HETATM   18  C   UNL     1      -9.924   7.373  67.040  1.00  0.00    -0.231 A  
HETATM   19  C   UNL     1      -9.024   7.618  65.997  1.00  0.00    -0.178 A  
HETATM   20 CL   UNL     1     -11.026   6.048  66.832  1.00  0.00    -0.388 Cl 
HETATM   21  C   UNL     1      -8.103   8.650  66.105  1.00  0.00    -0.108 A  
HETATM   22  C   UNL     1      -8.037   9.380  67.287  1.00  0.00    -0.110 A  
HETATM   23  C   UNL     1      -8.931   9.132  68.346  1.00  0.00    -0.133 A  
HETATM   24 CL   UNL     1      -8.714  10.164  69.717  1.00  0.00    -0.187 Cl 
ENDBRANCH  15  17
ENDBRANCH  14  15
ENDBRANCH   8   9
ENDBRANCH   6   8
ENDBRANCH   5   6
ENDBRANCH   4   5
TORSDOF 6
ENDMDL
MODEL      106
REMARK 921   NORMALIZED FREE ENERGY PREDICTED BY IDOCK:   -5.47 KCAL/MOL
REMARK 922        TOTAL FREE ENERGY PREDICTED BY IDOCK:   -8.35 KCAL/MOL
REMARK 923 INTER-LIGAND FREE ENERGY PREDICTED BY IDOCK:   -7.57 KCAL/MOL
REMARK 924 INTRA-LIGAND FREE ENERGY PREDICTED BY IDOCK:   -0.78 KCAL/MOL
REMARK 927      BINDING AFFINITY PREDICTED BY RF-SCORE:    0.00 PKD
ROOT
HETATM    1  O   UNL     1      -5.848  14.077  67.522  1.00  0.00    -0.338 OA 
HETATM    2  C   UNL     1      -6.318  12.820  67.332  1.00  0.00    -0.135 C  
HETATM    3  O   UNL     1      -5.778  12.035  66.569  1.00  0.00    -0.272 OA 
HETATM    4  C   UNL     1      -7.562  12.518  68.160  1.00  0.00    -0.127 C  
ENDROOT
BRANCH   4   5
HETATM    5  O   UNL     1      -8.055  11.203  67.870  1.00  0.00    -0.113 OA 
BRANCH   5   6
HETATM    6  C   UNL     1      -8.669  10.555  68.894  1.00  0.00    -0.154 C  
HETATM    7  O   UNL     1      -8.139  10.238  69.946  1.00  0.00    -0.157 OA 
BRANCH   6   8
HETATM    8  C   UNL     1     -10.117  10.271  68.538  1.00  0.00    -0.181 C  
BRANCH   8   9
HETATM    9  C   UNL     1     -10.746  11.312  67.640  1.00  0.00    -0.270 A  
HETATM   10  C   UNL     1     -10.732  11.061  66.252  1.00  0.00    -0.273 A  
HETATM   11  C   UNL     1     -11.315  11.950  65.352  1.00  0.00    -0.334 A  
HETATM   12  C   UNL     1     -11.958  13.085  65.823  1.00  0.00    -0.482 A  
HETATM   13  C   UNL     1     -11.959  13.362  67.191  1.00  0.00    -0.415 A  
HETATM   14  C   UNL     1     -11.313  12.519  68.107  1.00  0.00    -0.295 A  
BRANCH  14  15
HETATM   15  N   UNL     1     -11.187  12.934  69.452  1.00  0.00    -0.429 NA 
HETATM   16  H   UNL     1     -10.274  12.742  69.863  1.00  0.00     0.000 HD 
BRANCH  15  17
HETATM   17  C   UNL     1     -12.105  13.572  70.340  1.00  0.00    -0.345 A  
HETATM   18  C   UNL     1     -12.770  12.752  71.287  1.00  0.00    -0.269 A  
HETATM   19  C   UNL     1     -13.544  13.287  72.323  1.00  0.00    -0.703 A  
HETATM   20 CL   UNL     1     -12.651  11.022  71.207  1.00  0.00    -0.511 Cl 
HETATM   21  C   UNL     1     -13.696  14.661  72.435  1.00  0.00    -0.575 A  
HETATM   22  C   UNL     1     -13.138  15.487  71.465  1.00  0.00    -0.573 A  
HETATM   23  C   UNL     1     -12.367  14.957  70.413  1.00  0.00    -0.345 A  
HETATM   24 CL   UNL     1     -11.728  16.144  69.329  1.00  0.00    -0.279 Cl 
ENDBRANCH  15  17
ENDBRANCH  14  15
ENDBRANCH   8   9
ENDBRANCH   6   8
ENDBRANCH   5   6
ENDBRANCH   4   5
TORSDOF 6
ENDMDL
MODEL      107
REMARK 921   NORMALIZED FREE ENERGY PREDICTED BY IDOCK:   -5.47 KCAL/MOL
REMARK 922        TOTAL FREE ENERGY PREDICTED BY IDOCK:   -8.35 KCAL/MOL
REMARK 923 INTER-LIGAND FREE ENERGY PREDICTED BY IDOCK:   -7.38 KCAL/MOL
REMARK 924 INTRA-LIGAND FREE ENERGY PREDICTED BY IDOCK:   -0.97 KCAL/MOL
REMARK 927      BINDING AFFINITY PREDICTED BY RF-SCORE:    0.00 PKD
ROOT
HETATM    1  O   UNL     1     -12.556  13.925  63.326  1.00  0.00    -0.824 OA 
HETATM    2  C   UNL     1     -12.276  12.610  63.501  1.00  0.00    -0.547 C  
HETATM    3  O   UNL     1     -13.152  11.761  63.544  1.00  0.00    -0.617 OA 
HETATM    4  C   UNL     1     -10.783  12.332  63.634  1.00  0.00    -0.467 C  
ENDROOT
BRANCH   4   5
HETATM    5  O   UNL     1     -10.549  10.940  63.885  1.00  0.00    -0.359 OA 
BRANCH   5   6
HETATM    6  C   UNL     1      -9.772  10.647  64.959  1.00  0.00    -0.279 C  
HETATM    7  O   UNL     1      -8.621  10.243  64.907  1.00  0.00    -0.167 OA 
BRANCH   6   8
HETATM    8  C   UNL     1     -10.544  10.888  66.244  1.00  0.00    -0.276 C  
BRANCH   8   9
HETATM    9  C   UNL     1     -10.137   9.986  67.386  1.00  0.00    -0.256 A  
HETATM   10  C   UNL     1     -10.523   8.632  67.309  1.00  0.00    -0.360 A  
HETATM   11  C   UNL     1     -10.165   7.723  68.302  1.00  0.00    -0.236 A  
HETATM   12  C   UNL     1      -9.381   8.138  69.368  1.00  0.00    -0.155 A  
HETATM   13  C   UNL     1      -9.012   9.480  69.473  1.00  0.00    -0.187 A  
HETATM   14  C   UNL     1      -9.425  10.428  68.524  1.00  0.00    -0.159 A  
BRANCH  14  15
HETATM   15  N   UNL     1      -9.179  11.797  68.770  1.00  0.00    -0.389 NA 
HETATM   16  H   UNL     1      -8.222  12.003  69.055  1.00  0.00     0.000 HD 
BRANCH  15  17
HETATM   17  C   UNL     1     -10.025  12.944  68.692  1.00  0.00    -0.092 A  
HETATM   18  C   UNL     1      -9.554  14.050  67.941  1.00  0.00    -0.221 A  
HETATM   19  C   UNL     1     -10.367  15.149  67.640  1.00  0.00    -0.248 A  
HETATM   20 CL   UNL     1      -7.923  14.094  67.346  1.00  0.00    -0.200 Cl 
HETATM   21  C   UNL     1     -11.676  15.187  68.099  1.00  0.00    -0.323 A  
HETATM   22  C   UNL     1     -12.137  14.164  68.921  1.00  0.00    -0.339 A  
HETATM   23  C   UNL     1     -11.322  13.061  69.237  1.00  0.00    -0.251 A  
HETATM   24 CL   UNL     1     -12.084  11.876  70.241  1.00  0.00    -0.424 Cl 
ENDBRANCH  15  17
ENDBRANCH  14  15
ENDBRANCH   8   9
ENDBRANCH   6   8
ENDBRANCH   5   6
ENDBRANCH   4   5
TORSDOF 6
ENDMDL
MODEL      108
REMARK 921   NORMALIZED FREE ENERGY PREDICTED BY IDOCK:   -5.45 KCAL/MOL
REMARK 922        TOTAL FREE ENERGY PREDICTED BY IDOCK:   -8.33 KCAL/MOL
REMARK 923 INTER-LIGAND FREE ENERGY PREDICTED BY IDOCK:   -7.10 KCAL/MOL
REMARK 924 INTRA-LIGAND FREE ENERGY PREDICTED BY IDOCK:   -1.22 KCAL/MOL
REMARK 927      BINDING AFFINITY PREDICTED BY RF-SCORE:    0.00 PKD
ROOT
HETATM    1  O   UNL     1     -12.656  13.840  62.977  1.00  0.00    -0.721 OA 
HETATM    2  C   UNL     1     -12.389  12.750  63.737  1.00  0.00    -0.446 C  
HETATM    3  O   UNL     1     -13.222  12.263  64.486  1.00  0.00    -0.799 OA 
HETATM    4  C   UNL     1     -10.971  12.225  63.548  1.00  0.00    -0.459 C  
ENDROOT
BRANCH   4   5
HETATM    5  O   UNL     1     -10.722  11.117  64.423  1.00  0.00    -0.350 OA 
BRANCH   5   6
HETATM    6  C   UNL     1      -9.599  10.395  64.170  1.00  0.00    -0.322 C  
HETATM    7  O   UNL     1      -9.082  10.257  63.073  1.00  0.00    -0.215 OA 
BRANCH   6   8
HETATM    8  C   UNL     1      -9.078   9.773  65.454  1.00  0.00    -0.251 C  
BRANCH   8   9
HETATM    9  C   UNL     1      -8.429  10.761  66.396  1.00  0.00    -0.158 A  
HETATM   10  C   UNL     1      -7.036  10.949  66.276  1.00  0.00    -0.119 A  
HETATM   11  C   UNL     1      -6.359  11.861  67.082  1.00  0.00    -0.151 A  
HETATM   12  C   UNL     1      -7.066  12.632  67.995  1.00  0.00    -0.103 A  
HETATM   13  C   UNL     1      -8.440  12.439  68.144  1.00  0.00    -0.180 A  
HETATM   14  C   UNL     1      -9.128  11.474  67.396  1.00  0.00    -0.166 A  
BRANCH  14  15
HETATM   15  N   UNL     1     -10.476  11.194  67.711  1.00  0.00    -0.185 NA 
HETATM   16  H   UNL     1     -11.101  11.196  66.905  1.00  0.00     0.000 HD 
BRANCH  15  17
HETATM   17  C   UNL     1     -11.124  10.909  68.950  1.00  0.00    -0.252 A  
HETATM   18  C   UNL     1     -10.998   9.592  69.463  1.00  0.00    -0.208 A  
HETATM   19  C   UNL     1     -11.428   9.249  70.750  1.00  0.00    -0.351 A  
HETATM   20 CL   UNL     1     -10.291   8.328  68.507  1.00  0.00    -0.233 Cl 
HETATM   21  C   UNL     1     -12.018  10.206  71.561  1.00  0.00    -0.404 A  
HETATM   22  C   UNL     1     -12.246  11.481  71.053  1.00  0.00    -0.368 A  
HETATM   23  C   UNL     1     -11.826  11.832  69.756  1.00  0.00    -0.349 A  
HETATM   24 CL   UNL     1     -12.166  13.470  69.316  1.00  0.00    -0.314 Cl 
ENDBRANCH  15  17
ENDBRANCH  14  15
ENDBRANCH   8   9
ENDBRANCH   6   8
ENDBRANCH   5   6
ENDBRANCH   4   5
TORSDOF 6
ENDMDL
MODEL      109
REMARK 921   NORMALIZED FREE ENERGY PREDICTED BY IDOCK:   -5.45 KCAL/MOL
REMARK 922        TOTAL FREE ENERGY PREDICTED BY IDOCK:   -8.32 KCAL/MOL
REMARK 923 INTER-LIGAND FREE ENERGY PREDICTED BY IDOCK:   -7.40 KCAL/MOL
REMARK 924 INTRA-LIGAND FREE ENERGY PREDICTED BY IDOCK:   -0.92 KCAL/MOL
REMARK 927      BINDING AFFINITY PREDICTED BY RF-SCORE:    0.00 PKD
ROOT
HETATM    1  O   UNL     1     -13.508  10.409  72.209  1.00  0.00    -0.363 OA 
HETATM    2  C   UNL     1     -12.649  10.930  71.299  1.00  0.00    -0.421 C  
HETATM    3  O   UNL     1     -11.818  10.243  70.726  1.00  0.00    -0.308 OA 
HETATM    4  C   UNL     1     -12.842  12.427  71.088  1.00  0.00    -0.205 C  
ENDROOT
BRANCH   4   5
HETATM    5  O   UNL     1     -11.866  12.937  70.169  1.00  0.00    -0.311 OA 
BRANCH   5   6
HETATM    6  C   UNL     1     -11.913  14.273  69.926  1.00  0.00    -0.339 C  
HETATM    7  O   UNL     1     -12.879  14.991  70.127  1.00  0.00    -0.263 OA 
BRANCH   6   8
HETATM    8  C   UNL     1     -10.587  14.748  69.360  1.00  0.00    -0.229 C  
BRANCH   8   9
HETATM    9  C   UNL     1     -10.543  14.794  67.850  1.00  0.00    -0.248 A  
HETATM   10  C   UNL     1     -10.519  13.561  67.167  1.00  0.00    -0.256 A  
HETATM   11  C   UNL     1     -10.509  13.507  65.775  1.00  0.00    -0.293 A  
HETATM   12  C   UNL     1     -10.564  14.682  65.039  1.00  0.00    -0.461 A  
HETATM   13  C   UNL     1     -10.562  15.912  65.700  1.00  0.00    -0.393 A  
HETATM   14  C   UNL     1     -10.496  15.990  67.099  1.00  0.00    -0.308 A  
BRANCH  14  15
HETATM   15  N   UNL     1     -10.315  17.251  67.708  1.00  0.00    -0.342 NA 
HETATM   16  H   UNL     1     -11.112  17.564  68.262  1.00  0.00     0.000 HD 
BRANCH  15  17
HETATM   17  C   UNL     1      -9.221  18.167  67.691  1.00  0.00    -0.259 A  
HETATM   18  C   UNL     1      -9.391  19.371  66.961  1.00  0.00    -0.326 A  
HETATM   19  C   UNL     1      -8.466  20.419  67.025  1.00  0.00    -0.355 A  
HETATM   20 CL   UNL     1     -10.776  19.605  65.941  1.00  0.00    -0.576 Cl 
HETATM   21  C   UNL     1      -7.328  20.291  67.807  1.00  0.00    -0.325 A  
HETATM   22  C   UNL     1      -7.083  19.087  68.457  1.00  0.00    -0.322 A  
HETATM   23  C   UNL     1      -8.002  18.023  68.389  1.00  0.00    -0.300 A  
HETATM   24 CL   UNL     1      -7.538  16.621  69.292  1.00  0.00    -0.194 Cl 
ENDBRANCH  15  17
ENDBRANCH  14  15
ENDBRANCH   8   9
ENDBRANCH   6   8
ENDBRANCH   5   6
ENDBRANCH   4   5
TORSDOF 6
ENDMDL
MODEL      110
REMARK 921   NORMALIZED FREE ENERGY PREDICTED BY IDOCK:   -5.44 KCAL/MOL
REMARK 922        TOTAL FREE ENERGY PREDICTED BY IDOCK:   -8.30 KCAL/MOL
REMARK 923 INTER-LIGAND FREE ENERGY PREDICTED BY IDOCK:   -7.70 KCAL/MOL
REMARK 924 INTRA-LIGAND FREE ENERGY PREDICTED BY IDOCK:   -0.61 KCAL/MOL
REMARK 927      BINDING AFFINITY PREDICTED BY RF-SCORE:    0.00 PKD
ROOT
HETATM    1  O   UNL     1     -13.724  14.424  72.913  1.00  0.00    -0.598 OA 
HETATM    2  C   UNL     1     -13.316  13.466  72.045  1.00  0.00    -0.479 C  
HETATM    3  O   UNL     1     -13.492  12.278  72.262  1.00  0.00    -0.520 OA 
HETATM    4  C   UNL     1     -12.634  14.037  70.806  1.00  0.00    -0.360 C  
ENDROOT
BRANCH   4   5
HETATM    5  O   UNL     1     -12.164  12.981  69.957  1.00  0.00    -0.299 OA 
BRANCH   5   6
HETATM    6  C   UNL     1     -11.588  13.364  68.788  1.00  0.00    -0.325 C  
HETATM    7  O   UNL     1     -11.305  14.512  68.486  1.00  0.00    -0.260 OA 
BRANCH   6   8
HETATM    8  C   UNL     1     -11.352  12.155  67.901  1.00  0.00    -0.361 C  
BRANCH   8   9
HETATM    9  C   UNL     1      -9.940  11.620  67.953  1.00  0.00    -0.190 A  
HETATM   10  C   UNL     1      -9.610  10.769  69.028  1.00  0.00    -0.193 A  
HETATM   11  C   UNL     1      -8.341  10.206  69.139  1.00  0.00    -0.154 A  
HETATM   12  C   UNL     1      -7.390  10.448  68.158  1.00  0.00    -0.088 A  
HETATM   13  C   UNL     1      -7.692  11.309  67.101  1.00  0.00    -0.147 A  
HETATM   14  C   UNL     1      -8.938  11.946  67.010  1.00  0.00    -0.190 A  
BRANCH  14  15
HETATM   15  N   UNL     1      -9.130  12.941  66.027  1.00  0.00    -0.444 NA 
HETATM   16  H   UNL     1      -8.373  13.622  65.971  1.00  0.00     0.000 HD 
BRANCH  15  17
HETATM   17  C   UNL     1     -10.190  13.169  65.099  1.00  0.00    -0.284 A  
HETATM   18  C   UNL     1     -10.664  12.051  64.365  1.00  0.00    -0.323 A  
HETATM   19  C   UNL     1     -11.814  12.114  63.570  1.00  0.00    -0.597 A  
HETATM   20 CL   UNL     1      -9.830  10.530  64.422  1.00  0.00    -0.382 Cl 
HETATM   21  C   UNL     1     -12.519  13.304  63.465  1.00  0.00    -0.328 A  
HETATM   22  C   UNL     1     -12.025  14.443  64.092  1.00  0.00    -0.373 A  
HETATM   23  C   UNL     1     -10.863  14.392  64.885  1.00  0.00    -0.416 A  
HETATM   24 CL   UNL     1     -10.428  15.900  65.611  1.00  0.00    -0.387 Cl 
ENDBRANCH  15  17
ENDBRANCH  14  15
ENDBRANCH   8   9
ENDBRANCH   6   8
ENDBRANCH   5   6
ENDBRANCH   4   5
TORSDOF 6
ENDMDL
MODEL      111
REMARK 921   NORMALIZED FREE ENERGY PREDICTED BY IDOCK:   -5.42 KCAL/MOL
REMARK 922        TOTAL FREE ENERGY PREDICTED BY IDOCK:   -8.28 KCAL/MOL
REMARK 923 INTER-LIGAND FREE ENERGY PREDICTED BY IDOCK:   -7.25 KCAL/MOL
REMARK 924 INTRA-LIGAND FREE ENERGY PREDICTED BY IDOCK:   -1.03 KCAL/MOL
REMARK 927      BINDING AFFINITY PREDICTED BY RF-SCORE:    0.00 PKD
ROOT
HETATM    1  O   UNL     1      -9.514  11.172  62.647  1.00  0.00    -0.322 OA 
HETATM    2  C   UNL     1     -10.413  11.256  63.658  1.00  0.00    -0.405 C  
HETATM    3  O   UNL     1     -10.312  10.585  64.673  1.00  0.00    -0.344 OA 
HETATM    4  C   UNL     1     -11.529  12.257  63.380  1.00  0.00    -0.430 C  
ENDROOT
BRANCH   4   5
HETATM    5  O   UNL     1     -12.486  12.256  64.447  1.00  0.00    -0.439 OA 
BRANCH   5   6
HETATM    6  C   UNL     1     -12.597  13.411  65.154  1.00  0.00    -0.440 C  
HETATM    7  O   UNL     1     -13.637  14.019  65.351  1.00  0.00    -0.593 OA 
BRANCH   6   8
HETATM    8  C   UNL     1     -11.234  13.846  65.661  1.00  0.00    -0.306 C  
BRANCH   8   9
HETATM    9  C   UNL     1     -11.265  14.510  67.018  1.00  0.00    -0.342 A  
HETATM   10  C   UNL     1     -10.925  15.878  67.076  1.00  0.00    -0.189 A  
HETATM   11  C   UNL     1     -10.956  16.579  68.279  1.00  0.00    -0.346 A  
HETATM   12  C   UNL     1     -11.366  15.939  69.439  1.00  0.00    -0.349 A  
HETATM   13  C   UNL     1     -11.682  14.580  69.405  1.00  0.00    -0.361 A  
HETATM   14  C   UNL     1     -11.585  13.838  68.219  1.00  0.00    -0.338 A  
BRANCH  14  15
HETATM   15  N   UNL     1     -11.740  12.435  68.273  1.00  0.00    -0.332 NA 
HETATM   16  H   UNL     1     -12.572  12.089  67.795  1.00  0.00     0.000 HD 
BRANCH  15  17
HETATM   17  C   UNL     1     -10.945  11.413  68.874  1.00  0.00    -0.226 A  
HETATM   18  C   UNL     1     -11.562  10.608  69.865  1.00  0.00    -0.316 A  
HETATM   19  C   UNL     1     -10.946   9.464  70.387  1.00  0.00    -0.317 A  
HETATM   20 CL   UNL     1     -13.133  11.006  70.486  1.00  0.00    -0.144 Cl 
HETATM   21  C   UNL     1      -9.682   9.098  69.948  1.00  0.00    -0.206 A  
HETATM   22  C   UNL     1      -9.010   9.920  69.050  1.00  0.00    -0.160 A  
HETATM   23  C   UNL     1      -9.618  11.078  68.529  1.00  0.00    -0.187 A  
HETATM   24 CL   UNL     1      -8.639  11.950  67.400  1.00  0.00    -0.157 Cl 
ENDBRANCH  15  17
ENDBRANCH  14  15
ENDBRANCH   8   9
ENDBRANCH   6   8
ENDBRANCH   5   6
ENDBRANCH   4   5
TORSDOF 6
ENDMDL
MODEL      112
REMARK 921   NORMALIZED FREE ENERGY PREDICTED BY IDOCK:   -5.37 KCAL/MOL
REMARK 922        TOTAL FREE ENERGY PREDICTED BY IDOCK:   -8.21 KCAL/MOL
REMARK 923 INTER-LIGAND FREE ENERGY PREDICTED BY IDOCK:   -7.75 KCAL/MOL
REMARK 924 INTRA-LIGAND FREE ENERGY PREDICTED BY IDOCK:   -0.46 KCAL/MOL
REMARK 927      BINDING AFFINITY PREDICTED BY RF-SCORE:    0.00 PKD
ROOT
HETATM    1  O   UNL     1      -8.140  10.754  62.394  1.00  0.00    -0.182 OA 
HETATM    2  C   UNL     1      -9.157  10.540  63.264  1.00  0.00    -0.254 C  
HETATM    3  O   UNL     1      -9.254   9.505  63.906  1.00  0.00    -0.213 OA 
HETATM    4  C   UNL     1     -10.132  11.709  63.341  1.00  0.00    -0.440 C  
ENDROOT
BRANCH   4   5
HETATM    5  O   UNL     1     -11.221  11.402  64.222  1.00  0.00    -0.325 OA 
BRANCH   5   6
HETATM    6  C   UNL     1     -11.069  11.785  65.516  1.00  0.00    -0.280 C  
HETATM    7  O   UNL     1     -10.261  11.313  66.300  1.00  0.00    -0.221 OA 
BRANCH   6   8
HETATM    8  C   UNL     1     -12.059  12.885  65.855  1.00  0.00    -0.503 C  
BRANCH   8   9
HETATM    9  C   UNL     1     -11.415  14.176  66.303  1.00  0.00    -0.358 A  
HETATM   10  C   UNL     1     -11.210  15.170  65.324  1.00  0.00    -0.359 A  
HETATM   11  C   UNL     1     -10.651  16.403  65.652  1.00  0.00    -0.337 A  
HETATM   12  C   UNL     1     -10.323  16.681  66.971  1.00  0.00    -0.301 A  
HETATM   13  C   UNL     1     -10.495  15.700  67.948  1.00  0.00    -0.267 A  
HETATM   14  C   UNL     1     -10.987  14.427  67.627  1.00  0.00    -0.286 A  
BRANCH  14  15
HETATM   15  N   UNL     1     -10.972  13.416  68.613  1.00  0.00    -0.253 NA 
HETATM   16  H   UNL     1     -10.187  12.770  68.536  1.00  0.00     0.000 HD 
BRANCH  15  17
HETATM   17  C   UNL     1     -11.856  13.132  69.697  1.00  0.00    -0.324 A  
HETATM   18  C   UNL     1     -12.028  11.772  70.058  1.00  0.00    -0.344 A  
HETATM   19  C   UNL     1     -12.718  11.388  71.214  1.00  0.00    -0.498 A  
HETATM   20 CL   UNL     1     -11.379  10.500  69.072  1.00  0.00    -0.311 Cl 
HETATM   21  C   UNL     1     -13.278  12.353  72.038  1.00  0.00    -0.514 A  
HETATM   22  C   UNL     1     -13.212  13.690  71.661  1.00  0.00    -0.447 A  
HETATM   23  C   UNL     1     -12.530  14.084  70.494  1.00  0.00    -0.359 A  
HETATM   24 CL   UNL     1     -12.528  15.790  70.212  1.00  0.00    -0.376 Cl 
ENDBRANCH  15  17
ENDBRANCH  14  15
ENDBRANCH   8   9
ENDBRANCH   6   8
ENDBRANCH   5   6
ENDBRANCH   4   5
TORSDOF 6
ENDMDL
MODEL      113
REMARK 921   NORMALIZED FREE ENERGY PREDICTED BY IDOCK:   -5.35 KCAL/MOL
REMARK 922        TOTAL FREE ENERGY PREDICTED BY IDOCK:   -8.19 KCAL/MOL
REMARK 923 INTER-LIGAND FREE ENERGY PREDICTED BY IDOCK:   -7.11 KCAL/MOL
REMARK 924 INTRA-LIGAND FREE ENERGY PREDICTED BY IDOCK:   -1.08 KCAL/MOL
REMARK 927      BINDING AFFINITY PREDICTED BY RF-SCORE:    0.00 PKD
ROOT
HETATM    1  O   UNL     1     -10.478   5.318  68.338  1.00  0.00    -0.154 OA 
HETATM    2  C   UNL     1     -10.315   6.664  68.347  1.00  0.00    -0.193 C  
HETATM    3  O   UNL     1     -10.064   7.278  69.371  1.00  0.00    -0.174 OA 
HETATM    4  C   UNL     1     -10.480   7.293  66.968  1.00  0.00    -0.328 C  
ENDROOT
BRANCH   4   5
HETATM    5  O   UNL     1     -10.366   8.720  67.047  1.00  0.00    -0.261 OA 
BRANCH   5   6
HETATM    6  C   UNL     1      -9.481   9.298  66.195  1.00  0.00    -0.236 C  
HETATM    7  O   UNL     1      -8.886   8.721  65.299  1.00  0.00    -0.192 OA 
BRANCH   6   8
HETATM    8  C   UNL     1      -9.330  10.773  66.520  1.00  0.00    -0.192 C  
BRANCH   8   9
HETATM    9  C   UNL     1     -10.417  11.646  65.937  1.00  0.00    -0.300 A  
HETATM   10  C   UNL     1     -10.739  11.457  64.577  1.00  0.00    -0.391 A  
HETATM   11  C   UNL     1     -11.748  12.195  63.964  1.00  0.00    -0.515 A  
HETATM   12  C   UNL     1     -12.483  13.108  64.707  1.00  0.00    -0.460 A  
HETATM   13  C   UNL     1     -12.161  13.326  66.047  1.00  0.00    -0.483 A  
HETATM   14  C   UNL     1     -11.100  12.648  66.664  1.00  0.00    -0.274 A  
BRANCH  14  15
HETATM   15  N   UNL     1     -10.701  13.034  67.963  1.00  0.00    -0.226 NA 
HETATM   16  H   UNL     1      -9.712  13.272  68.041  1.00  0.00     0.000 HD 
BRANCH  15  17
HETATM   17  C   UNL     1     -11.427  13.151  69.186  1.00  0.00    -0.305 A  
HETATM   18  C   UNL     1     -11.849  14.449  69.570  1.00  0.00    -0.329 A  
HETATM   19  C   UNL     1     -12.722  14.662  70.643  1.00  0.00    -0.417 A  
HETATM   20 CL   UNL     1     -11.299  15.855  68.713  1.00  0.00    -0.357 Cl 
HETATM   21  C   UNL     1     -13.187  13.585  71.382  1.00  0.00    -0.348 A  
HETATM   22  C   UNL     1     -12.715  12.309  71.093  1.00  0.00    -0.340 A  
HETATM   23  C   UNL     1     -11.829  12.086  70.022  1.00  0.00    -0.314 A  
HETATM   24 CL   UNL     1     -11.383  10.430  69.798  1.00  0.00    -0.320 Cl 
ENDBRANCH  15  17
ENDBRANCH  14  15
ENDBRANCH   8   9
ENDBRANCH   6   8
ENDBRANCH   5   6
ENDBRANCH   4   5
TORSDOF 6
ENDMDL
MODEL      114
REMARK 921   NORMALIZED FREE ENERGY PREDICTED BY IDOCK:   -5.35 KCAL/MOL
REMARK 922        TOTAL FREE ENERGY PREDICTED BY IDOCK:   -8.19 KCAL/MOL
REMARK 923 INTER-LIGAND FREE ENERGY PREDICTED BY IDOCK:   -7.32 KCAL/MOL
REMARK 924 INTRA-LIGAND FREE ENERGY PREDICTED BY IDOCK:   -0.87 KCAL/MOL
REMARK 927      BINDING AFFINITY PREDICTED BY RF-SCORE:    0.00 PKD
ROOT
HETATM    1  O   UNL     1     -14.125  13.480  72.704  1.00  0.00    -0.762 OA 
HETATM    2  C   UNL     1     -13.393  14.570  72.367  1.00  0.00    -0.433 C  
HETATM    3  O   UNL     1     -13.628  15.676  72.826  1.00  0.00    -0.521 OA 
HETATM    4  C   UNL     1     -12.277  14.254  71.376  1.00  0.00    -0.331 C  
ENDROOT
BRANCH   4   5
HETATM    5  O   UNL     1     -11.580  15.450  71.003  1.00  0.00    -0.301 OA 
BRANCH   5   6
HETATM    6  C   UNL     1     -11.699  15.832  69.705  1.00  0.00    -0.348 C  
HETATM    7  O   UNL     1     -12.653  15.589  68.985  1.00  0.00     0.035 OA 
BRANCH   6   8
HETATM    8  C   UNL     1     -10.464  16.603  69.273  1.00  0.00    -0.333 C  
BRANCH   8   9
HETATM    9  C   UNL     1      -9.400  15.748  68.624  1.00  0.00    -0.206 A  
HETATM   10  C   UNL     1      -8.088  15.854  69.131  1.00  0.00    -0.239 A  
HETATM   11  C   UNL     1      -7.050  15.082  68.615  1.00  0.00    -0.109 A  
HETATM   12  C   UNL     1      -7.310  14.160  67.612  1.00  0.00    -0.191 A  
HETATM   13  C   UNL     1      -8.597  14.060  67.081  1.00  0.00    -0.220 A  
HETATM   14  C   UNL     1      -9.640  14.881  67.534  1.00  0.00    -0.204 A  
BRANCH  14  15
HETATM   15  N   UNL     1     -10.873  14.868  66.845  1.00  0.00    -0.313 NA 
HETATM   16  H   UNL     1     -11.491  15.643  67.084  1.00  0.00     0.000 HD 
BRANCH  15  17
HETATM   17  C   UNL     1     -11.412  13.968  65.877  1.00  0.00    -0.330 A  
HETATM   18  C   UNL     1     -11.690  14.489  64.588  1.00  0.00    -0.431 A  
HETATM   19  C   UNL     1     -12.042  13.667  63.511  1.00  0.00    -0.341 A  
HETATM   20 CL   UNL     1     -11.602  16.195  64.279  1.00  0.00    -0.294 Cl 
HETATM   21  C   UNL     1     -12.147  12.297  63.692  1.00  0.00    -0.648 A  
HETATM   22  C   UNL     1     -11.978  11.765  64.966  1.00  0.00    -0.021 A  
HETATM   23  C   UNL     1     -11.635  12.585  66.057  1.00  0.00    -0.406 A  
HETATM   24 CL   UNL     1     -11.433  11.737  67.551  1.00  0.00    -0.372 Cl 
ENDBRANCH  15  17
ENDBRANCH  14  15
ENDBRANCH   8   9
ENDBRANCH   6   8
ENDBRANCH   5   6
ENDBRANCH   4   5
TORSDOF 6
ENDMDL
MODEL      115
REMARK 921   NORMALIZED FREE ENERGY PREDICTED BY IDOCK:   -5.35 KCAL/MOL
REMARK 922        TOTAL FREE ENERGY PREDICTED BY IDOCK:   -8.18 KCAL/MOL
REMARK 923 INTER-LIGAND FREE ENERGY PREDICTED BY IDOCK:   -7.21 KCAL/MOL
REMARK 924 INTRA-LIGAND FREE ENERGY PREDICTED BY IDOCK:   -0.97 KCAL/MOL
REMARK 927      BINDING AFFINITY PREDICTED BY RF-SCORE:    0.00 PKD
ROOT
HETATM    1  O   UNL     1     -11.266   5.359  73.072  1.00  0.00    -0.288 OA 
HETATM    2  C   UNL     1     -11.100   6.157  71.989  1.00  0.00    -0.274 C  
HETATM    3  O   UNL     1     -12.022   6.428  71.237  1.00  0.00    -0.326 OA 
HETATM    4  C   UNL     1      -9.668   6.656  71.831  1.00  0.00    -0.153 C  
ENDROOT
BRANCH   4   5
HETATM    5  O   UNL     1      -9.535   7.437  70.636  1.00  0.00    -0.164 OA 
BRANCH   5   6
HETATM    6  C   UNL     1      -9.396   8.778  70.809  1.00  0.00    -0.208 C  
HETATM    7  O   UNL     1      -8.668   9.309  71.631  1.00  0.00    -0.312 OA 
BRANCH   6   8
HETATM    8  C   UNL     1     -10.285   9.525  69.832  1.00  0.00    -0.261 C  
BRANCH   8   9
HETATM    9  C   UNL     1     -11.345  10.376  70.491  1.00  0.00    -0.424 A  
HETATM   10  C   UNL     1     -12.181   9.749  71.438  1.00  0.00    -0.486 A  
HETATM   11  C   UNL     1     -13.165  10.463  72.117  1.00  0.00    -0.418 A  
HETATM   12  C   UNL     1     -13.307  11.824  71.895  1.00  0.00    -0.401 A  
HETATM   13  C   UNL     1     -12.505  12.456  70.942  1.00  0.00    -0.367 A  
HETATM   14  C   UNL     1     -11.560  11.741  70.194  1.00  0.00    -0.195 A  
BRANCH  14  15
HETATM   15  N   UNL     1     -10.903  12.386  69.121  1.00  0.00    -0.423 NA 
HETATM   16  H   UNL     1      -9.932  12.630  69.315  1.00  0.00     0.000 HD 
BRANCH  15  17
HETATM   17  C   UNL     1     -11.351  12.757  67.818  1.00  0.00    -0.294 A  
HETATM   18  C   UNL     1     -11.694  14.117  67.611  1.00  0.00    -0.387 A  
HETATM   19  C   UNL     1     -11.964  14.633  66.338  1.00  0.00    -0.274 A  
HETATM   20 CL   UNL     1     -11.792  15.224  68.944  1.00  0.00    -0.359 Cl 
HETATM   21  C   UNL     1     -11.921  13.800  65.230  1.00  0.00    -0.388 A  
HETATM   22  C   UNL     1     -11.685  12.441  65.411  1.00  0.00    -0.452 A  
HETATM   23  C   UNL     1     -11.423  11.912  66.689  1.00  0.00    -0.314 A  
HETATM   24 CL   UNL     1     -11.118  10.209  66.707  1.00  0.00    -0.044 Cl 
ENDBRANCH  15  17
ENDBRANCH  14  15
ENDBRANCH   8   9
ENDBRANCH   6   8
ENDBRANCH   5   6
ENDBRANCH   4   5
TORSDOF 6
ENDMDL
MODEL      116
REMARK 921   NORMALIZED FREE ENERGY PREDICTED BY IDOCK:   -5.33 KCAL/MOL
REMARK 922        TOTAL FREE ENERGY PREDICTED BY IDOCK:   -8.16 KCAL/MOL
REMARK 923 INTER-LIGAND FREE ENERGY PREDICTED BY IDOCK:   -7.16 KCAL/MOL
REMARK 924 INTRA-LIGAND FREE ENERGY PREDICTED BY IDOCK:   -0.99 KCAL/MOL
REMARK 927      BINDING AFFINITY PREDICTED BY RF-SCORE:    0.00 PKD
ROOT
HETATM    1  O   UNL     1      -6.629  15.334  67.114  1.00  0.00    -0.292 OA 
HETATM    2  C   UNL     1      -7.660  14.702  67.726  1.00  0.00    -0.160 C  
HETATM    3  O   UNL     1      -7.708  13.486  67.825  1.00  0.00    -0.131 OA 
HETATM    4  C   UNL     1      -8.717  15.664  68.258  1.00  0.00    -0.174 C  
ENDROOT
BRANCH   4   5
HETATM    5  O   UNL     1      -9.813  14.942  68.833  1.00  0.00    -0.220 OA 
BRANCH   5   6
HETATM    6  C   UNL     1     -11.057  15.379  68.504  1.00  0.00    -0.295 C  
HETATM    7  O   UNL     1     -11.363  16.543  68.302  1.00  0.00    -0.331 OA 
BRANCH   6   8
HETATM    8  C   UNL     1     -12.019  14.207  68.428  1.00  0.00    -0.366 C  
BRANCH   8   9
HETATM    9  C   UNL     1     -11.535  13.069  67.559  1.00  0.00    -0.375 A  
HETATM   10  C   UNL     1     -11.792  13.158  66.175  1.00  0.00    -0.453 A  
HETATM   11  C   UNL     1     -11.356  12.170  65.295  1.00  0.00    -0.386 A  
HETATM   12  C   UNL     1     -10.621  11.096  65.774  1.00  0.00    -0.289 A  
HETATM   13  C   UNL     1     -10.379  10.979  67.144  1.00  0.00    -0.259 A  
HETATM   14  C   UNL     1     -10.873  11.923  68.056  1.00  0.00    -0.216 A  
BRANCH  14  15
HETATM   15  N   UNL     1     -10.758  11.666  69.440  1.00  0.00    -0.436 NA 
HETATM   16  H   UNL     1     -10.157  12.324  69.937  1.00  0.00     0.000 HD 
BRANCH  15  17
HETATM   17  C   UNL     1     -11.329  10.656  70.271  1.00  0.00    -0.319 A  
HETATM   18  C   UNL     1     -12.429  11.027  71.084  1.00  0.00    -0.397 A  
HETATM   19  C   UNL     1     -13.183  10.085  71.794  1.00  0.00    -0.540 A  
HETATM   20 CL   UNL     1     -12.903  12.689  71.238  1.00  0.00    -0.409 Cl 
HETATM   21  C   UNL     1     -12.849   8.740  71.730  1.00  0.00    -0.406 A  
HETATM   22  C   UNL     1     -11.716   8.355  71.020  1.00  0.00    -0.296 A  
HETATM   23  C   UNL     1     -10.946   9.297  70.313  1.00  0.00    -0.247 A  
HETATM   24 CL   UNL     1      -9.598   8.622  69.464  1.00  0.00    -0.168 Cl 
ENDBRANCH  15  17
ENDBRANCH  14  15
ENDBRANCH   8   9
ENDBRANCH   6   8
ENDBRANCH   5   6
ENDBRANCH   4   5
TORSDOF 6
ENDMDL
MODEL      117
REMARK 921   NORMALIZED FREE ENERGY PREDICTED BY IDOCK:   -5.32 KCAL/MOL
REMARK 922        TOTAL FREE ENERGY PREDICTED BY IDOCK:   -8.15 KCAL/MOL
REMARK 923 INTER-LIGAND FREE ENERGY PREDICTED BY IDOCK:   -7.73 KCAL/MOL
REMARK 924 INTRA-LIGAND FREE ENERGY PREDICTED BY IDOCK:   -0.42 KCAL/MOL
REMARK 927      BINDING AFFINITY PREDICTED BY RF-SCORE:    0.00 PKD
ROOT
HETATM    1  O   UNL     1      -8.933  16.303  66.065  1.00  0.00    -0.331 OA 
HETATM    2  C   UNL     1     -10.150  15.988  65.559  1.00  0.00    -0.304 C  
HETATM    3  O   UNL     1     -10.774  16.759  64.846  1.00  0.00    -0.721 OA 
HETATM    4  C   UNL     1     -10.628  14.602  65.975  1.00  0.00    -0.309 C  
ENDROOT
BRANCH   4   5
HETATM    5  O   UNL     1     -11.946  14.349  65.470  1.00  0.00    -0.362 OA 
BRANCH   5   6
HETATM    6  C   UNL     1     -12.333  13.047  65.431  1.00  0.00    -0.486 C  
HETATM    7  O   UNL     1     -13.143  12.577  64.649  1.00  0.00    -0.845 OA 
BRANCH   6   8
HETATM    8  C   UNL     1     -11.614  12.256  66.509  1.00  0.00    -0.440 C  
BRANCH   8   9
HETATM    9  C   UNL     1     -10.680  11.195  65.974  1.00  0.00    -0.272 A  
HETATM   10  C   UNL     1     -10.000  11.479  64.772  1.00  0.00    -0.304 A  
HETATM   11  C   UNL     1      -9.097  10.572  64.222  1.00  0.00    -0.256 A  
HETATM   12  C   UNL     1      -8.825   9.383  64.883  1.00  0.00    -0.240 A  
HETATM   13  C   UNL     1      -9.508   9.075  66.061  1.00  0.00    -0.323 A  
HETATM   14  C   UNL     1     -10.476   9.940  66.592  1.00  0.00    -0.169 A  
BRANCH  14  15
HETATM   15  N   UNL     1     -11.265   9.504  67.679  1.00  0.00    -0.413 NA 
HETATM   16  H   UNL     1     -12.265   9.479  67.484  1.00  0.00     0.000 HD 
BRANCH  15  17
HETATM   17  C   UNL     1     -10.917   9.091  69.001  1.00  0.00     0.027 A  
HETATM   18  C   UNL     1     -11.163  10.009  70.054  1.00  0.00    -0.288 A  
HETATM   19  C   UNL     1     -11.038   9.649  71.401  1.00  0.00    -0.397 A  
HETATM   20 CL   UNL     1     -11.640  11.644  69.719  1.00  0.00    -0.383 Cl 
HETATM   21  C   UNL     1     -10.643   8.363  71.740  1.00  0.00    -0.352 A  
HETATM   22  C   UNL     1     -10.300   7.470  70.731  1.00  0.00    -0.205 A  
HETATM   23  C   UNL     1     -10.412   7.827  69.374  1.00  0.00    -0.220 A  
HETATM   24 CL   UNL     1      -9.974   6.571  68.268  1.00  0.00    -0.138 Cl 
ENDBRANCH  15  17
ENDBRANCH  14  15
ENDBRANCH   8   9
ENDBRANCH   6   8
ENDBRANCH   5   6
ENDBRANCH   4   5
TORSDOF 6
ENDMDL
MODEL      118
REMARK 921   NORMALIZED FREE ENERGY PREDICTED BY IDOCK:   -5.32 KCAL/MOL
REMARK 922        TOTAL FREE ENERGY PREDICTED BY IDOCK:   -8.15 KCAL/MOL
REMARK 923 INTER-LIGAND FREE ENERGY PREDICTED BY IDOCK:   -7.19 KCAL/MOL
REMARK 924 INTRA-LIGAND FREE ENERGY PREDICTED BY IDOCK:   -0.95 KCAL/MOL
REMARK 927      BINDING AFFINITY PREDICTED BY RF-SCORE:    0.00 PKD
ROOT
HETATM    1  O   UNL     1     -13.245  14.193  72.626  1.00  0.00    -0.466 OA 
HETATM    2  C   UNL     1     -12.913  14.363  71.322  1.00  0.00    -0.344 C  
HETATM    3  O   UNL     1     -13.157  15.397  70.721  1.00  0.00    -0.453 OA 
HETATM    4  C   UNL     1     -12.222  13.144  70.721  1.00  0.00    -0.290 C  
ENDROOT
BRANCH   4   5
HETATM    5  O   UNL     1     -11.956  13.351  69.327  1.00  0.00    -0.314 OA 
BRANCH   5   6
HETATM    6  C   UNL     1     -11.745  12.233  68.585  1.00  0.00    -0.328 C  
HETATM    7  O   UNL     1     -12.362  11.186  68.698  1.00  0.00    -0.549 OA 
BRANCH   6   8
HETATM    8  C   UNL     1     -10.621  12.470  67.592  1.00  0.00    -0.234 C  
BRANCH   8   9
HETATM    9  C   UNL     1     -11.040  12.340  66.146  1.00  0.00    -0.349 A  
HETATM   10  C   UNL     1     -12.242  12.969  65.762  1.00  0.00    -0.511 A  
HETATM   11  C   UNL     1     -12.689  12.928  64.444  1.00  0.00    -0.322 A  
HETATM   12  C   UNL     1     -11.925  12.292  63.476  1.00  0.00    -0.625 A  
HETATM   13  C   UNL     1     -10.746  11.642  63.844  1.00  0.00    -0.459 A  
HETATM   14  C   UNL     1     -10.316  11.608  65.178  1.00  0.00    -0.279 A  
BRANCH  14  15
HETATM   15  N   UNL     1      -9.218  10.789  65.525  1.00  0.00    -0.194 NA 
HETATM   16  H   UNL     1      -8.444  11.292  65.958  1.00  0.00     0.000 HD 
BRANCH  15  17
HETATM   17  C   UNL     1      -8.995   9.387  65.379  1.00  0.00    -0.206 A  
HETATM   18  C   UNL     1      -8.142   8.970  64.325  1.00  0.00    -0.151 A  
HETATM   19  C   UNL     1      -7.704   7.647  64.200  1.00  0.00    -0.128 A  
HETATM   20 CL   UNL     1      -7.593  10.097  63.125  1.00  0.00    -0.147 Cl 
HETATM   21  C   UNL     1      -8.119   6.690  65.115  1.00  0.00    -0.133 A  
HETATM   22  C   UNL     1      -9.032   7.046  66.101  1.00  0.00    -0.162 A  
HETATM   23  C   UNL     1      -9.487   8.372  66.228  1.00  0.00    -0.224 A  
HETATM   24 CL   UNL     1     -10.591   8.625  67.536  1.00  0.00    -0.325 Cl 
ENDBRANCH  15  17
ENDBRANCH  14  15
ENDBRANCH   8   9
ENDBRANCH   6   8
ENDBRANCH   5   6
ENDBRANCH   4   5
TORSDOF 6
ENDMDL
MODEL      119
REMARK 921   NORMALIZED FREE ENERGY PREDICTED BY IDOCK:   -5.32 KCAL/MOL
REMARK 922        TOTAL FREE ENERGY PREDICTED BY IDOCK:   -8.15 KCAL/MOL
REMARK 923 INTER-LIGAND FREE ENERGY PREDICTED BY IDOCK:   -7.10 KCAL/MOL
REMARK 924 INTRA-LIGAND FREE ENERGY PREDICTED BY IDOCK:   -1.05 KCAL/MOL
REMARK 927      BINDING AFFINITY PREDICTED BY RF-SCORE:    0.00 PKD
ROOT
HETATM    1  O   UNL     1      -6.126  14.722  68.029  1.00  0.00    -0.130 OA 
HETATM    2  C   UNL     1      -7.046  13.878  67.503  1.00  0.00    -0.158 C  
HETATM    3  O   UNL     1      -6.797  12.703  67.283  1.00  0.00    -0.153 OA 
HETATM    4  C   UNL     1      -8.385  14.553  67.227  1.00  0.00    -0.212 C  
ENDROOT
BRANCH   4   5
HETATM    5  O   UNL     1      -9.297  13.634  66.610  1.00  0.00    -0.262 OA 
BRANCH   5   6
HETATM    6  C   UNL     1     -10.476  14.156  66.182  1.00  0.00    -0.296 C  
HETATM    7  O   UNL     1     -10.594  15.035  65.344  1.00  0.00    -0.322 OA 
BRANCH   6   8
HETATM    8  C   UNL     1     -11.633  13.492  66.906  1.00  0.00    -0.398 C  
BRANCH   8   9
HETATM    9  C   UNL     1     -11.790  13.926  68.345  1.00  0.00    -0.409 A  
HETATM   10  C   UNL     1     -11.661  15.302  68.623  1.00  0.00    -0.370 A  
HETATM   11  C   UNL     1     -11.820  15.795  69.916  1.00  0.00    -0.355 A  
HETATM   12  C   UNL     1     -12.151  14.930  70.948  1.00  0.00    -0.377 A  
HETATM   13  C   UNL     1     -12.257  13.561  70.695  1.00  0.00    -0.434 A  
HETATM   14  C   UNL     1     -12.028  13.035  69.416  1.00  0.00    -0.281 A  
BRANCH  14  15
HETATM   15  N   UNL     1     -11.970  11.633  69.251  1.00  0.00    -0.327 NA 
HETATM   16  H   UNL     1     -12.510  11.285  68.458  1.00  0.00     0.000 HD 
BRANCH  15  17
HETATM   17  C   UNL     1     -11.295  10.615  69.989  1.00  0.00    -0.324 A  
HETATM   18  C   UNL     1     -10.009  10.226  69.536  1.00  0.00    -0.228 A  
HETATM   19  C   UNL     1      -9.180   9.379  70.280  1.00  0.00    -0.285 A  
HETATM   20 CL   UNL     1      -9.391  10.793  68.016  1.00  0.00    -0.147 Cl 
HETATM   21  C   UNL     1      -9.618   8.876  71.496  1.00  0.00    -0.362 A  
HETATM   22  C   UNL     1     -10.912   9.159  71.922  1.00  0.00    -0.372 A  
HETATM   23  C   UNL     1     -11.756  10.000  71.174  1.00  0.00    -0.387 A  
HETATM   24 CL   UNL     1     -13.312  10.261  71.883  1.00  0.00    -0.511 Cl 
ENDBRANCH  15  17
ENDBRANCH  14  15
ENDBRANCH   8   9
ENDBRANCH   6   8
ENDBRANCH   5   6
ENDBRANCH   4   5
TORSDOF 6
ENDMDL
MODEL      120
REMARK 921   NORMALIZED FREE ENERGY PREDICTED BY IDOCK:   -5.29 KCAL/MOL
REMARK 922        TOTAL FREE ENERGY PREDICTED BY IDOCK:   -8.10 KCAL/MOL
REMARK 923 INTER-LIGAND FREE ENERGY PREDICTED BY IDOCK:   -7.25 KCAL/MOL
REMARK 924 INTRA-LIGAND FREE ENERGY PREDICTED BY IDOCK:   -0.85 KCAL/MOL
REMARK 927      BINDING AFFINITY PREDICTED BY RF-SCORE:    0.00 PKD
ROOT
HETATM    1  O   UNL     1     -13.322  10.488  72.176  1.00  0.00    -0.437 OA 
HETATM    2  C   UNL     1     -12.491  10.684  71.123  1.00  0.00    -0.418 C  
HETATM    3  O   UNL     1     -11.895   9.762  70.588  1.00  0.00    -0.273 OA 
HETATM    4  C   UNL     1     -12.394  12.147  70.704  1.00  0.00    -0.295 C  
ENDROOT
BRANCH   4   5
HETATM    5  O   UNL     1     -11.453  12.305  69.635  1.00  0.00    -0.266 OA 
BRANCH   5   6
HETATM    6  C   UNL     1     -11.311  13.563  69.142  1.00  0.00    -0.282 C  
HETATM    7  O   UNL     1     -11.893  14.551  69.559  1.00  0.00    -0.291 OA 
BRANCH   6   8
HETATM    8  C   UNL     1     -10.325  13.564  67.988  1.00  0.00    -0.241 C  
BRANCH   8   9
HETATM    9  C   UNL     1     -10.935  13.942  66.658  1.00  0.00    -0.302 A  
HETATM   10  C   UNL     1     -12.132  13.295  66.288  1.00  0.00    -0.472 A  
HETATM   11  C   UNL     1     -12.780  13.603  65.095  1.00  0.00    -0.443 A  
HETATM   12  C   UNL     1     -12.268  14.591  64.267  1.00  0.00    -0.441 A  
HETATM   13  C   UNL     1     -11.070  15.224  64.605  1.00  0.00    -0.346 A  
HETATM   14  C   UNL     1     -10.362  14.876  65.765  1.00  0.00    -0.332 A  
BRANCH  14  15
HETATM   15  N   UNL     1      -9.072  15.414  65.969  1.00  0.00    -0.421 NA 
HETATM   16  H   UNL     1      -8.366  15.055  65.326  1.00  0.00     0.000 HD 
BRANCH  15  17
HETATM   17  C   UNL     1      -8.576  16.365  66.909  1.00  0.00    -0.214 A  
HETATM   18  C   UNL     1      -7.459  15.983  67.694  1.00  0.00    -0.150 A  
HETATM   19  C   UNL     1      -6.774  16.891  68.510  1.00  0.00    -0.168 A  
HETATM   20 CL   UNL     1      -6.876  14.348  67.677  1.00  0.00    -0.196 Cl 
HETATM   21  C   UNL     1      -7.197  18.210  68.584  1.00  0.00    -0.288 A  
HETATM   22  C   UNL     1      -8.348  18.593  67.904  1.00  0.00    -0.293 A  
HETATM   23  C   UNL     1      -9.049  17.683  67.090  1.00  0.00    -0.244 A  
HETATM   24 CL   UNL     1     -10.433  18.355  66.299  1.00  0.00    -0.434 Cl 
ENDBRANCH  15  17
ENDBRANCH  14  15
ENDBRANCH   8   9
ENDBRANCH   6   8
ENDBRANCH   5   6
ENDBRANCH   4   5
TORSDOF 6
ENDMDL
MODEL      121
REMARK 921   NORMALIZED FREE ENERGY PREDICTED BY IDOCK:   -5.28 KCAL/MOL
REMARK 922        TOTAL FREE ENERGY PREDICTED BY IDOCK:   -8.10 KCAL/MOL
REMARK 923 INTER-LIGAND FREE ENERGY PREDICTED BY IDOCK:   -7.09 KCAL/MOL
REMARK 924 INTRA-LIGAND FREE ENERGY PREDICTED BY IDOCK:   -1.01 KCAL/MOL
REMARK 927      BINDING AFFINITY PREDICTED BY RF-SCORE:    0.00 PKD
ROOT
HETATM    1  O   UNL     1     -12.933  13.483  72.139  1.00  0.00    -0.340 OA 
HETATM    2  C   UNL     1     -12.819  14.083  70.929  1.00  0.00    -0.318 C  
HETATM    3  O   UNL     1     -13.198  15.227  70.735  1.00  0.00    -0.426 OA 
HETATM    4  C   UNL     1     -12.183  13.182  69.876  1.00  0.00    -0.225 C  
ENDROOT
BRANCH   4   5
HETATM    5  O   UNL     1     -12.150  13.840  68.603  1.00  0.00    -0.359 OA 
BRANCH   5   6
HETATM    6  C   UNL     1     -11.682  13.105  67.561  1.00  0.00    -0.366 C  
HETATM    7  O   UNL     1     -11.957  11.936  67.344  1.00  0.00    -0.603 OA 
BRANCH   6   8
HETATM    8  C   UNL     1     -10.757  13.947  66.701  1.00  0.00    -0.281 C  
BRANCH   8   9
HETATM    9  C   UNL     1      -9.334  14.011  67.206  1.00  0.00    -0.230 A  
HETATM   10  C   UNL     1      -8.885  12.942  68.009  1.00  0.00    -0.195 A  
HETATM   11  C   UNL     1      -7.580  12.902  68.494  1.00  0.00    -0.120 A  
HETATM   12  C   UNL     1      -6.687  13.907  68.153  1.00  0.00    -0.125 A  
HETATM   13  C   UNL     1      -7.122  14.985  67.380  1.00  0.00    -0.206 A  
HETATM   14  C   UNL     1      -8.451  15.083  66.945  1.00  0.00    -0.236 A  
BRANCH  14  15
HETATM   15  N   UNL     1      -8.884  16.275  66.323  1.00  0.00    -0.308 NA 
HETATM   16  H   UNL     1      -9.076  16.179  65.326  1.00  0.00     0.000 HD 
BRANCH  15  17
HETATM   17  C   UNL     1      -9.102  17.589  66.835  1.00  0.00    -0.254 A  
HETATM   18  C   UNL     1      -8.223  18.612  66.396  1.00  0.00    -0.277 A  
HETATM   19  C   UNL     1      -8.450  19.964  66.681  1.00  0.00    -0.381 A  
HETATM   20 CL   UNL     1      -6.806  18.232  65.469  1.00  0.00    -0.263 Cl 
HETATM   21  C   UNL     1      -9.554  20.337  67.433  1.00  0.00    -0.569 A  
HETATM   22  C   UNL     1     -10.380  19.350  67.961  1.00  0.00    -0.536 A  
HETATM   23  C   UNL     1     -10.153  17.988  67.689  1.00  0.00    -0.347 A  
HETATM   24 CL   UNL     1     -11.307  16.916  68.404  1.00  0.00    -0.122 Cl 
ENDBRANCH  15  17
ENDBRANCH  14  15
ENDBRANCH   8   9
ENDBRANCH   6   8
ENDBRANCH   5   6
ENDBRANCH   4   5
TORSDOF 6
ENDMDL
MODEL      122
REMARK 921   NORMALIZED FREE ENERGY PREDICTED BY IDOCK:   -5.28 KCAL/MOL
REMARK 922        TOTAL FREE ENERGY PREDICTED BY IDOCK:   -8.10 KCAL/MOL
REMARK 923 INTER-LIGAND FREE ENERGY PREDICTED BY IDOCK:   -6.84 KCAL/MOL
REMARK 924 INTRA-LIGAND FREE ENERGY PREDICTED BY IDOCK:   -1.25 KCAL/MOL
REMARK 927      BINDING AFFINITY PREDICTED BY RF-SCORE:    0.00 PKD
ROOT
HETATM    1  O   UNL     1     -13.360  12.054  72.033  1.00  0.00    -0.495 OA 
HETATM    2  C   UNL     1     -12.910  10.842  71.626  1.00  0.00    -0.449 C  
HETATM    3  O   UNL     1     -13.249   9.807  72.177  1.00  0.00    -0.433 OA 
HETATM    4  C   UNL     1     -11.960  10.929  70.436  1.00  0.00    -0.362 C  
ENDROOT
BRANCH   4   5
HETATM    5  O   UNL     1     -11.463   9.629  70.092  1.00  0.00    -0.242 OA 
BRANCH   5   6
HETATM    6  C   UNL     1     -10.211   9.332  70.526  1.00  0.00    -0.251 C  
HETATM    7  O   UNL     1      -9.872   9.248  71.695  1.00  0.00    -0.278 OA 
BRANCH   6   8
HETATM    8  C   UNL     1      -9.283   9.124  69.342  1.00  0.00    -0.156 C  
BRANCH   8   9
HETATM    9  C   UNL     1      -8.515  10.362  68.937  1.00  0.00    -0.144 A  
HETATM   10  C   UNL     1      -7.320  10.636  69.633  1.00  0.00    -0.133 A  
HETATM   11  C   UNL     1      -6.532  11.738  69.307  1.00  0.00    -0.107 A  
HETATM   12  C   UNL     1      -6.901  12.562  68.254  1.00  0.00    -0.082 A  
HETATM   13  C   UNL     1      -8.095  12.319  67.572  1.00  0.00    -0.170 A  
HETATM   14  C   UNL     1      -8.940  11.260  67.933  1.00  0.00    -0.146 A  
BRANCH  14  15
HETATM   15  N   UNL     1     -10.216  11.166  67.334  1.00  0.00    -0.185 NA 
HETATM   16  H   UNL     1     -10.829  10.476  67.769  1.00  0.00     0.000 HD 
BRANCH  15  17
HETATM   17  C   UNL     1     -10.803  11.858  66.233  1.00  0.00    -0.282 A  
HETATM   18  C   UNL     1     -10.656  11.278  64.947  1.00  0.00    -0.300 A  
HETATM   19  C   UNL     1     -11.342  11.763  63.827  1.00  0.00    -0.524 A  
HETATM   20 CL   UNL     1      -9.606   9.919  64.697  1.00  0.00    -0.360 Cl 
HETATM   21  C   UNL     1     -12.184  12.858  63.952  1.00  0.00    -0.525 A  
HETATM   22  C   UNL     1     -12.274  13.510  65.178  1.00  0.00    -0.462 A  
HETATM   23  C   UNL     1     -11.579  13.036  66.306  1.00  0.00    -0.360 A  
HETATM   24 CL   UNL     1     -11.845  13.957  67.746  1.00  0.00    -0.399 Cl 
ENDBRANCH  15  17
ENDBRANCH  14  15
ENDBRANCH   8   9
ENDBRANCH   6   8
ENDBRANCH   5   6
ENDBRANCH   4   5
TORSDOF 6
ENDMDL
MODEL      123
REMARK 921   NORMALIZED FREE ENERGY PREDICTED BY IDOCK:   -5.28 KCAL/MOL
REMARK 922        TOTAL FREE ENERGY PREDICTED BY IDOCK:   -8.09 KCAL/MOL
REMARK 923 INTER-LIGAND FREE ENERGY PREDICTED BY IDOCK:   -7.31 KCAL/MOL
REMARK 924 INTRA-LIGAND FREE ENERGY PREDICTED BY IDOCK:   -0.78 KCAL/MOL
REMARK 927      BINDING AFFINITY PREDICTED BY RF-SCORE:    0.00 PKD
ROOT
HETATM    1  O   UNL     1     -13.068  15.415  72.941  1.00  0.00    -0.402 OA 
HETATM    2  C   UNL     1     -13.256  15.058  71.646  1.00  0.00    -0.377 C  
HETATM    3  O   UNL     1     -14.026  15.660  70.914  1.00  0.00    -0.479 OA 
HETATM    4  C   UNL     1     -12.417  13.855  71.233  1.00  0.00    -0.359 C  
ENDROOT
BRANCH   4   5
HETATM    5  O   UNL     1     -12.705  13.480  69.879  1.00  0.00    -0.101 OA 
BRANCH   5   6
HETATM    6  C   UNL     1     -11.825  12.626  69.294  1.00  0.00    -0.302 C  
HETATM    7  O   UNL     1     -11.913  11.408  69.306  1.00  0.00    -0.316 OA 
BRANCH   6   8
HETATM    8  C   UNL     1     -10.707  13.404  68.625  1.00  0.00    -0.275 C  
BRANCH   8   9
HETATM    9  C   UNL     1     -11.016  13.830  67.208  1.00  0.00    -0.302 A  
HETATM   10  C   UNL     1     -11.917  13.031  66.475  1.00  0.00    -0.457 A  
HETATM   11  C   UNL     1     -12.284  13.365  65.173  1.00  0.00    -0.473 A  
HETATM   12  C   UNL     1     -11.788  14.524  64.593  1.00  0.00    -0.462 A  
HETATM   13  C   UNL     1     -10.875  15.312  65.295  1.00  0.00    -0.417 A  
HETATM   14  C   UNL     1     -10.436  14.955  66.578  1.00  0.00    -0.297 A  
BRANCH  14  15
HETATM   15  N   UNL     1      -9.381  15.684  67.170  1.00  0.00    -0.213 NA 
HETATM   16  H   UNL     1      -8.594  15.108  67.468  1.00  0.00     0.000 HD 
BRANCH  15  17
HETATM   17  C   UNL     1      -9.216  17.077  67.428  1.00  0.00    -0.234 A  
HETATM   18  C   UNL     1     -10.124  17.684  68.334  1.00  0.00    -0.368 A  
HETATM   19  C   UNL     1      -9.947  18.990  68.804  1.00  0.00    -0.475 A  
HETATM   20 CL   UNL     1     -11.514  16.821  68.912  1.00  0.00    -0.039 Cl 
HETATM   21  C   UNL     1      -8.866  19.742  68.369  1.00  0.00    -0.306 A  
HETATM   22  C   UNL     1      -8.014  19.213  67.407  1.00  0.00    -0.283 A  
HETATM   23  C   UNL     1      -8.190  17.904  66.920  1.00  0.00    -0.237 A  
HETATM   24 CL   UNL     1      -7.009  17.411  65.756  1.00  0.00    -0.139 Cl 
ENDBRANCH  15  17
ENDBRANCH  14  15
ENDBRANCH   8   9
ENDBRANCH   6   8
ENDBRANCH   5   6
ENDBRANCH   4   5
TORSDOF 6
ENDMDL
MODEL      124
REMARK 921   NORMALIZED FREE ENERGY PREDICTED BY IDOCK:   -5.27 KCAL/MOL
REMARK 922        TOTAL FREE ENERGY PREDICTED BY IDOCK:   -8.08 KCAL/MOL
REMARK 923 INTER-LIGAND FREE ENERGY PREDICTED BY IDOCK:   -7.03 KCAL/MOL
REMARK 924 INTRA-LIGAND FREE ENERGY PREDICTED BY IDOCK:   -1.05 KCAL/MOL
REMARK 927      BINDING AFFINITY PREDICTED BY RF-SCORE:    0.00 PKD
ROOT
HETATM    1  O   UNL     1     -14.255   7.030  71.682  1.00  0.00    -0.369 OA 
HETATM    2  C   UNL     1     -13.002   7.469  71.410  1.00  0.00    -0.335 C  
HETATM    3  O   UNL     1     -12.175   6.766  70.850  1.00  0.00    -0.385 OA 
HETATM    4  C   UNL     1     -12.759   8.901  71.874  1.00  0.00    -0.376 C  
ENDROOT
BRANCH   4   5
HETATM    5  O   UNL     1     -11.402   9.290  71.623  1.00  0.00    -0.358 OA 
BRANCH   5   6
HETATM    6  C   UNL     1     -11.201  10.115  70.563  1.00  0.00    -0.336 C  
HETATM    7  O   UNL     1     -11.581  11.273  70.490  1.00  0.00    -0.298 OA 
BRANCH   6   8
HETATM    8  C   UNL     1     -10.438   9.387  69.471  1.00  0.00    -0.229 C  
BRANCH   8   9
HETATM    9  C   UNL     1      -9.292  10.180  68.887  1.00  0.00    -0.179 A  
HETATM   10  C   UNL     1      -8.158  10.372  69.701  1.00  0.00    -0.116 A  
HETATM   11  C   UNL     1      -7.043  11.064  69.234  1.00  0.00    -0.123 A  
HETATM   12  C   UNL     1      -7.024  11.542  67.932  1.00  0.00    -0.075 A  
HETATM   13  C   UNL     1      -8.148  11.383  67.121  1.00  0.00    -0.155 A  
HETATM   14  C   UNL     1      -9.309  10.755  67.596  1.00  0.00    -0.147 A  
BRANCH  14  15
HETATM   15  N   UNL     1     -10.477  10.779  66.802  1.00  0.00    -0.243 NA 
HETATM   16  H   UNL     1     -11.077   9.963  66.919  1.00  0.00     0.000 HD 
BRANCH  15  17
HETATM   17  C   UNL     1     -10.970  11.736  65.865  1.00  0.00    -0.304 A  
HETATM   18  C   UNL     1     -10.777  11.458  64.488  1.00  0.00    -0.327 A  
HETATM   19  C   UNL     1     -11.377  12.223  63.481  1.00  0.00    -0.549 A  
HETATM   20 CL   UNL     1      -9.777  10.134  63.978  1.00  0.00    -0.344 Cl 
HETATM   21  C   UNL     1     -12.175  13.307  63.817  1.00  0.00    -0.508 A  
HETATM   22  C   UNL     1     -12.304  13.665  65.155  1.00  0.00    -0.486 A  
HETATM   23  C   UNL     1     -11.695  12.908  66.173  1.00  0.00    -0.396 A  
HETATM   24 CL   UNL     1     -12.000  13.490  67.774  1.00  0.00    -0.389 Cl 
ENDBRANCH  15  17
ENDBRANCH  14  15
ENDBRANCH   8   9
ENDBRANCH   6   8
ENDBRANCH   5   6
ENDBRANCH   4   5
TORSDOF 6
ENDMDL
MODEL      125
REMARK 921   NORMALIZED FREE ENERGY PREDICTED BY IDOCK:   -5.26 KCAL/MOL
REMARK 922        TOTAL FREE ENERGY PREDICTED BY IDOCK:   -8.06 KCAL/MOL
REMARK 923 INTER-LIGAND FREE ENERGY PREDICTED BY IDOCK:   -7.35 KCAL/MOL
REMARK 924 INTRA-LIGAND FREE ENERGY PREDICTED BY IDOCK:   -0.71 KCAL/MOL
REMARK 927      BINDING AFFINITY PREDICTED BY RF-SCORE:    0.00 PKD
ROOT
HETATM    1  O   UNL     1     -14.361  13.663  72.827  1.00  0.00    -0.622 OA 
HETATM    2  C   UNL     1     -13.464  13.012  72.046  1.00  0.00    -0.492 C  
HETATM    3  O   UNL     1     -13.272  11.811  72.143  1.00  0.00    -0.498 OA 
HETATM    4  C   UNL     1     -12.750  13.935  71.065  1.00  0.00    -0.357 C  
ENDROOT
BRANCH   4   5
HETATM    5  O   UNL     1     -11.767  13.210  70.314  1.00  0.00    -0.250 OA 
BRANCH   5   6
HETATM    6  C   UNL     1     -12.107  12.885  69.040  1.00  0.00    -0.154 C  
HETATM    7  O   UNL     1     -12.376  13.684  68.157  1.00  0.00    -0.233 OA 
BRANCH   6   8
HETATM    8  C   UNL     1     -12.113  11.377  68.869  1.00  0.00    -0.285 C  
BRANCH   8   9
HETATM    9  C   UNL     1     -10.847  10.699  69.341  1.00  0.00    -0.289 A  
HETATM   10  C   UNL     1     -10.932   9.915  70.510  1.00  0.00    -0.391 A  
HETATM   11  C   UNL     1      -9.823   9.230  71.002  1.00  0.00    -0.355 A  
HETATM   12  C   UNL     1      -8.620   9.282  70.313  1.00  0.00    -0.234 A  
HETATM   13  C   UNL     1      -8.512  10.074  69.169  1.00  0.00    -0.156 A  
HETATM   14  C   UNL     1      -9.595  10.831  68.700  1.00  0.00    -0.187 A  
BRANCH  14  15
HETATM   15  N   UNL     1      -9.385  11.751  67.649  1.00  0.00    -0.176 NA 
HETATM   16  H   UNL     1      -8.774  12.531  67.894  1.00  0.00     0.000 HD 
BRANCH  15  17
HETATM   17  C   UNL     1      -9.871  11.790  66.308  1.00  0.00    -0.221 A  
HETATM   18  C   UNL     1     -10.055  13.068  65.719  1.00  0.00    -0.287 A  
HETATM   19  C   UNL     1     -10.346  13.228  64.360  1.00  0.00    -0.372 A  
HETATM   20 CL   UNL     1      -9.923  14.514  66.670  1.00  0.00    -0.265 Cl 
HETATM   21  C   UNL     1     -10.483  12.113  63.545  1.00  0.00    -0.490 A  
HETATM   22  C   UNL     1     -10.406  10.845  64.111  1.00  0.00    -0.432 A  
HETATM   23  C   UNL     1     -10.125  10.675  65.480  1.00  0.00    -0.280 A  
HETATM   24 CL   UNL     1     -10.034   9.024  65.989  1.00  0.00    -0.326 Cl 
ENDBRANCH  15  17
ENDBRANCH  14  15
ENDBRANCH   8   9
ENDBRANCH   6   8
ENDBRANCH   5   6
ENDBRANCH   4   5
TORSDOF 6
ENDMDL
MODEL      126
REMARK 921   NORMALIZED FREE ENERGY PREDICTED BY IDOCK:   -5.25 KCAL/MOL
REMARK 922        TOTAL FREE ENERGY PREDICTED BY IDOCK:   -8.05 KCAL/MOL
REMARK 923 INTER-LIGAND FREE ENERGY PREDICTED BY IDOCK:   -7.34 KCAL/MOL
REMARK 924 INTRA-LIGAND FREE ENERGY PREDICTED BY IDOCK:   -0.71 KCAL/MOL
REMARK 927      BINDING AFFINITY PREDICTED BY RF-SCORE:    0.00 PKD
ROOT
HETATM    1  O   UNL     1     -12.734  14.606  71.515  1.00  0.00    -0.305 OA 
HETATM    2  C   UNL     1     -13.377  13.512  71.991  1.00  0.00    -0.475 C  
HETATM    3  O   UNL     1     -14.304  13.598  72.781  1.00  0.00    -0.622 OA 
HETATM    4  C   UNL     1     -12.819  12.205  71.438  1.00  0.00    -0.276 C  
ENDROOT
BRANCH   4   5
HETATM    5  O   UNL     1     -13.488  11.081  72.025  1.00  0.00    -0.378 OA 
BRANCH   5   6
HETATM    6  C   UNL     1     -13.276   9.879  71.429  1.00  0.00    -0.400 C  
HETATM    7  O   UNL     1     -13.925   8.867  71.636  1.00  0.00    -0.392 OA 
BRANCH   6   8
HETATM    8  C   UNL     1     -12.107   9.973  70.466  1.00  0.00    -0.338 C  
BRANCH   8   9
HETATM    9  C   UNL     1     -10.811   9.421  71.014  1.00  0.00    -0.406 A  
HETATM   10  C   UNL     1     -10.888   8.636  72.183  1.00  0.00    -0.424 A  
HETATM   11  C   UNL     1      -9.749   8.061  72.742  1.00  0.00    -0.348 A  
HETATM   12  C   UNL     1      -8.518   8.226  72.122  1.00  0.00    -0.239 A  
HETATM   13  C   UNL     1      -8.421   9.020  70.979  1.00  0.00    -0.254 A  
HETATM   14  C   UNL     1      -9.543   9.669  70.443  1.00  0.00    -0.234 A  
BRANCH  14  15
HETATM   15  N   UNL     1      -9.362  10.602  69.398  1.00  0.00    -0.392 NA 
HETATM   16  H   UNL     1      -8.760  11.389  69.642  1.00  0.00     0.000 HD 
BRANCH  15  17
HETATM   17  C   UNL     1      -9.867  10.646  68.064  1.00  0.00    -0.160 A  
HETATM   18  C   UNL     1     -10.438  11.867  67.624  1.00  0.00    -0.208 A  
HETATM   19  C   UNL     1     -10.794  12.086  66.288  1.00  0.00    -0.316 A  
HETATM   20 CL   UNL     1     -10.723  13.169  68.736  1.00  0.00    -0.267 Cl 
HETATM   21  C   UNL     1     -10.609  11.081  65.349  1.00  0.00    -0.270 A  
HETATM   22  C   UNL     1     -10.144   9.839  65.767  1.00  0.00    -0.308 A  
HETATM   23  C   UNL     1      -9.794   9.607  67.110  1.00  0.00    -0.186 A  
HETATM   24 CL   UNL     1      -9.204   8.012  67.428  1.00  0.00    -0.146 Cl 
ENDBRANCH  15  17
ENDBRANCH  14  15
ENDBRANCH   8   9
ENDBRANCH   6   8
ENDBRANCH   5   6
ENDBRANCH   4   5
TORSDOF 6
ENDMDL
MODEL      127
REMARK 921   NORMALIZED FREE ENERGY PREDICTED BY IDOCK:   -5.25 KCAL/MOL
REMARK 922        TOTAL FREE ENERGY PREDICTED BY IDOCK:   -8.05 KCAL/MOL
REMARK 923 INTER-LIGAND FREE ENERGY PREDICTED BY IDOCK:   -7.15 KCAL/MOL
REMARK 924 INTRA-LIGAND FREE ENERGY PREDICTED BY IDOCK:   -0.90 KCAL/MOL
REMARK 927      BINDING AFFINITY PREDICTED BY RF-SCORE:    0.00 PKD
ROOT
HETATM    1  O   UNL     1      -9.321  11.244  62.512  1.00  0.00    -0.323 OA 
HETATM    2  C   UNL     1      -8.978  10.878  63.772  1.00  0.00    -0.113 C  
HETATM    3  O   UNL     1      -7.904  10.356  64.025  1.00  0.00    -0.139 OA 
HETATM    4  C   UNL     1     -10.063  11.187  64.797  1.00  0.00    -0.295 C  
ENDROOT
BRANCH   4   5
HETATM    5  O   UNL     1      -9.678  10.719  66.096  1.00  0.00    -0.193 OA 
BRANCH   5   6
HETATM    6  C   UNL     1      -9.926  11.559  67.134  1.00  0.00    -0.199 C  
HETATM    7  O   UNL     1      -9.076  12.132  67.795  1.00  0.00    -0.175 OA 
BRANCH   6   8
HETATM    8  C   UNL     1     -11.423  11.681  67.361  1.00  0.00    -0.357 C  
BRANCH   8   9
HETATM    9  C   UNL     1     -11.796  12.304  68.686  1.00  0.00    -0.354 A  
HETATM   10  C   UNL     1     -11.896  13.710  68.734  1.00  0.00    -0.395 A  
HETATM   11  C   UNL     1     -12.264  14.368  69.905  1.00  0.00    -0.394 A  
HETATM   12  C   UNL     1     -12.579  13.633  71.039  1.00  0.00    -0.441 A  
HETATM   13  C   UNL     1     -12.460  12.243  71.016  1.00  0.00    -0.361 A  
HETATM   14  C   UNL     1     -12.019  11.566  69.870  1.00  0.00    -0.351 A  
BRANCH  14  15
HETATM   15  N   UNL     1     -11.743  10.183  69.954  1.00  0.00    -0.403 NA 
HETATM   16  H   UNL     1     -12.036   9.650  69.134  1.00  0.00     0.000 HD 
BRANCH  15  17
HETATM   17  C   UNL     1     -11.131   9.395  70.974  1.00  0.00    -0.344 A  
HETATM   18  C   UNL     1     -11.990   8.738  71.892  1.00  0.00    -0.365 A  
HETATM   19  C   UNL     1     -11.517   7.796  72.813  1.00  0.00    -0.415 A  
HETATM   20 CL   UNL     1     -13.693   9.073  71.915  1.00  0.00    -0.462 Cl 
HETATM   21  C   UNL     1     -10.165   7.493  72.861  1.00  0.00    -0.331 A  
HETATM   22  C   UNL     1      -9.283   8.191  72.042  1.00  0.00    -0.253 A  
HETATM   23  C   UNL     1      -9.749   9.148  71.121  1.00  0.00    -0.290 A  
HETATM   24 CL   UNL     1      -8.506   9.884  70.168  1.00  0.00    -0.197 Cl 
ENDBRANCH  15  17
ENDBRANCH  14  15
ENDBRANCH   8   9
ENDBRANCH   6   8
ENDBRANCH   5   6
ENDBRANCH   4   5
TORSDOF 6
ENDMDL
MODEL      128
REMARK 921   NORMALIZED FREE ENERGY PREDICTED BY IDOCK:   -5.24 KCAL/MOL
REMARK 922        TOTAL FREE ENERGY PREDICTED BY IDOCK:   -8.04 KCAL/MOL
REMARK 923 INTER-LIGAND FREE ENERGY PREDICTED BY IDOCK:   -7.14 KCAL/MOL
REMARK 924 INTRA-LIGAND FREE ENERGY PREDICTED BY IDOCK:   -0.90 KCAL/MOL
REMARK 927      BINDING AFFINITY PREDICTED BY RF-SCORE:    0.00 PKD
ROOT
HETATM    1  O   UNL     1     -12.439  15.030  63.652  1.00  0.00    -0.667 OA 
HETATM    2  C   UNL     1     -12.576  14.256  64.757  1.00  0.00    -0.291 C  
HETATM    3  O   UNL     1     -13.130  13.168  64.721  1.00  0.00    -0.728 OA 
HETATM    4  C   UNL     1     -11.974  14.889  66.006  1.00  0.00    -0.049 C  
ENDROOT
BRANCH   4   5
HETATM    5  O   UNL     1     -12.207  14.061  67.154  1.00  0.00    -0.419 OA 
BRANCH   5   6
HETATM    6  C   UNL     1     -11.118  13.436  67.672  1.00  0.00    -0.265 C  
HETATM    7  O   UNL     1     -10.012  13.936  67.796  1.00  0.00    -0.232 OA 
BRANCH   6   8
HETATM    8  C   UNL     1     -11.473  12.015  68.072  1.00  0.00    -0.392 C  
BRANCH   8   9
HETATM    9  C   UNL     1     -10.482  10.977  67.599  1.00  0.00    -0.239 A  
HETATM   10  C   UNL     1     -10.465  10.682  66.220  1.00  0.00    -0.268 A  
HETATM   11  C   UNL     1      -9.565   9.760  65.690  1.00  0.00    -0.329 A  
HETATM   12  C   UNL     1      -8.638   9.146  66.520  1.00  0.00    -0.136 A  
HETATM   13  C   UNL     1      -8.659   9.407  67.891  1.00  0.00    -0.120 A  
HETATM   14  C   UNL     1      -9.605  10.274  68.456  1.00  0.00    -0.161 A  
BRANCH  14  15
HETATM   15  N   UNL     1      -9.700  10.365  69.862  1.00  0.00    -0.418 NA 
HETATM   16  H   UNL     1      -9.298  11.218  70.252  1.00  0.00     0.000 HD 
BRANCH  15  17
HETATM   17  C   UNL     1     -10.254   9.482  70.837  1.00  0.00    -0.286 A  
HETATM   18  C   UNL     1      -9.358   8.618  71.516  1.00  0.00    -0.249 A  
HETATM   19  C   UNL     1      -9.754   7.847  72.615  1.00  0.00    -0.304 A  
HETATM   20 CL   UNL     1      -7.703   8.476  71.012  1.00  0.00    -0.086 Cl 
HETATM   21  C   UNL     1     -11.067   7.900  73.060  1.00  0.00    -0.379 A  
HETATM   22  C   UNL     1     -11.993   8.661  72.355  1.00  0.00    -0.410 A  
HETATM   23  C   UNL     1     -11.606   9.431  71.242  1.00  0.00    -0.364 A  
HETATM   24 CL   UNL     1     -12.890  10.337  70.520  1.00  0.00    -0.348 Cl 
ENDBRANCH  15  17
ENDBRANCH  14  15
ENDBRANCH   8   9
ENDBRANCH   6   8
ENDBRANCH   5   6
ENDBRANCH   4   5
TORSDOF 6
ENDMDL
MODEL      129
REMARK 921   NORMALIZED FREE ENERGY PREDICTED BY IDOCK:   -5.20 KCAL/MOL
REMARK 922        TOTAL FREE ENERGY PREDICTED BY IDOCK:   -7.99 KCAL/MOL
REMARK 923 INTER-LIGAND FREE ENERGY PREDICTED BY IDOCK:   -6.70 KCAL/MOL
REMARK 924 INTRA-LIGAND FREE ENERGY PREDICTED BY IDOCK:   -1.29 KCAL/MOL
REMARK 927      BINDING AFFINITY PREDICTED BY RF-SCORE:    0.00 PKD
ROOT
HETATM    1  O   UNL     1     -12.706  14.369  63.607  1.00  0.00    -0.773 OA 
HETATM    2  C   UNL     1     -11.931  14.737  64.656  1.00  0.00    -0.440 C  
HETATM    3  O   UNL     1     -11.227  15.734  64.623  1.00  0.00    -0.445 OA 
HETATM    4  C   UNL     1     -12.044  13.786  65.842  1.00  0.00    -0.433 C  
ENDROOT
BRANCH   4   5
HETATM    5  O   UNL     1     -11.156  14.183  66.895  1.00  0.00    -0.296 OA 
BRANCH   5   6
HETATM    6  C   UNL     1     -10.700  13.189  67.701  1.00  0.00    -0.238 C  
HETATM    7  O   UNL     1      -9.669  13.229  68.353  1.00  0.00    -0.224 OA 
BRANCH   6   8
HETATM    8  C   UNL     1     -11.658  12.012  67.671  1.00  0.00    -0.392 C  
BRANCH   8   9
HETATM    9  C   UNL     1     -11.669  11.195  68.943  1.00  0.00    -0.406 A  
HETATM   10  C   UNL     1     -12.390  11.714  70.038  1.00  0.00    -0.261 A  
HETATM   11  C   UNL     1     -12.480  11.014  71.239  1.00  0.00    -0.475 A  
HETATM   12  C   UNL     1     -11.887   9.766  71.356  1.00  0.00    -0.488 A  
HETATM   13  C   UNL     1     -11.148   9.249  70.291  1.00  0.00    -0.289 A  
HETATM   14  C   UNL     1     -10.982   9.970  69.099  1.00  0.00    -0.220 A  
BRANCH  14  15
HETATM   15  N   UNL     1     -10.081   9.487  68.125  1.00  0.00    -0.173 NA 
HETATM   16  H   UNL     1     -10.403   8.651  67.638  1.00  0.00     0.000 HD 
BRANCH  15  17
HETATM   17  C   UNL     1      -8.802   9.955  67.697  1.00  0.00    -0.125 A  
HETATM   18  C   UNL     1      -8.653  10.282  66.325  1.00  0.00    -0.137 A  
HETATM   19  C   UNL     1      -7.511  10.921  65.830  1.00  0.00    -0.048 A  
HETATM   20 CL   UNL     1      -9.900   9.902  65.179  1.00  0.00    -0.383 Cl 
HETATM   21  C   UNL     1      -6.468  11.238  66.688  1.00  0.00    -0.128 A  
HETATM   22  C   UNL     1      -6.541  10.843  68.020  1.00  0.00    -0.062 A  
HETATM   23  C   UNL     1      -7.681  10.189  68.524  1.00  0.00    -0.090 A  
HETATM   24 CL   UNL     1      -7.598   9.810  70.210  1.00  0.00    -0.175 Cl 
ENDBRANCH  15  17
ENDBRANCH  14  15
ENDBRANCH   8   9
ENDBRANCH   6   8
ENDBRANCH   5   6
ENDBRANCH   4   5
TORSDOF 6
ENDMDL
MODEL      130
REMARK 921   NORMALIZED FREE ENERGY PREDICTED BY IDOCK:   -5.19 KCAL/MOL
REMARK 922        TOTAL FREE ENERGY PREDICTED BY IDOCK:   -7.97 KCAL/MOL
REMARK 923 INTER-LIGAND FREE ENERGY PREDICTED BY IDOCK:   -6.78 KCAL/MOL
REMARK 924 INTRA-LIGAND FREE ENERGY PREDICTED BY IDOCK:   -1.19 KCAL/MOL
REMARK 927      BINDING AFFINITY PREDICTED BY RF-SCORE:    0.00 PKD
ROOT
HETATM    1  O   UNL     1     -14.403  15.324  71.950  1.00  0.00    -0.523 OA 
HETATM    2  C   UNL     1     -13.439  14.378  71.837  1.00  0.00    -0.393 C  
HETATM    3  O   UNL     1     -13.058  13.724  72.795  1.00  0.00    -0.462 OA 
HETATM    4  C   UNL     1     -12.908  14.236  70.415  1.00  0.00    -0.218 C  
ENDROOT
BRANCH   4   5
HETATM    5  O   UNL     1     -11.846  13.273  70.366  1.00  0.00    -0.293 OA 
BRANCH   5   6
HETATM    6  C   UNL     1     -11.589  12.727  69.149  1.00  0.00    -0.319 C  
HETATM    7  O   UNL     1     -11.847  11.580  68.823  1.00  0.00    -0.314 OA 
BRANCH   6   8
HETATM    8  C   UNL     1     -10.923  13.752  68.247  1.00  0.00    -0.269 C  
BRANCH   8   9
HETATM    9  C   UNL     1     -11.120  13.494  66.771  1.00  0.00    -0.311 A  
HETATM   10  C   UNL     1     -12.395  13.765  66.232  1.00  0.00    -0.479 A  
HETATM   11  C   UNL     1     -12.658  13.586  64.876  1.00  0.00    -0.392 A  
HETATM   12  C   UNL     1     -11.643  13.171  64.026  1.00  0.00    -0.481 A  
HETATM   13  C   UNL     1     -10.384  12.873  64.547  1.00  0.00    -0.380 A  
HETATM   14  C   UNL     1     -10.118  12.975  65.920  1.00  0.00    -0.288 A  
BRANCH  14  15
HETATM   15  N   UNL     1      -8.888  12.492  66.420  1.00  0.00    -0.415 NA 
HETATM   16  H   UNL     1      -8.076  13.026  66.112  1.00  0.00     0.000 HD 
BRANCH  15  17
HETATM   17  C   UNL     1      -8.575  11.393  67.275  1.00  0.00    -0.146 A  
HETATM   18  C   UNL     1      -7.764  11.661  68.408  1.00  0.00    -0.130 A  
HETATM   19  C   UNL     1      -7.547  10.710  69.411  1.00  0.00    -0.135 A  
HETATM   20 CL   UNL     1      -6.995  13.204  68.608  1.00  0.00    -0.097 Cl 
HETATM   21  C   UNL     1      -8.118   9.450  69.306  1.00  0.00    -0.105 A  
HETATM   22  C   UNL     1      -8.836   9.123  68.160  1.00  0.00    -0.129 A  
HETATM   23  C   UNL     1      -9.050  10.070  67.141  1.00  0.00    -0.138 A  
HETATM   24 CL   UNL     1      -9.996   9.489  65.815  1.00  0.00    -0.365 Cl 
ENDBRANCH  15  17
ENDBRANCH  14  15
ENDBRANCH   8   9
ENDBRANCH   6   8
ENDBRANCH   5   6
ENDBRANCH   4   5
TORSDOF 6
ENDMDL
MODEL      131
REMARK 921   NORMALIZED FREE ENERGY PREDICTED BY IDOCK:   -5.19 KCAL/MOL
REMARK 922        TOTAL FREE ENERGY PREDICTED BY IDOCK:   -7.97 KCAL/MOL
REMARK 923 INTER-LIGAND FREE ENERGY PREDICTED BY IDOCK:   -6.64 KCAL/MOL
REMARK 924 INTRA-LIGAND FREE ENERGY PREDICTED BY IDOCK:   -1.33 KCAL/MOL
REMARK 927      BINDING AFFINITY PREDICTED BY RF-SCORE:    0.00 PKD
ROOT
HETATM    1  O   UNL     1      -5.881  11.111  67.318  1.00  0.00    -0.051 OA 
HETATM    2  C   UNL     1      -6.372  10.913  68.565  1.00  0.00    -0.049 C  
HETATM    3  O   UNL     1      -5.701  11.114  69.565  1.00  0.00    -0.042 OA 
HETATM    4  C   UNL     1      -7.817  10.425  68.566  1.00  0.00    -0.107 C  
ENDROOT
BRANCH   4   5
HETATM    5  O   UNL     1      -8.262  10.167  69.905  1.00  0.00    -0.177 OA 
BRANCH   5   6
HETATM    6  C   UNL     1      -8.873   8.972  70.113  1.00  0.00    -0.182 C  
HETATM    7  O   UNL     1      -8.888   8.042  69.323  1.00  0.00    -0.140 OA 
BRANCH   6   8
HETATM    8  C   UNL     1      -9.543   8.958  71.475  1.00  0.00    -0.362 C  
BRANCH   8   9
HETATM    9  C   UNL     1     -11.053   9.002  71.419  1.00  0.00    -0.399 A  
HETATM   10  C   UNL     1     -11.748   7.842  71.820  1.00  0.00    -0.329 A  
HETATM   11  C   UNL     1     -13.140   7.803  71.829  1.00  0.00    -0.353 A  
HETATM   12  C   UNL     1     -13.864   8.933  71.478  1.00  0.00    -0.388 A  
HETATM   13  C   UNL     1     -13.192  10.080  71.054  1.00  0.00    -0.399 A  
HETATM   14  C   UNL     1     -11.793  10.117  70.965  1.00  0.00    -0.383 A  
BRANCH  14  15
HETATM   15  N   UNL     1     -11.172  11.233  70.362  1.00  0.00    -0.425 NA 
HETATM   16  H   UNL     1     -10.322  11.541  70.834  1.00  0.00     0.000 HD 
BRANCH  15  17
HETATM   17  C   UNL     1     -11.518  12.009  69.215  1.00  0.00    -0.301 A  
HETATM   18  C   UNL     1     -11.919  13.351  69.434  1.00  0.00    -0.315 A  
HETATM   19  C   UNL     1     -12.100  14.257  68.382  1.00  0.00    -0.297 A  
HETATM   20 CL   UNL     1     -12.205  13.945  71.039  1.00  0.00    -0.431 Cl 
HETATM   21  C   UNL     1     -11.905  13.844  67.072  1.00  0.00    -0.447 A  
HETATM   22  C   UNL     1     -11.607  12.509  66.818  1.00  0.00    -0.446 A  
HETATM   23  C   UNL     1     -11.434  11.589  67.869  1.00  0.00    -0.301 A  
HETATM   24 CL   UNL     1     -11.034   9.987  67.356  1.00  0.00    -0.319 Cl 
ENDBRANCH  15  17
ENDBRANCH  14  15
ENDBRANCH   8   9
ENDBRANCH   6   8
ENDBRANCH   5   6
ENDBRANCH   4   5
TORSDOF 6
ENDMDL
MODEL      132
REMARK 921   NORMALIZED FREE ENERGY PREDICTED BY IDOCK:   -5.18 KCAL/MOL
REMARK 922        TOTAL FREE ENERGY PREDICTED BY IDOCK:   -7.96 KCAL/MOL
REMARK 923 INTER-LIGAND FREE ENERGY PREDICTED BY IDOCK:   -6.72 KCAL/MOL
REMARK 924 INTRA-LIGAND FREE ENERGY PREDICTED BY IDOCK:   -1.24 KCAL/MOL
REMARK 927      BINDING AFFINITY PREDICTED BY RF-SCORE:    0.00 PKD
ROOT
HETATM    1  O   UNL     1     -12.535  13.314  63.234  1.00  0.00    -0.736 OA 
HETATM    2  C   UNL     1     -12.445  12.868  64.511  1.00  0.00    -0.400 C  
HETATM    3  O   UNL     1     -13.139  13.323  65.407  1.00  0.00    -0.606 OA 
HETATM    4  C   UNL     1     -11.405  11.767  64.685  1.00  0.00    -0.256 C  
ENDROOT
BRANCH   4   5
HETATM    5  O   UNL     1     -11.304  11.382  66.063  1.00  0.00    -0.200 OA 
BRANCH   5   6
HETATM    6  C   UNL     1     -10.346  10.464  66.359  1.00  0.00    -0.213 C  
HETATM    7  O   UNL     1      -9.837   9.696  65.560  1.00  0.00    -0.302 OA 
BRANCH   6   8
HETATM    8  C   UNL     1     -10.003  10.527  67.837  1.00  0.00    -0.193 C  
BRANCH   8   9
HETATM    9  C   UNL     1      -9.009  11.608  68.192  1.00  0.00    -0.182 A  
HETATM   10  C   UNL     1      -7.666  11.217  68.375  1.00  0.00    -0.125 A  
HETATM   11  C   UNL     1      -6.677  12.150  68.674  1.00  0.00    -0.081 A  
HETATM   12  C   UNL     1      -7.002  13.497  68.757  1.00  0.00    -0.102 A  
HETATM   13  C   UNL     1      -8.330  13.898  68.605  1.00  0.00    -0.088 A  
HETATM   14  C   UNL     1      -9.353  12.966  68.377  1.00  0.00    -0.147 A  
BRANCH  14  15
HETATM   15  N   UNL     1     -10.697  13.401  68.410  1.00  0.00    -0.249 NA 
HETATM   16  H   UNL     1     -11.148  13.427  67.496  1.00  0.00     0.000 HD 
BRANCH  15  17
HETATM   17  C   UNL     1     -11.538  13.809  69.489  1.00  0.00    -0.297 A  
HETATM   18  C   UNL     1     -11.773  15.199  69.640  1.00  0.00    -0.327 A  
HETATM   19  C   UNL     1     -12.722  15.702  70.538  1.00  0.00    -0.391 A  
HETATM   20 CL   UNL     1     -10.886  16.360  68.703  1.00  0.00    -0.313 Cl 
HETATM   21  C   UNL     1     -13.454  14.831  71.331  1.00  0.00    -0.477 A  
HETATM   22  C   UNL     1     -13.177  13.469  71.278  1.00  0.00    -0.290 A  
HETATM   23  C   UNL     1     -12.217  12.956  70.385  1.00  0.00    -0.304 A  
HETATM   24 CL   UNL     1     -12.040  11.236  70.440  1.00  0.00    -0.446 Cl 
ENDBRANCH  15  17
ENDBRANCH  14  15
ENDBRANCH   8   9
ENDBRANCH   6   8
ENDBRANCH   5   6
ENDBRANCH   4   5
TORSDOF 6
ENDMDL
MODEL      133
REMARK 921   NORMALIZED FREE ENERGY PREDICTED BY IDOCK:   -5.18 KCAL/MOL
REMARK 922        TOTAL FREE ENERGY PREDICTED BY IDOCK:   -7.95 KCAL/MOL
REMARK 923 INTER-LIGAND FREE ENERGY PREDICTED BY IDOCK:   -6.76 KCAL/MOL
REMARK 924 INTRA-LIGAND FREE ENERGY PREDICTED BY IDOCK:   -1.19 KCAL/MOL
REMARK 927      BINDING AFFINITY PREDICTED BY RF-SCORE:    0.00 PKD
ROOT
HETATM    1  O   UNL     1     -13.422   9.681  72.249  1.00  0.00    -0.441 OA 
HETATM    2  C   UNL     1     -12.526  10.129  71.337  1.00  0.00    -0.423 C  
HETATM    3  O   UNL     1     -12.656  11.206  70.776  1.00  0.00    -0.347 OA 
HETATM    4  C   UNL     1     -11.375   9.156  71.105  1.00  0.00    -0.322 C  
ENDROOT
BRANCH   4   5
HETATM    5  O   UNL     1     -10.497   9.647  70.084  1.00  0.00    -0.233 OA 
BRANCH   5   6
HETATM    6  C   UNL     1      -9.168   9.470  70.301  1.00  0.00    -0.258 C  
HETATM    7  O   UNL     1      -8.656   9.244  71.386  1.00  0.00    -0.326 OA 
BRANCH   6   8
HETATM    8  C   UNL     1      -8.403   9.599  68.996  1.00  0.00    -0.122 C  
BRANCH   8   9
HETATM    9  C   UNL     1      -8.047  11.021  68.629  1.00  0.00    -0.149 A  
HETATM   10  C   UNL     1      -6.886  11.568  69.215  1.00  0.00    -0.114 A  
HETATM   11  C   UNL     1      -6.465  12.860  68.911  1.00  0.00    -0.091 A  
HETATM   12  C   UNL     1      -7.171  13.616  67.986  1.00  0.00    -0.130 A  
HETATM   13  C   UNL     1      -8.336  13.100  67.417  1.00  0.00    -0.188 A  
HETATM   14  C   UNL     1      -8.819  11.830  67.765  1.00  0.00    -0.163 A  
BRANCH  14  15
HETATM   15  N   UNL     1     -10.091  11.429  67.301  1.00  0.00    -0.190 NA 
HETATM   16  H   UNL     1     -10.581  10.791  67.929  1.00  0.00     0.000 HD 
BRANCH  15  17
HETATM   17  C   UNL     1     -10.817  11.752  66.116  1.00  0.00    -0.291 A  
HETATM   18  C   UNL     1     -11.795  12.774  66.210  1.00  0.00    -0.423 A  
HETATM   19  C   UNL     1     -12.433  13.302  65.081  1.00  0.00    -0.525 A  
HETATM   20 CL   UNL     1     -12.253  13.430  67.750  1.00  0.00    -0.271 Cl 
HETATM   21  C   UNL     1     -12.128  12.811  63.821  1.00  0.00    -0.596 A  
HETATM   22  C   UNL     1     -11.246  11.742  63.703  1.00  0.00    -0.519 A  
HETATM   23  C   UNL     1     -10.608  11.198  64.834  1.00  0.00    -0.289 A  
HETATM   24 CL   UNL     1      -9.521   9.899  64.482  1.00  0.00    -0.352 Cl 
ENDBRANCH  15  17
ENDBRANCH  14  15
ENDBRANCH   8   9
ENDBRANCH   6   8
ENDBRANCH   5   6
ENDBRANCH   4   5
TORSDOF 6
ENDMDL
MODEL      134
REMARK 921   NORMALIZED FREE ENERGY PREDICTED BY IDOCK:   -5.17 KCAL/MOL
REMARK 922        TOTAL FREE ENERGY PREDICTED BY IDOCK:   -7.95 KCAL/MOL
REMARK 923 INTER-LIGAND FREE ENERGY PREDICTED BY IDOCK:   -6.90 KCAL/MOL
REMARK 924 INTRA-LIGAND FREE ENERGY PREDICTED BY IDOCK:   -1.04 KCAL/MOL
REMARK 927      BINDING AFFINITY PREDICTED BY RF-SCORE:    0.00 PKD
ROOT
HETATM    1  O   UNL     1      -8.149   7.331  65.012  1.00  0.00    -0.125 OA 
HETATM    2  C   UNL     1      -8.723   8.215  65.865  1.00  0.00    -0.156 C  
HETATM    3  O   UNL     1      -8.694   9.420  65.665  1.00  0.00    -0.136 OA 
HETATM    4  C   UNL     1      -9.384   7.543  67.062  1.00  0.00    -0.150 C  
ENDROOT
BRANCH   4   5
HETATM    5  O   UNL     1      -9.913   8.525  67.964  1.00  0.00    -0.167 OA 
BRANCH   5   6
HETATM    6  C   UNL     1      -9.194   8.750  69.094  1.00  0.00    -0.149 C  
HETATM    7  O   UNL     1      -8.265   8.062  69.486  1.00  0.00    -0.118 OA 
BRANCH   6   8
HETATM    8  C   UNL     1      -9.718   9.982  69.810  1.00  0.00    -0.259 C  
BRANCH   8   9
HETATM    9  C   UNL     1     -10.991   9.747  70.590  1.00  0.00    -0.398 A  
HETATM   10  C   UNL     1     -10.945   8.797  71.631  1.00  0.00    -0.391 A  
HETATM   11  C   UNL     1     -12.063   8.538  72.421  1.00  0.00    -0.436 A  
HETATM   12  C   UNL     1     -13.234   9.251  72.213  1.00  0.00    -0.535 A  
HETATM   13  C   UNL     1     -13.304  10.176  71.170  1.00  0.00    -0.372 A  
HETATM   14  C   UNL     1     -12.215  10.398  70.316  1.00  0.00    -0.269 A  
BRANCH  14  15
HETATM   15  N   UNL     1     -12.394  11.206  69.171  1.00  0.00    -0.543 NA 
HETATM   16  H   UNL     1     -12.911  10.753  68.418  1.00  0.00     0.000 HD 
BRANCH  15  17
HETATM   17  C   UNL     1     -11.982  12.541  68.876  1.00  0.00    -0.236 A  
HETATM   18  C   UNL     1     -11.474  12.792  67.576  1.00  0.00    -0.336 A  
HETATM   19  C   UNL     1     -11.216  14.088  67.114  1.00  0.00    -0.327 A  
HETATM   20 CL   UNL     1     -11.145  11.487  66.480  1.00  0.00    -0.349 Cl 
HETATM   21  C   UNL     1     -11.440  15.176  67.944  1.00  0.00    -0.344 A  
HETATM   22  C   UNL     1     -11.844  14.957  69.256  1.00  0.00    -0.350 A  
HETATM   23  C   UNL     1     -12.095  13.657  69.733  1.00  0.00    -0.334 A  
HETATM   24 CL   UNL     1     -12.623  13.591  71.379  1.00  0.00    -0.424 Cl 
ENDBRANCH  15  17
ENDBRANCH  14  15
ENDBRANCH   8   9
ENDBRANCH   6   8
ENDBRANCH   5   6
ENDBRANCH   4   5
TORSDOF 6
ENDMDL
MODEL      135
REMARK 921   NORMALIZED FREE ENERGY PREDICTED BY IDOCK:   -5.17 KCAL/MOL
REMARK 922        TOTAL FREE ENERGY PREDICTED BY IDOCK:   -7.94 KCAL/MOL
REMARK 923 INTER-LIGAND FREE ENERGY PREDICTED BY IDOCK:   -6.89 KCAL/MOL
REMARK 924 INTRA-LIGAND FREE ENERGY PREDICTED BY IDOCK:   -1.05 KCAL/MOL
REMARK 927      BINDING AFFINITY PREDICTED BY RF-SCORE:    0.00 PKD
ROOT
HETATM    1  O   UNL     1      -9.543  18.974  66.133  1.00  0.00    -0.390 OA 
HETATM    2  C   UNL     1     -10.275  17.907  65.728  1.00  0.00    -0.129 C  
HETATM    3  O   UNL     1     -11.103  17.990  64.836  1.00  0.00    -0.738 OA 
HETATM    4  C   UNL     1      -9.947  16.634  66.501  1.00  0.00    -0.285 C  
ENDROOT
BRANCH   4   5
HETATM    5  O   UNL     1     -10.795  15.556  66.081  1.00  0.00    -0.322 OA 
BRANCH   5   6
HETATM    6  C   UNL     1     -10.529  14.339  66.622  1.00  0.00    -0.278 C  
HETATM    7  O   UNL     1      -9.414  13.896  66.844  1.00  0.00    -0.240 OA 
BRANCH   6   8
HETATM    8  C   UNL     1     -11.824  13.600  66.909  1.00  0.00    -0.451 C  
BRANCH   8   9
HETATM    9  C   UNL     1     -11.901  13.009  68.297  1.00  0.00    -0.381 A  
HETATM   10  C   UNL     1     -12.150  13.896  69.364  1.00  0.00    -0.384 A  
HETATM   11  C   UNL     1     -12.268  13.435  70.674  1.00  0.00    -0.427 A  
HETATM   12  C   UNL     1     -12.180  12.076  70.936  1.00  0.00    -0.325 A  
HETATM   13  C   UNL     1     -11.909  11.187  69.895  1.00  0.00    -0.439 A  
HETATM   14  C   UNL     1     -11.712  11.637  68.582  1.00  0.00    -0.325 A  
BRANCH  14  15
HETATM   15  N   UNL     1     -11.263  10.724  67.602  1.00  0.00    -0.368 NA 
HETATM   16  H   UNL     1     -12.014  10.264  67.087  1.00  0.00     0.000 HD 
BRANCH  15  17
HETATM   17  C   UNL     1      -9.952  10.327  67.202  1.00  0.00    -0.197 A  
HETATM   18  C   UNL     1      -9.559  10.627  65.873  1.00  0.00    -0.205 A  
HETATM   19  C   UNL     1      -8.243  10.455  65.428  1.00  0.00    -0.159 A  
HETATM   20 CL   UNL     1     -10.706  11.232  64.720  1.00  0.00    -0.369 Cl 
HETATM   21  C   UNL     1      -7.279   9.958  66.293  1.00  0.00    -0.102 A  
HETATM   22  C   UNL     1      -7.654   9.562  67.572  1.00  0.00    -0.095 A  
HETATM   23  C   UNL     1      -8.977   9.721  68.024  1.00  0.00    -0.118 A  
HETATM   24 CL   UNL     1      -9.241   9.204  69.654  1.00  0.00    -0.161 Cl 
ENDBRANCH  15  17
ENDBRANCH  14  15
ENDBRANCH   8   9
ENDBRANCH   6   8
ENDBRANCH   5   6
ENDBRANCH   4   5
TORSDOF 6
ENDMDL
MODEL      136
REMARK 921   NORMALIZED FREE ENERGY PREDICTED BY IDOCK:   -5.16 KCAL/MOL
REMARK 922        TOTAL FREE ENERGY PREDICTED BY IDOCK:   -7.94 KCAL/MOL
REMARK 923 INTER-LIGAND FREE ENERGY PREDICTED BY IDOCK:   -7.14 KCAL/MOL
REMARK 924 INTRA-LIGAND FREE ENERGY PREDICTED BY IDOCK:   -0.80 KCAL/MOL
REMARK 927      BINDING AFFINITY PREDICTED BY RF-SCORE:    0.00 PKD
ROOT
HETATM    1  O   UNL     1     -10.667  12.452  63.425  1.00  0.00    -0.446 OA 
HETATM    2  C   UNL     1     -10.806  11.899  64.655  1.00  0.00    -0.311 C  
HETATM    3  O   UNL     1     -10.126  10.953  65.020  1.00  0.00    -0.260 OA 
HETATM    4  C   UNL     1     -11.880  12.581  65.496  1.00  0.00    -0.439 C  
ENDROOT
BRANCH   4   5
HETATM    5  O   UNL     1     -12.032  11.915  66.756  1.00  0.00    -0.613 OA 
BRANCH   5   6
HETATM    6  C   UNL     1     -11.582  12.589  67.847  1.00  0.00    -0.347 C  
HETATM    7  O   UNL     1     -11.910  13.722  68.159  1.00  0.00    -0.343 OA 
BRANCH   6   8
HETATM    8  C   UNL     1     -10.602  11.729  68.624  1.00  0.00    -0.250 C  
BRANCH   8   9
HETATM    9  C   UNL     1     -11.232  10.940  69.749  1.00  0.00    -0.351 A  
HETATM   10  C   UNL     1     -12.238  11.579  70.502  1.00  0.00    -0.469 A  
HETATM   11  C   UNL     1     -12.895  10.918  71.537  1.00  0.00    -0.560 A  
HETATM   12  C   UNL     1     -12.589   9.593  71.813  1.00  0.00    -0.497 A  
HETATM   13  C   UNL     1     -11.578   8.953  71.093  1.00  0.00    -0.360 A  
HETATM   14  C   UNL     1     -10.853   9.623  70.098  1.00  0.00    -0.280 A  
BRANCH  14  15
HETATM   15  N   UNL     1      -9.726   8.992  69.527  1.00  0.00    -0.167 NA 
HETATM   16  H   UNL     1      -8.869   9.100  70.070  1.00  0.00     0.000 HD 
BRANCH  15  17
HETATM   17  C   UNL     1      -9.566   8.233  68.329  1.00  0.00    -0.147 A  
HETATM   18  C   UNL     1      -8.653   8.727  67.362  1.00  0.00    -0.126 A  
HETATM   19  C   UNL     1      -8.277   7.978  66.241  1.00  0.00    -0.116 A  
HETATM   20 CL   UNL     1      -7.947  10.303  67.528  1.00  0.00    -0.106 Cl 
HETATM   21  C   UNL     1      -8.817   6.717  66.038  1.00  0.00    -0.151 A  
HETATM   22  C   UNL     1      -9.788   6.245  66.914  1.00  0.00    -0.196 A  
HETATM   23  C   UNL     1     -10.181   6.995  68.038  1.00  0.00    -0.182 A  
HETATM   24 CL   UNL     1     -11.374   6.227  69.028  1.00  0.00    -0.421 Cl 
ENDBRANCH  15  17
ENDBRANCH  14  15
ENDBRANCH   8   9
ENDBRANCH   6   8
ENDBRANCH   5   6
ENDBRANCH   4   5
TORSDOF 6
ENDMDL
MODEL      137
REMARK 921   NORMALIZED FREE ENERGY PREDICTED BY IDOCK:   -5.16 KCAL/MOL
REMARK 922        TOTAL FREE ENERGY PREDICTED BY IDOCK:   -7.93 KCAL/MOL
REMARK 923 INTER-LIGAND FREE ENERGY PREDICTED BY IDOCK:   -7.36 KCAL/MOL
REMARK 924 INTRA-LIGAND FREE ENERGY PREDICTED BY IDOCK:   -0.57 KCAL/MOL
REMARK 927      BINDING AFFINITY PREDICTED BY RF-SCORE:    0.00 PKD
ROOT
HETATM    1  O   UNL     1      -6.035  14.724  68.214  1.00  0.00    -0.102 OA 
HETATM    2  C   UNL     1      -6.374  13.479  67.798  1.00  0.00    -0.161 C  
HETATM    3  O   UNL     1      -5.592  12.764  67.190  1.00  0.00    -0.334 OA 
HETATM    4  C   UNL     1      -7.802  13.096  68.170  1.00  0.00    -0.145 C  
ENDROOT
BRANCH   4   5
HETATM    5  O   UNL     1      -8.128  11.801  67.648  1.00  0.00    -0.129 OA 
BRANCH   5   6
HETATM    6  C   UNL     1      -8.792  10.966  68.490  1.00  0.00    -0.153 C  
HETATM    7  O   UNL     1      -8.344  10.516  69.532  1.00  0.00    -0.144 OA 
BRANCH   6   8
HETATM    8  C   UNL     1     -10.176  10.665  67.943  1.00  0.00    -0.206 C  
BRANCH   8   9
HETATM    9  C   UNL     1     -10.879  11.865  67.353  1.00  0.00    -0.289 A  
HETATM   10  C   UNL     1     -10.920  11.964  65.947  1.00  0.00    -0.354 A  
HETATM   11  C   UNL     1     -11.573  13.020  65.317  1.00  0.00    -0.361 A  
HETATM   12  C   UNL     1     -12.233  13.975  66.077  1.00  0.00    -0.484 A  
HETATM   13  C   UNL     1     -12.181  13.907  67.470  1.00  0.00    -0.266 A  
HETATM   14  C   UNL     1     -11.466  12.894  68.125  1.00  0.00    -0.315 A  
BRANCH  14  15
HETATM   15  N   UNL     1     -11.293  12.971  69.525  1.00  0.00    -0.443 NA 
HETATM   16  H   UNL     1     -10.407  12.590  69.857  1.00  0.00     0.000 HD 
BRANCH  15  17
HETATM   17  C   UNL     1     -12.132  13.483  70.560  1.00  0.00    -0.335 A  
HETATM   18  C   UNL     1     -12.145  14.888  70.751  1.00  0.00    -0.317 A  
HETATM   19  C   UNL     1     -13.061  15.517  71.603  1.00  0.00    -0.561 A  
HETATM   20 CL   UNL     1     -11.012  15.910  69.925  1.00  0.00    -0.313 Cl 
HETATM   21  C   UNL     1     -13.984  14.758  72.308  1.00  0.00    -0.598 A  
HETATM   22  C   UNL     1     -13.933  13.371  72.218  1.00  0.00    -0.605 A  
HETATM   23  C   UNL     1     -13.008  12.730  71.372  1.00  0.00    -0.266 A  
HETATM   24 CL   UNL     1     -13.123  11.004  71.369  1.00  0.00    -0.482 Cl 
ENDBRANCH  15  17
ENDBRANCH  14  15
ENDBRANCH   8   9
ENDBRANCH   6   8
ENDBRANCH   5   6
ENDBRANCH   4   5
TORSDOF 6
ENDMDL
MODEL      138
REMARK 921   NORMALIZED FREE ENERGY PREDICTED BY IDOCK:   -5.16 KCAL/MOL
REMARK 922        TOTAL FREE ENERGY PREDICTED BY IDOCK:   -7.93 KCAL/MOL
REMARK 923 INTER-LIGAND FREE ENERGY PREDICTED BY IDOCK:   -7.01 KCAL/MOL
REMARK 924 INTRA-LIGAND FREE ENERGY PREDICTED BY IDOCK:   -0.92 KCAL/MOL
REMARK 927      BINDING AFFINITY PREDICTED BY RF-SCORE:    0.00 PKD
ROOT
HETATM    1  O   UNL     1      -6.865  10.714  70.494  1.00  0.00    -0.309 OA 
HETATM    2  C   UNL     1      -7.314  10.935  69.235  1.00  0.00    -0.125 C  
HETATM    3  O   UNL     1      -7.068  11.968  68.631  1.00  0.00    -0.091 OA 
HETATM    4  C   UNL     1      -8.136   9.776  68.684  1.00  0.00    -0.105 C  
ENDROOT
BRANCH   4   5
HETATM    5  O   UNL     1      -8.641  10.090  67.379  1.00  0.00    -0.125 OA 
BRANCH   5   6
HETATM    6  C   UNL     1      -9.993  10.130  67.254  1.00  0.00    -0.195 C  
HETATM    7  O   UNL     1     -10.714   9.158  67.097  1.00  0.00    -0.255 OA 
BRANCH   6   8
HETATM    8  C   UNL     1     -10.483  11.564  67.331  1.00  0.00    -0.240 C  
BRANCH   8   9
HETATM    9  C   UNL     1     -11.000  12.110  66.019  1.00  0.00    -0.332 A  
HETATM   10  C   UNL     1     -10.574  11.466  64.839  1.00  0.00    -0.368 A  
HETATM   11  C   UNL     1     -11.024  11.881  63.588  1.00  0.00    -0.511 A  
HETATM   12  C   UNL     1     -11.938  12.920  63.494  1.00  0.00    -0.629 A  
HETATM   13  C   UNL     1     -12.349  13.585  64.650  1.00  0.00    -0.419 A  
HETATM   14  C   UNL     1     -11.852  13.232  65.913  1.00  0.00    -0.393 A  
BRANCH  14  15
HETATM   15  N   UNL     1     -12.159  14.048  67.024  1.00  0.00    -0.459 NA 
HETATM   16  H   UNL     1     -13.090  13.892  67.410  1.00  0.00     0.000 HD 
BRANCH  15  17
HETATM   17  C   UNL     1     -11.404  15.050  67.705  1.00  0.00    -0.330 A  
HETATM   18  C   UNL     1     -11.362  14.983  69.121  1.00  0.00    -0.296 A  
HETATM   19  C   UNL     1     -10.510  15.792  69.882  1.00  0.00    -0.324 A  
HETATM   20 CL   UNL     1     -12.377  13.875  69.991  1.00  0.00    -0.391 Cl 
HETATM   21  C   UNL     1      -9.685  16.711  69.252  1.00  0.00    -0.173 A  
HETATM   22  C   UNL     1      -9.773  16.871  67.873  1.00  0.00    -0.254 A  
HETATM   23  C   UNL     1     -10.636  16.069  67.102  1.00  0.00    -0.305 A  
HETATM   24 CL   UNL     1     -10.580  16.392  65.403  1.00  0.00    -0.384 Cl 
ENDBRANCH  15  17
ENDBRANCH  14  15
ENDBRANCH   8   9
ENDBRANCH   6   8
ENDBRANCH   5   6
ENDBRANCH   4   5
TORSDOF 6
ENDMDL
MODEL      139
REMARK 921   NORMALIZED FREE ENERGY PREDICTED BY IDOCK:   -5.16 KCAL/MOL
REMARK 922        TOTAL FREE ENERGY PREDICTED BY IDOCK:   -7.93 KCAL/MOL
REMARK 923 INTER-LIGAND FREE ENERGY PREDICTED BY IDOCK:   -6.93 KCAL/MOL
REMARK 924 INTRA-LIGAND FREE ENERGY PREDICTED BY IDOCK:   -0.99 KCAL/MOL
REMARK 927      BINDING AFFINITY PREDICTED BY RF-SCORE:    0.00 PKD
ROOT
HETATM    1  O   UNL     1     -13.654  14.793  73.034  1.00  0.00    -0.526 OA 
HETATM    2  C   UNL     1     -13.321  13.820  72.152  1.00  0.00    -0.476 C  
HETATM    3  O   UNL     1     -13.652  12.656  72.316  1.00  0.00    -0.547 OA 
HETATM    4  C   UNL     1     -12.511  14.339  70.969  1.00  0.00    -0.362 C  
ENDROOT
BRANCH   4   5
HETATM    5  O   UNL     1     -12.129  13.260  70.106  1.00  0.00    -0.336 OA 
BRANCH   5   6
HETATM    6  C   UNL     1     -11.782  13.602  68.838  1.00  0.00    -0.338 C  
HETATM    7  O   UNL     1     -11.746  14.741  68.401  1.00  0.00    -0.307 OA 
BRANCH   6   8
HETATM    8  C   UNL     1     -11.447  12.358  68.034  1.00  0.00    -0.377 C  
BRANCH   8   9
HETATM    9  C   UNL     1     -10.125  11.726  68.400  1.00  0.00    -0.201 A  
HETATM   10  C   UNL     1      -8.958  12.479  68.154  1.00  0.00    -0.199 A  
HETATM   11  C   UNL     1      -7.698  11.988  68.488  1.00  0.00    -0.127 A  
HETATM   12  C   UNL     1      -7.582  10.754  69.111  1.00  0.00    -0.133 A  
HETATM   13  C   UNL     1      -8.724   9.984  69.339  1.00  0.00    -0.195 A  
HETATM   14  C   UNL     1      -9.994  10.427  68.943  1.00  0.00    -0.199 A  
BRANCH  14  15
HETATM   15  N   UNL     1     -11.089   9.539  69.031  1.00  0.00    -0.432 NA 
HETATM   16  H   UNL     1     -11.915   9.844  68.516  1.00  0.00     0.000 HD 
BRANCH  15  17
HETATM   17  C   UNL     1     -11.252   8.294  69.710  1.00  0.00     0.036 A  
HETATM   18  C   UNL     1     -10.878   7.118  69.011  1.00  0.00    -0.146 A  
HETATM   19  C   UNL     1     -10.816   5.867  69.635  1.00  0.00    -0.444 A  
HETATM   20 CL   UNL     1     -10.469   7.176  67.325  1.00  0.00    -0.337 Cl 
HETATM   21  C   UNL     1     -11.147   5.746  70.976  1.00  0.00    -0.264 A  
HETATM   22  C   UNL     1     -11.613   6.861  71.665  1.00  0.00    -0.325 A  
HETATM   23  C   UNL     1     -11.688   8.121  71.042  1.00  0.00    -0.274 A  
HETATM   24 CL   UNL     1     -12.256   9.392  72.069  1.00  0.00    -0.423 Cl 
ENDBRANCH  15  17
ENDBRANCH  14  15
ENDBRANCH   8   9
ENDBRANCH   6   8
ENDBRANCH   5   6
ENDBRANCH   4   5
TORSDOF 6
ENDMDL
MODEL      140
REMARK 921   NORMALIZED FREE ENERGY PREDICTED BY IDOCK:   -5.13 KCAL/MOL
REMARK 922        TOTAL FREE ENERGY PREDICTED BY IDOCK:   -7.89 KCAL/MOL
REMARK 923 INTER-LIGAND FREE ENERGY PREDICTED BY IDOCK:   -6.64 KCAL/MOL
REMARK 924 INTRA-LIGAND FREE ENERGY PREDICTED BY IDOCK:   -1.25 KCAL/MOL
REMARK 927      BINDING AFFINITY PREDICTED BY RF-SCORE:    0.00 PKD
ROOT
HETATM    1  O   UNL     1     -11.172  16.152  70.673  1.00  0.00    -0.368 OA 
HETATM    2  C   UNL     1     -11.457  15.550  69.492  1.00  0.00    -0.333 C  
HETATM    3  O   UNL     1     -11.452  16.162  68.436  1.00  0.00    -0.369 OA 
HETATM    4  C   UNL     1     -11.772  14.066  69.642  1.00  0.00    -0.311 C  
ENDROOT
BRANCH   4   5
HETATM    5  O   UNL     1     -12.132  13.497  68.376  1.00  0.00    -0.352 OA 
BRANCH   5   6
HETATM    6  C   UNL     1     -11.600  12.278  68.095  1.00  0.00    -0.339 C  
HETATM    7  O   UNL     1     -12.142  11.207  68.313  1.00  0.00    -0.620 OA 
BRANCH   6   8
HETATM    8  C   UNL     1     -10.224  12.440  67.473  1.00  0.00    -0.214 C  
BRANCH   8   9
HETATM    9  C   UNL     1     -10.050  11.705  66.164  1.00  0.00    -0.259 A  
HETATM   10  C   UNL     1     -10.831  12.136  65.072  1.00  0.00    -0.344 A  
HETATM   11  C   UNL     1     -10.714  11.536  63.820  1.00  0.00    -0.474 A  
HETATM   12  C   UNL     1      -9.787  10.523  63.625  1.00  0.00    -0.354 A  
HETATM   13  C   UNL     1      -9.024  10.067  64.701  1.00  0.00    -0.249 A  
HETATM   14  C   UNL     1      -9.179  10.606  65.987  1.00  0.00    -0.182 A  
BRANCH  14  15
HETATM   15  N   UNL     1      -8.518   9.991  67.073  1.00  0.00    -0.125 NA 
HETATM   16  H   UNL     1      -7.501  10.040  67.023  1.00  0.00     0.000 HD 
BRANCH  15  17
HETATM   17  C   UNL     1      -9.014   9.313  68.227  1.00  0.00    -0.129 A  
HETATM   18  C   UNL     1      -8.518   9.730  69.489  1.00  0.00    -0.170 A  
HETATM   19  C   UNL     1      -9.064   9.271  70.694  1.00  0.00    -0.309 A  
HETATM   20 CL   UNL     1      -7.195  10.847  69.602  1.00  0.00    -0.128 Cl 
HETATM   21  C   UNL     1     -10.113   8.364  70.677  1.00  0.00    -0.220 A  
HETATM   22  C   UNL     1     -10.556   7.860  69.458  1.00  0.00    -0.220 A  
HETATM   23  C   UNL     1     -10.005   8.308  68.243  1.00  0.00    -0.191 A  
HETATM   24 CL   UNL     1     -10.710   7.592  66.834  1.00  0.00    -0.384 Cl 
ENDBRANCH  15  17
ENDBRANCH  14  15
ENDBRANCH   8   9
ENDBRANCH   6   8
ENDBRANCH   5   6
ENDBRANCH   4   5
TORSDOF 6
ENDMDL
MODEL      141
REMARK 921   NORMALIZED FREE ENERGY PREDICTED BY IDOCK:   -5.11 KCAL/MOL
REMARK 922        TOTAL FREE ENERGY PREDICTED BY IDOCK:   -7.86 KCAL/MOL
REMARK 923 INTER-LIGAND FREE ENERGY PREDICTED BY IDOCK:   -6.86 KCAL/MOL
REMARK 924 INTRA-LIGAND FREE ENERGY PREDICTED BY IDOCK:   -1.00 KCAL/MOL
REMARK 927      BINDING AFFINITY PREDICTED BY RF-SCORE:    0.00 PKD
ROOT
HETATM    1  O   UNL     1     -12.663  14.276  63.482  1.00  0.00    -0.767 OA 
HETATM    2  C   UNL     1     -11.996  14.540  64.632  1.00  0.00    -0.468 C  
HETATM    3  O   UNL     1     -10.989  15.230  64.653  1.00  0.00    -0.382 OA 
HETATM    4  C   UNL     1     -12.636  13.890  65.854  1.00  0.00    -0.456 C  
ENDROOT
BRANCH   4   5
HETATM    5  O   UNL     1     -11.855  14.145  67.028  1.00  0.00    -0.388 OA 
BRANCH   5   6
HETATM    6  C   UNL     1     -11.790  13.135  67.935  1.00  0.00    -0.348 C  
HETATM    7  O   UNL     1     -11.690  13.279  69.143  1.00  0.00    -0.289 OA 
BRANCH   6   8
HETATM    8  C   UNL     1     -11.855  11.793  67.228  1.00  0.00    -0.186 C  
BRANCH   8   9
HETATM    9  C   UNL     1     -10.508  11.139  67.025  1.00  0.00    -0.277 A  
HETATM   10  C   UNL     1      -9.674  11.675  66.022  1.00  0.00    -0.257 A  
HETATM   11  C   UNL     1      -8.403  11.155  65.786  1.00  0.00    -0.041 A  
HETATM   12  C   UNL     1      -7.926  10.117  66.573  1.00  0.00    -0.118 A  
HETATM   13  C   UNL     1      -8.748   9.558  67.552  1.00  0.00    -0.126 A  
HETATM   14  C   UNL     1     -10.057  10.017  67.756  1.00  0.00    -0.183 A  
BRANCH  14  15
HETATM   15  N   UNL     1     -10.907   9.303  68.631  1.00  0.00    -0.419 NA 
HETATM   16  H   UNL     1     -11.790   9.773  68.828  1.00  0.00     0.000 HD 
BRANCH  15  17
HETATM   17  C   UNL     1     -10.754   8.045  69.289  1.00  0.00    -0.129 A  
HETATM   18  C   UNL     1     -10.554   8.066  70.693  1.00  0.00    -0.219 A  
HETATM   19  C   UNL     1     -10.579   6.900  71.466  1.00  0.00    -0.239 A  
HETATM   20 CL   UNL     1     -10.270   9.559  71.531  1.00  0.00    -0.218 Cl 
HETATM   21  C   UNL     1     -10.784   5.670  70.859  1.00  0.00    -0.313 A  
HETATM   22  C   UNL     1     -10.884   5.606  69.473  1.00  0.00    -0.345 A  
HETATM   23  C   UNL     1     -10.850   6.772  68.686  1.00  0.00    -0.224 A  
HETATM   24 CL   UNL     1     -11.026   6.492  66.988  1.00  0.00    -0.473 Cl 
ENDBRANCH  15  17
ENDBRANCH  14  15
ENDBRANCH   8   9
ENDBRANCH   6   8
ENDBRANCH   5   6
ENDBRANCH   4   5
TORSDOF 6
ENDMDL
MODEL      142
REMARK 921   NORMALIZED FREE ENERGY PREDICTED BY IDOCK:   -5.11 KCAL/MOL
REMARK 922        TOTAL FREE ENERGY PREDICTED BY IDOCK:   -7.86 KCAL/MOL
REMARK 923 INTER-LIGAND FREE ENERGY PREDICTED BY IDOCK:   -7.03 KCAL/MOL
REMARK 924 INTRA-LIGAND FREE ENERGY PREDICTED BY IDOCK:   -0.83 KCAL/MOL
REMARK 927      BINDING AFFINITY PREDICTED BY RF-SCORE:    0.00 PKD
ROOT
HETATM    1  O   UNL     1     -11.035  17.318  64.722  1.00  0.00    -0.950 OA 
HETATM    2  C   UNL     1     -11.541  16.123  64.330  1.00  0.00    -0.146 C  
HETATM    3  O   UNL     1     -12.513  16.041  63.595  1.00  0.00    -0.631 OA 
HETATM    4  C   UNL     1     -10.775  14.936  64.901  1.00  0.00    -0.405 C  
ENDROOT
BRANCH   4   5
HETATM    5  O   UNL     1     -11.393  13.702  64.512  1.00  0.00    -0.351 OA 
BRANCH   5   6
HETATM    6  C   UNL     1     -11.401  12.715  65.446  1.00  0.00    -0.313 C  
HETATM    7  O   UNL     1     -12.403  12.223  65.940  1.00  0.00    -0.618 OA 
BRANCH   6   8
HETATM    8  C   UNL     1      -9.980  12.314  65.795  1.00  0.00    -0.273 C  
BRANCH   8   9
HETATM    9  C   UNL     1      -9.878  11.025  66.578  1.00  0.00    -0.241 A  
HETATM   10  C   UNL     1     -10.012   9.820  65.857  1.00  0.00    -0.345 A  
HETATM   11  C   UNL     1      -9.902   8.584  66.491  1.00  0.00    -0.342 A  
HETATM   12  C   UNL     1      -9.616   8.528  67.847  1.00  0.00    -0.177 A  
HETATM   13  C   UNL     1      -9.506   9.711  68.580  1.00  0.00    -0.145 A  
HETATM   14  C   UNL     1      -9.688  10.964  67.977  1.00  0.00    -0.165 A  
BRANCH  14  15
HETATM   15  N   UNL     1      -9.745  12.116  68.791  1.00  0.00    -0.405 NA 
HETATM   16  H   UNL     1     -10.096  11.943  69.733  1.00  0.00     0.000 HD 
BRANCH  15  17
HETATM   17  C   UNL     1      -9.403  13.478  68.537  1.00  0.00    -0.108 A  
HETATM   18  C   UNL     1     -10.446  14.437  68.617  1.00  0.00    -0.247 A  
HETATM   19  C   UNL     1     -10.198  15.814  68.573  1.00  0.00    -0.216 A  
HETATM   20 CL   UNL     1     -12.101  13.941  68.780  1.00  0.00    -0.386 Cl 
HETATM   21  C   UNL     1      -8.899  16.279  68.426  1.00  0.00    -0.202 A  
HETATM   22  C   UNL     1      -7.867  15.365  68.246  1.00  0.00    -0.123 A  
HETATM   23  C   UNL     1      -8.108  13.979  68.278  1.00  0.00    -0.148 A  
HETATM   24 CL   UNL     1      -6.695  13.003  68.071  1.00  0.00    -0.098 Cl 
ENDBRANCH  15  17
ENDBRANCH  14  15
ENDBRANCH   8   9
ENDBRANCH   6   8
ENDBRANCH   5   6
ENDBRANCH   4   5
TORSDOF 6
ENDMDL
MODEL      143
REMARK 921   NORMALIZED FREE ENERGY PREDICTED BY IDOCK:   -5.11 KCAL/MOL
REMARK 922        TOTAL FREE ENERGY PREDICTED BY IDOCK:   -7.86 KCAL/MOL
REMARK 923 INTER-LIGAND FREE ENERGY PREDICTED BY IDOCK:   -6.79 KCAL/MOL
REMARK 924 INTRA-LIGAND FREE ENERGY PREDICTED BY IDOCK:   -1.07 KCAL/MOL
REMARK 927      BINDING AFFINITY PREDICTED BY RF-SCORE:    0.00 PKD
ROOT
HETATM    1  O   UNL     1     -11.827  14.550  71.188  1.00  0.00    -0.326 OA 
HETATM    2  C   UNL     1     -11.208  15.096  70.113  1.00  0.00    -0.273 C  
HETATM    3  O   UNL     1     -10.062  15.515  70.169  1.00  0.00    -0.298 OA 
HETATM    4  C   UNL     1     -12.088  15.122  68.868  1.00  0.00    -0.194 C  
ENDROOT
BRANCH   4   5
HETATM    5  O   UNL     1     -11.409  15.770  67.784  1.00  0.00    -0.322 OA 
BRANCH   5   6
HETATM    6  C   UNL     1     -11.309  15.059  66.630  1.00  0.00    -0.289 C  
HETATM    7  O   UNL     1     -12.051  14.149  66.298  1.00  0.00    -0.412 OA 
BRANCH   6   8
HETATM    8  C   UNL     1     -10.133  15.558  65.810  1.00  0.00    -0.388 C  
BRANCH   8   9
HETATM    9  C   UNL     1      -8.798  15.428  66.507  1.00  0.00    -0.347 A  
HETATM   10  C   UNL     1      -8.564  14.246  67.240  1.00  0.00    -0.229 A  
HETATM   11  C   UNL     1      -7.350  14.028  67.888  1.00  0.00    -0.162 A  
HETATM   12  C   UNL     1      -6.334  14.966  67.784  1.00  0.00    -0.174 A  
HETATM   13  C   UNL     1      -6.558  16.153  67.084  1.00  0.00    -0.208 A  
HETATM   14  C   UNL     1      -7.797  16.426  66.487  1.00  0.00    -0.288 A  
BRANCH  14  15
HETATM   15  N   UNL     1      -8.032  17.711  65.949  1.00  0.00    -0.555 NA 
HETATM   16  H   UNL     1      -8.767  17.738  65.243  1.00  0.00     0.000 HD 
BRANCH  15  17
HETATM   17  C   UNL     1      -7.428  18.977  66.212  1.00  0.00    -0.269 A  
HETATM   18  C   UNL     1      -7.800  19.639  67.410  1.00  0.00    -0.267 A  
HETATM   19  C   UNL     1      -7.141  20.787  67.863  1.00  0.00    -0.253 A  
HETATM   20 CL   UNL     1      -9.107  19.046  68.386  1.00  0.00    -0.374 Cl 
HETATM   21  C   UNL     1      -6.099  21.325  67.122  1.00  0.00    -0.413 A  
HETATM   22  C   UNL     1      -5.775  20.757  65.895  1.00  0.00    -0.256 A  
HETATM   23  C   UNL     1      -6.440  19.609  65.426  1.00  0.00    -0.268 A  
HETATM   24 CL   UNL     1      -5.873  19.031  63.897  1.00  0.00    -0.229 Cl 
ENDBRANCH  15  17
ENDBRANCH  14  15
ENDBRANCH   8   9
ENDBRANCH   6   8
ENDBRANCH   5   6
ENDBRANCH   4   5
TORSDOF 6
ENDMDL
MODEL      144
REMARK 921   NORMALIZED FREE ENERGY PREDICTED BY IDOCK:   -5.10 KCAL/MOL
REMARK 922        TOTAL FREE ENERGY PREDICTED BY IDOCK:   -7.84 KCAL/MOL
REMARK 923 INTER-LIGAND FREE ENERGY PREDICTED BY IDOCK:   -6.77 KCAL/MOL
REMARK 924 INTRA-LIGAND FREE ENERGY PREDICTED BY IDOCK:   -1.07 KCAL/MOL
REMARK 927      BINDING AFFINITY PREDICTED BY RF-SCORE:    0.00 PKD
ROOT
HETATM    1  O   UNL     1     -13.540  15.487  71.668  1.00  0.00    -0.474 OA 
HETATM    2  C   UNL     1     -13.538  14.154  71.911  1.00  0.00    -0.417 C  
HETATM    3  O   UNL     1     -14.206  13.657  72.804  1.00  0.00    -0.676 OA 
HETATM    4  C   UNL     1     -12.628  13.378  70.965  1.00  0.00    -0.343 C  
ENDROOT
BRANCH   4   5
HETATM    5  O   UNL     1     -12.610  11.987  71.310  1.00  0.00    -0.347 OA 
BRANCH   5   6
HETATM    6  C   UNL     1     -11.914  11.172  70.475  1.00  0.00    -0.380 C  
HETATM    7  O   UNL     1     -11.229  10.225  70.825  1.00  0.00    -0.329 OA 
BRANCH   6   8
HETATM    8  C   UNL     1     -12.106  11.613  69.035  1.00  0.00    -0.288 C  
BRANCH   8   9
HETATM    9  C   UNL     1     -10.891  11.407  68.160  1.00  0.00    -0.259 A  
HETATM   10  C   UNL     1     -10.799  10.187  67.459  1.00  0.00    -0.349 A  
HETATM   11  C   UNL     1      -9.729   9.923  66.607  1.00  0.00    -0.252 A  
HETATM   12  C   UNL     1      -8.753  10.888  66.407  1.00  0.00    -0.174 A  
HETATM   13  C   UNL     1      -8.815  12.091  67.113  1.00  0.00    -0.188 A  
HETATM   14  C   UNL     1      -9.842  12.346  68.033  1.00  0.00    -0.205 A  
BRANCH  14  15
HETATM   15  N   UNL     1      -9.762  13.495  68.851  1.00  0.00    -0.418 NA 
HETATM   16  H   UNL     1     -10.304  13.430  69.712  1.00  0.00     0.000 HD 
BRANCH  15  17
HETATM   17  C   UNL     1      -9.062  14.728  68.692  1.00  0.00    -0.186 A  
HETATM   18  C   UNL     1      -9.781  15.817  68.137  1.00  0.00    -0.211 A  
HETATM   19  C   UNL     1      -9.261  17.116  68.106  1.00  0.00    -0.261 A  
HETATM   20 CL   UNL     1     -11.364  15.589  67.463  1.00  0.00    -0.282 Cl 
HETATM   21  C   UNL     1      -7.994  17.367  68.612  1.00  0.00    -0.271 A  
HETATM   22  C   UNL     1      -7.225  16.304  69.073  1.00  0.00    -0.204 A  
HETATM   23  C   UNL     1      -7.736  14.992  69.098  1.00  0.00    -0.179 A  
HETATM   24 CL   UNL     1      -6.644  13.813  69.738  1.00  0.00    -0.080 Cl 
ENDBRANCH  15  17
ENDBRANCH  14  15
ENDBRANCH   8   9
ENDBRANCH   6   8
ENDBRANCH   5   6
ENDBRANCH   4   5
TORSDOF 6
ENDMDL
MODEL      145
REMARK 921   NORMALIZED FREE ENERGY PREDICTED BY IDOCK:   -5.08 KCAL/MOL
REMARK 922        TOTAL FREE ENERGY PREDICTED BY IDOCK:   -7.82 KCAL/MOL
REMARK 923 INTER-LIGAND FREE ENERGY PREDICTED BY IDOCK:   -6.77 KCAL/MOL
REMARK 924 INTRA-LIGAND FREE ENERGY PREDICTED BY IDOCK:   -1.05 KCAL/MOL
REMARK 927      BINDING AFFINITY PREDICTED BY RF-SCORE:    0.00 PKD
ROOT
HETATM    1  O   UNL     1     -11.528   5.844  71.889  1.00  0.00    -0.279 OA 
HETATM    2  C   UNL     1     -12.213   7.011  71.819  1.00  0.00    -0.351 C  
HETATM    3  O   UNL     1     -13.379   7.058  71.458  1.00  0.00    -0.366 OA 
HETATM    4  C   UNL     1     -11.378   8.218  72.234  1.00  0.00    -0.378 C  
ENDROOT
BRANCH   4   5
HETATM    5  O   UNL     1     -12.129   9.429  72.076  1.00  0.00    -0.362 OA 
BRANCH   5   6
HETATM    6  C   UNL     1     -11.883  10.143  70.947  1.00  0.00    -0.374 C  
HETATM    7  O   UNL     1     -12.689  10.865  70.382  1.00  0.00    -0.309 OA 
BRANCH   6   8
HETATM    8  C   UNL     1     -10.457   9.910  70.482  1.00  0.00    -0.330 C  
BRANCH   8   9
HETATM    9  C   UNL     1     -10.302   9.849  68.980  1.00  0.00    -0.224 A  
HETATM   10  C   UNL     1     -10.465   8.590  68.364  1.00  0.00    -0.215 A  
HETATM   11  C   UNL     1     -10.370   8.445  66.982  1.00  0.00    -0.385 A  
HETATM   12  C   UNL     1     -10.151   9.560  66.185  1.00  0.00    -0.326 A  
HETATM   13  C   UNL     1      -9.963  10.808  66.780  1.00  0.00    -0.249 A  
HETATM   14  C   UNL     1      -9.980  10.964  68.173  1.00  0.00    -0.174 A  
BRANCH  14  15
HETATM   15  N   UNL     1      -9.606  12.207  68.730  1.00  0.00    -0.405 NA 
HETATM   16  H   UNL     1      -9.184  12.139  69.656  1.00  0.00     0.000 HD 
BRANCH  15  17
HETATM   17  C   UNL     1      -9.711  13.541  68.234  1.00  0.00    -0.224 A  
HETATM   18  C   UNL     1      -8.609  14.052  67.501  1.00  0.00    -0.192 A  
HETATM   19  C   UNL     1      -8.671  15.268  66.812  1.00  0.00    -0.304 A  
HETATM   20 CL   UNL     1      -7.111  13.178  67.421  1.00  0.00    -0.149 Cl 
HETATM   21  C   UNL     1      -9.832  16.026  66.848  1.00  0.00    -0.252 A  
HETATM   22  C   UNL     1     -10.895  15.602  67.637  1.00  0.00    -0.307 A  
HETATM   23  C   UNL     1     -10.838  14.385  68.343  1.00  0.00    -0.248 A  
HETATM   24 CL   UNL     1     -12.270  14.012  69.238  1.00  0.00    -0.367 Cl 
ENDBRANCH  15  17
ENDBRANCH  14  15
ENDBRANCH   8   9
ENDBRANCH   6   8
ENDBRANCH   5   6
ENDBRANCH   4   5
TORSDOF 6
ENDMDL
MODEL      146
REMARK 921   NORMALIZED FREE ENERGY PREDICTED BY IDOCK:   -5.08 KCAL/MOL
REMARK 922        TOTAL FREE ENERGY PREDICTED BY IDOCK:   -7.82 KCAL/MOL
REMARK 923 INTER-LIGAND FREE ENERGY PREDICTED BY IDOCK:   -6.98 KCAL/MOL
REMARK 924 INTRA-LIGAND FREE ENERGY PREDICTED BY IDOCK:   -0.84 KCAL/MOL
REMARK 927      BINDING AFFINITY PREDICTED BY RF-SCORE:    0.00 PKD
ROOT
HETATM    1  O   UNL     1      -9.244  17.567  68.693  1.00  0.00    -0.277 OA 
HETATM    2  C   UNL     1     -10.316  16.989  68.097  1.00  0.00    -0.347 C  
HETATM    3  O   UNL     1     -11.135  17.638  67.467  1.00  0.00    -0.182 OA 
HETATM    4  C   UNL     1     -10.369  15.479  68.304  1.00  0.00    -0.235 C  
ENDROOT
BRANCH   4   5
HETATM    5  O   UNL     1     -11.554  14.930  67.713  1.00  0.00    -0.330 OA 
BRANCH   5   6
HETATM    6  C   UNL     1     -11.643  13.575  67.696  1.00  0.00    -0.339 C  
HETATM    7  O   UNL     1     -12.286  12.921  66.891  1.00  0.00    -0.407 OA 
BRANCH   6   8
HETATM    8  C   UNL     1     -10.828  12.985  68.833  1.00  0.00    -0.244 C  
BRANCH   8   9
HETATM    9  C   UNL     1     -11.661  12.357  69.927  1.00  0.00    -0.260 A  
HETATM   10  C   UNL     1     -12.564  13.194  70.612  1.00  0.00    -0.286 A  
HETATM   11  C   UNL     1     -13.393  12.695  71.614  1.00  0.00    -0.315 A  
HETATM   12  C   UNL     1     -13.365  11.342  71.921  1.00  0.00    -0.409 A  
HETATM   13  C   UNL     1     -12.459  10.504  71.270  1.00  0.00    -0.524 A  
HETATM   14  C   UNL     1     -11.563  11.000  70.312  1.00  0.00    -0.322 A  
BRANCH  14  15
HETATM   15  N   UNL     1     -10.549  10.152  69.816  1.00  0.00    -0.244 NA 
HETATM   16  H   UNL     1      -9.604  10.448  70.057  1.00  0.00     0.000 HD 
BRANCH  15  17
HETATM   17  C   UNL     1     -10.606   8.956  69.039  1.00  0.00    -0.183 A  
HETATM   18  C   UNL     1     -10.850   7.742  69.730  1.00  0.00    -0.209 A  
HETATM   19  C   UNL     1     -11.111   6.541  69.059  1.00  0.00    -0.375 A  
HETATM   20 CL   UNL     1     -10.841   7.687  71.465  1.00  0.00    -0.245 Cl 
HETATM   21  C   UNL     1     -11.116   6.510  67.672  1.00  0.00    -0.380 A  
HETATM   22  C   UNL     1     -10.783   7.661  66.966  1.00  0.00    -0.340 A  
HETATM   23  C   UNL     1     -10.508   8.870  67.633  1.00  0.00    -0.255 A  
HETATM   24 CL   UNL     1     -10.150  10.197  66.583  1.00  0.00    -0.270 Cl 
ENDBRANCH  15  17
ENDBRANCH  14  15
ENDBRANCH   8   9
ENDBRANCH   6   8
ENDBRANCH   5   6
ENDBRANCH   4   5
TORSDOF 6
ENDMDL
MODEL      147
REMARK 921   NORMALIZED FREE ENERGY PREDICTED BY IDOCK:   -5.07 KCAL/MOL
REMARK 922        TOTAL FREE ENERGY PREDICTED BY IDOCK:   -7.81 KCAL/MOL
REMARK 923 INTER-LIGAND FREE ENERGY PREDICTED BY IDOCK:   -6.65 KCAL/MOL
REMARK 924 INTRA-LIGAND FREE ENERGY PREDICTED BY IDOCK:   -1.17 KCAL/MOL
REMARK 927      BINDING AFFINITY PREDICTED BY RF-SCORE:    0.00 PKD
ROOT
HETATM    1  O   UNL     1     -12.671   8.549  71.779  1.00  0.00    -0.319 OA 
HETATM    2  C   UNL     1     -11.830   9.473  71.253  1.00  0.00    -0.373 C  
HETATM    3  O   UNL     1     -10.618   9.387  71.370  1.00  0.00    -0.331 OA 
HETATM    4  C   UNL     1     -12.561  10.594  70.522  1.00  0.00    -0.348 C  
ENDROOT
BRANCH   4   5
HETATM    5  O   UNL     1     -11.631  11.576  70.046  1.00  0.00    -0.301 OA 
BRANCH   5   6
HETATM    6  C   UNL     1     -11.502  11.674  68.697  1.00  0.00    -0.290 C  
HETATM    7  O   UNL     1     -11.670  10.761  67.905  1.00  0.00    -0.543 OA 
BRANCH   6   8
HETATM    8  C   UNL     1     -11.111  13.089  68.311  1.00  0.00    -0.293 C  
BRANCH   8   9
HETATM    9  C   UNL     1     -11.280  13.396  66.841  1.00  0.00    -0.330 A  
HETATM   10  C   UNL     1     -12.543  13.861  66.420  1.00  0.00    -0.314 A  
HETATM   11  C   UNL     1     -12.781  14.198  65.089  1.00  0.00    -0.387 A  
HETATM   12  C   UNL     1     -11.752  14.115  64.162  1.00  0.00    -0.306 A  
HETATM   13  C   UNL     1     -10.503  13.632  64.558  1.00  0.00    -0.411 A  
HETATM   14  C   UNL     1     -10.264  13.217  65.876  1.00  0.00    -0.293 A  
BRANCH  14  15
HETATM   15  N   UNL     1      -9.046  12.571  66.182  1.00  0.00    -0.428 NA 
HETATM   16  H   UNL     1      -8.272  13.208  66.369  1.00  0.00     0.000 HD 
BRANCH  15  17
HETATM   17  C   UNL     1      -8.700  11.189  66.276  1.00  0.00    -0.182 A  
HETATM   18  C   UNL     1      -8.013  10.769  67.443  1.00  0.00    -0.112 A  
HETATM   19  C   UNL     1      -7.789   9.417  67.730  1.00  0.00    -0.095 A  
HETATM   20 CL   UNL     1      -7.412  11.926  68.589  1.00  0.00    -0.117 Cl 
HETATM   21  C   UNL     1      -8.227   8.440  66.849  1.00  0.00    -0.103 A  
HETATM   22  C   UNL     1      -8.816   8.823  65.648  1.00  0.00    -0.239 A  
HETATM   23  C   UNL     1      -9.035  10.180  65.346  1.00  0.00    -0.177 A  
HETATM   24 CL   UNL     1      -9.811  10.456  63.825  1.00  0.00    -0.357 Cl 
ENDBRANCH  15  17
ENDBRANCH  14  15
ENDBRANCH   8   9
ENDBRANCH   6   8
ENDBRANCH   5   6
ENDBRANCH   4   5
TORSDOF 6
ENDMDL
MODEL      148
REMARK 921   NORMALIZED FREE ENERGY PREDICTED BY IDOCK:   -5.07 KCAL/MOL
REMARK 922        TOTAL FREE ENERGY PREDICTED BY IDOCK:   -7.81 KCAL/MOL
REMARK 923 INTER-LIGAND FREE ENERGY PREDICTED BY IDOCK:   -7.39 KCAL/MOL
REMARK 924 INTRA-LIGAND FREE ENERGY PREDICTED BY IDOCK:   -0.42 KCAL/MOL
REMARK 927      BINDING AFFINITY PREDICTED BY RF-SCORE:    0.00 PKD
ROOT
HETATM    1  O   UNL     1      -8.603   8.594  72.248  1.00  0.00    -0.319 OA 
HETATM    2  C   UNL     1      -9.951   8.620  72.106  1.00  0.00    -0.316 C  
HETATM    3  O   UNL     1     -10.695   8.041  72.882  1.00  0.00    -0.355 OA 
HETATM    4  C   UNL     1     -10.407   9.432  70.899  1.00  0.00    -0.310 C  
ENDROOT
BRANCH   4   5
HETATM    5  O   UNL     1     -11.832   9.369  70.757  1.00  0.00    -0.276 OA 
BRANCH   5   6
HETATM    6  C   UNL     1     -12.517  10.494  71.090  1.00  0.00    -0.412 C  
HETATM    7  O   UNL     1     -13.154  10.652  72.119  1.00  0.00    -0.460 OA 
BRANCH   6   8
HETATM    8  C   UNL     1     -12.382  11.532  69.991  1.00  0.00    -0.287 C  
BRANCH   8   9
HETATM    9  C   UNL     1     -12.470  12.960  70.478  1.00  0.00    -0.294 A  
HETATM   10  C   UNL     1     -13.526  13.280  71.356  1.00  0.00    -0.149 A  
HETATM   11  C   UNL     1     -13.666  14.563  71.879  1.00  0.00    -0.516 A  
HETATM   12  C   UNL     1     -12.732  15.540  71.568  1.00  0.00    -0.501 A  
HETATM   13  C   UNL     1     -11.695  15.248  70.681  1.00  0.00    -0.371 A  
HETATM   14  C   UNL     1     -11.578  13.984  70.084  1.00  0.00    -0.204 A  
BRANCH  14  15
HETATM   15  N   UNL     1     -10.624  13.793  69.061  1.00  0.00    -0.379 NA 
HETATM   16  H   UNL     1     -10.130  12.903  69.113  1.00  0.00     0.000 HD 
BRANCH  15  17
HETATM   17  C   UNL     1     -10.224  14.619  67.967  1.00  0.00    -0.231 A  
HETATM   18  C   UNL     1      -8.964  15.262  68.064  1.00  0.00    -0.171 A  
HETATM   19  C   UNL     1      -8.388  15.940  66.984  1.00  0.00    -0.255 A  
HETATM   20 CL   UNL     1      -8.061  15.234  69.546  1.00  0.00    -0.232 Cl 
HETATM   21  C   UNL     1      -9.063  16.016  65.774  1.00  0.00    -0.168 A  
HETATM   22  C   UNL     1     -10.343  15.481  65.677  1.00  0.00    -0.407 A  
HETATM   23  C   UNL     1     -10.935  14.807  66.761  1.00  0.00    -0.327 A  
HETATM   24 CL   UNL     1     -12.514  14.182  66.436  1.00  0.00    -0.446 Cl 
ENDBRANCH  15  17
ENDBRANCH  14  15
ENDBRANCH   8   9
ENDBRANCH   6   8
ENDBRANCH   5   6
ENDBRANCH   4   5
TORSDOF 6
ENDMDL
MODEL      149
REMARK 921   NORMALIZED FREE ENERGY PREDICTED BY IDOCK:   -5.06 KCAL/MOL
REMARK 922        TOTAL FREE ENERGY PREDICTED BY IDOCK:   -7.79 KCAL/MOL
REMARK 923 INTER-LIGAND FREE ENERGY PREDICTED BY IDOCK:   -7.34 KCAL/MOL
REMARK 924 INTRA-LIGAND FREE ENERGY PREDICTED BY IDOCK:   -0.46 KCAL/MOL
REMARK 927      BINDING AFFINITY PREDICTED BY RF-SCORE:    0.00 PKD
ROOT
HETATM    1  O   UNL     1     -13.956   9.102  72.438  1.00  0.00    -0.471 OA 
HETATM    2  C   UNL     1     -13.085  10.013  71.939  1.00  0.00    -0.460 C  
HETATM    3  O   UNL     1     -13.198  11.208  72.164  1.00  0.00    -0.481 OA 
HETATM    4  C   UNL     1     -11.986   9.383  71.091  1.00  0.00    -0.337 C  
ENDROOT
BRANCH   4   5
HETATM    5  O   UNL     1     -11.136  10.395  70.534  1.00  0.00    -0.311 OA 
BRANCH   5   6
HETATM    6  C   UNL     1     -11.530  10.920  69.345  1.00  0.00    -0.302 C  
HETATM    7  O   UNL     1     -12.671  10.901  68.910  1.00  0.00    -0.200 OA 
BRANCH   6   8
HETATM    8  C   UNL     1     -10.342  11.532  68.625  1.00  0.00    -0.226 C  
BRANCH   8   9
HETATM    9  C   UNL     1     -10.483  11.562  67.120  1.00  0.00    -0.259 A  
HETATM   10  C   UNL     1      -9.873  10.519  66.393  1.00  0.00    -0.260 A  
HETATM   11  C   UNL     1      -9.976  10.450  65.006  1.00  0.00    -0.399 A  
HETATM   12  C   UNL     1     -10.725  11.397  64.322  1.00  0.00    -0.420 A  
HETATM   13  C   UNL     1     -11.314  12.450  65.024  1.00  0.00    -0.363 A  
HETATM   14  C   UNL     1     -11.159  12.580  66.411  1.00  0.00    -0.290 A  
BRANCH  14  15
HETATM   15  N   UNL     1     -11.620  13.755  67.046  1.00  0.00    -0.345 NA 
HETATM   16  H   UNL     1     -12.632  13.877  67.011  1.00  0.00     0.000 HD 
BRANCH  15  17
HETATM   17  C   UNL     1     -10.929  14.803  67.725  1.00  0.00    -0.291 A  
HETATM   18  C   UNL     1     -10.027  15.588  66.963  1.00  0.00    -0.239 A  
HETATM   19  C   UNL     1      -9.437  16.751  67.472  1.00  0.00    -0.237 A  
HETATM   20 CL   UNL     1      -9.607  15.140  65.340  1.00  0.00    -0.235 Cl 
HETATM   21  C   UNL     1      -9.714  17.158  68.769  1.00  0.00    -0.277 A  
HETATM   22  C   UNL     1     -10.517  16.357  69.574  1.00  0.00    -0.301 A  
HETATM   23  C   UNL     1     -11.105  15.180  69.075  1.00  0.00    -0.255 A  
HETATM   24 CL   UNL     1     -12.097  14.339  70.215  1.00  0.00    -0.378 Cl 
ENDBRANCH  15  17
ENDBRANCH  14  15
ENDBRANCH   8   9
ENDBRANCH   6   8
ENDBRANCH   5   6
ENDBRANCH   4   5
TORSDOF 6
ENDMDL
MODEL      150
REMARK 921   NORMALIZED FREE ENERGY PREDICTED BY IDOCK:   -5.04 KCAL/MOL
REMARK 922        TOTAL FREE ENERGY PREDICTED BY IDOCK:   -7.77 KCAL/MOL
REMARK 923 INTER-LIGAND FREE ENERGY PREDICTED BY IDOCK:   -7.09 KCAL/MOL
REMARK 924 INTRA-LIGAND FREE ENERGY PREDICTED BY IDOCK:   -0.68 KCAL/MOL
REMARK 927      BINDING AFFINITY PREDICTED BY RF-SCORE:    0.00 PKD
ROOT
HETATM    1  O   UNL     1     -10.510   5.678  72.064  1.00  0.00    -0.205 OA 
HETATM    2  C   UNL     1     -10.841   6.991  72.001  1.00  0.00    -0.223 C  
HETATM    3  O   UNL     1     -10.922   7.687  73.001  1.00  0.00    -0.371 OA 
HETATM    4  C   UNL     1     -11.091   7.474  70.577  1.00  0.00    -0.259 C  
ENDROOT
BRANCH   4   5
HETATM    5  O   UNL     1     -11.503   8.848  70.575  1.00  0.00    -0.258 OA 
BRANCH   5   6
HETATM    6  C   UNL     1     -10.591   9.746  70.121  1.00  0.00    -0.285 C  
HETATM    7  O   UNL     1      -9.428   9.812  70.484  1.00  0.00    -0.229 OA 
BRANCH   6   8
HETATM    8  C   UNL     1     -11.229  10.667  69.097  1.00  0.00    -0.324 C  
BRANCH   8   9
HETATM    9  C   UNL     1     -10.708  10.479  67.691  1.00  0.00    -0.324 A  
HETATM   10  C   UNL     1      -9.793   9.427  67.476  1.00  0.00    -0.220 A  
HETATM   11  C   UNL     1      -9.285   9.161  66.207  1.00  0.00    -0.246 A  
HETATM   12  C   UNL     1      -9.711   9.913  65.122  1.00  0.00    -0.376 A  
HETATM   13  C   UNL     1     -10.596  10.974  65.321  1.00  0.00    -0.283 A  
HETATM   14  C   UNL     1     -11.062  11.306  66.601  1.00  0.00    -0.235 A  
BRANCH  14  15
HETATM   15  N   UNL     1     -11.808  12.493  66.773  1.00  0.00    -0.522 NA 
HETATM   16  H   UNL     1     -12.731  12.348  67.183  1.00  0.00     0.000 HD 
BRANCH  15  17
HETATM   17  C   UNL     1     -11.508  13.856  66.478  1.00  0.00    -0.348 A  
HETATM   18  C   UNL     1     -10.991  14.652  67.532  1.00  0.00    -0.298 A  
HETATM   19  C   UNL     1     -10.488  15.940  67.317  1.00  0.00    -0.310 A  
HETATM   20 CL   UNL     1     -10.952  14.055  69.162  1.00  0.00    -0.271 Cl 
HETATM   21  C   UNL     1     -10.505  16.486  66.042  1.00  0.00    -0.320 A  
HETATM   22  C   UNL     1     -11.095  15.771  65.005  1.00  0.00    -0.380 A  
HETATM   23  C   UNL     1     -11.613  14.479  65.215  1.00  0.00    -0.359 A  
HETATM   24 CL   UNL     1     -12.274  13.737  63.799  1.00  0.00    -0.447 Cl 
ENDBRANCH  15  17
ENDBRANCH  14  15
ENDBRANCH   8   9
ENDBRANCH   6   8
ENDBRANCH   5   6
ENDBRANCH   4   5
TORSDOF 6
ENDMDL
MODEL      151
REMARK 921   NORMALIZED FREE ENERGY PREDICTED BY IDOCK:   -5.04 KCAL/MOL
REMARK 922        TOTAL FREE ENERGY PREDICTED BY IDOCK:   -7.77 KCAL/MOL
REMARK 923 INTER-LIGAND FREE ENERGY PREDICTED BY IDOCK:   -6.44 KCAL/MOL
REMARK 924 INTRA-LIGAND FREE ENERGY PREDICTED BY IDOCK:   -1.33 KCAL/MOL
REMARK 927      BINDING AFFINITY PREDICTED BY RF-SCORE:    0.00 PKD
ROOT
HETATM    1  O   UNL     1      -6.232  11.067  68.842  1.00  0.00    -0.040 OA 
HETATM    2  C   UNL     1      -7.116  11.566  67.944  1.00  0.00    -0.076 C  
HETATM    3  O   UNL     1      -7.826  12.526  68.199  1.00  0.00    -0.131 OA 
HETATM    4  C   UNL     1      -7.116  10.805  66.623  1.00  0.00    -0.133 C  
ENDROOT
BRANCH   4   5
HETATM    5  O   UNL     1      -8.115  11.330  65.738  1.00  0.00    -0.045 OA 
BRANCH   5   6
HETATM    6  C   UNL     1      -8.509  10.512  64.727  1.00  0.00    -0.147 C  
HETATM    7  O   UNL     1      -7.777  10.060  63.861  1.00  0.00    -0.140 OA 
BRANCH   6   8
HETATM    8  C   UNL     1     -10.000  10.244  64.824  1.00  0.00    -0.392 C  
BRANCH   8   9
HETATM    9  C   UNL     1     -10.855  11.489  64.769  1.00  0.00    -0.360 A  
HETATM   10  C   UNL     1     -11.285  11.922  63.498  1.00  0.00    -0.501 A  
HETATM   11  C   UNL     1     -12.101  13.042  63.355  1.00  0.00    -0.591 A  
HETATM   12  C   UNL     1     -12.535  13.726  64.480  1.00  0.00    -0.329 A  
HETATM   13  C   UNL     1     -12.098  13.327  65.744  1.00  0.00    -0.491 A  
HETATM   14  C   UNL     1     -11.217  12.248  65.905  1.00  0.00    -0.340 A  
BRANCH  14  15
HETATM   15  N   UNL     1     -10.664  11.998  67.180  1.00  0.00    -0.231 NA 
HETATM   16  H   UNL     1      -9.648  12.080  67.217  1.00  0.00     0.000 HD 
BRANCH  15  17
HETATM   17  C   UNL     1     -11.267  11.650  68.426  1.00  0.00    -0.249 A  
HETATM   18  C   UNL     1     -11.178  10.295  68.836  1.00  0.00    -0.207 A  
HETATM   19  C   UNL     1     -11.565   9.876  70.115  1.00  0.00    -0.281 A  
HETATM   20 CL   UNL     1     -10.575   9.076  67.758  1.00  0.00    -0.299 Cl 
HETATM   21  C   UNL     1     -12.073  10.795  71.021  1.00  0.00    -0.452 A  
HETATM   22  C   UNL     1     -12.264  12.112  70.617  1.00  0.00    -0.392 A  
HETATM   23  C   UNL     1     -11.889  12.540  69.329  1.00  0.00    -0.304 A  
HETATM   24 CL   UNL     1     -12.172  14.219  69.026  1.00  0.00    -0.313 Cl 
ENDBRANCH  15  17
ENDBRANCH  14  15
ENDBRANCH   8   9
ENDBRANCH   6   8
ENDBRANCH   5   6
ENDBRANCH   4   5
TORSDOF 6
ENDMDL
MODEL      152
REMARK 921   NORMALIZED FREE ENERGY PREDICTED BY IDOCK:   -5.04 KCAL/MOL
REMARK 922        TOTAL FREE ENERGY PREDICTED BY IDOCK:   -7.76 KCAL/MOL
REMARK 923 INTER-LIGAND FREE ENERGY PREDICTED BY IDOCK:   -6.94 KCAL/MOL
REMARK 924 INTRA-LIGAND FREE ENERGY PREDICTED BY IDOCK:   -0.83 KCAL/MOL
REMARK 927      BINDING AFFINITY PREDICTED BY RF-SCORE:    0.00 PKD
ROOT
HETATM    1  O   UNL     1      -7.280  16.855  68.227  1.00  0.00    -0.173 OA 
HETATM    2  C   UNL     1      -7.634  15.547  68.210  1.00  0.00    -0.115 C  
HETATM    3  O   UNL     1      -6.887  14.679  67.786  1.00  0.00    -0.146 OA 
HETATM    4  C   UNL     1      -9.032  15.301  68.767  1.00  0.00    -0.200 C  
ENDROOT
BRANCH   4   5
HETATM    5  O   UNL     1      -9.380  13.914  68.663  1.00  0.00    -0.187 OA 
BRANCH   5   6
HETATM    6  C   UNL     1     -10.608  13.641  68.150  1.00  0.00    -0.247 C  
HETATM    7  O   UNL     1     -11.218  14.352  67.369  1.00  0.00    -0.300 OA 
BRANCH   6   8
HETATM    8  C   UNL     1     -11.121  12.321  68.697  1.00  0.00    -0.291 C  
BRANCH   8   9
HETATM    9  C   UNL     1     -11.937  12.454  69.962  1.00  0.00    -0.372 A  
HETATM   10  C   UNL     1     -12.038  13.738  70.534  1.00  0.00    -0.416 A  
HETATM   11  C   UNL     1     -12.794  13.960  71.683  1.00  0.00    -0.432 A  
HETATM   12  C   UNL     1     -13.496  12.911  72.258  1.00  0.00    -0.631 A  
HETATM   13  C   UNL     1     -13.387  11.628  71.720  1.00  0.00    -0.340 A  
HETATM   14  C   UNL     1     -12.572  11.369  70.609  1.00  0.00    -0.271 A  
BRANCH  14  15
HETATM   15  N   UNL     1     -12.354  10.030  70.214  1.00  0.00    -0.493 NA 
HETATM   16  H   UNL     1     -12.715   9.805  69.288  1.00  0.00     0.000 HD 
BRANCH  15  17
HETATM   17  C   UNL     1     -11.720   8.935  70.875  1.00  0.00    -0.267 A  
HETATM   18  C   UNL     1     -12.561   7.959  71.468  1.00  0.00    -0.321 A  
HETATM   19  C   UNL     1     -12.062   6.755  71.978  1.00  0.00    -0.344 A  
HETATM   20 CL   UNL     1     -14.274   8.213  71.590  1.00  0.00    -0.504 Cl 
HETATM   21  C   UNL     1     -10.700   6.494  71.929  1.00  0.00    -0.251 A  
HETATM   22  C   UNL     1      -9.839   7.472  71.444  1.00  0.00    -0.191 A  
HETATM   23  C   UNL     1     -10.331   8.691  70.940  1.00  0.00    -0.211 A  
HETATM   24 CL   UNL     1      -9.110   9.764  70.349  1.00  0.00    -0.233 Cl 
ENDBRANCH  15  17
ENDBRANCH  14  15
ENDBRANCH   8   9
ENDBRANCH   6   8
ENDBRANCH   5   6
ENDBRANCH   4   5
TORSDOF 6
ENDMDL
MODEL      153
REMARK 921   NORMALIZED FREE ENERGY PREDICTED BY IDOCK:   -5.03 KCAL/MOL
REMARK 922        TOTAL FREE ENERGY PREDICTED BY IDOCK:   -7.76 KCAL/MOL
REMARK 923 INTER-LIGAND FREE ENERGY PREDICTED BY IDOCK:   -7.00 KCAL/MOL
REMARK 924 INTRA-LIGAND FREE ENERGY PREDICTED BY IDOCK:   -0.76 KCAL/MOL
REMARK 927      BINDING AFFINITY PREDICTED BY RF-SCORE:    0.00 PKD
ROOT
HETATM    1  O   UNL     1     -12.268  16.050  72.264  1.00  0.00    -0.447 OA 
HETATM    2  C   UNL     1     -12.525  15.471  71.066  1.00  0.00    -0.436 C  
HETATM    3  O   UNL     1     -13.470  14.716  70.901  1.00  0.00    -0.361 OA 
HETATM    4  C   UNL     1     -11.521  15.865  69.988  1.00  0.00    -0.354 C  
ENDROOT
BRANCH   4   5
HETATM    5  O   UNL     1     -11.799  15.172  68.763  1.00  0.00    -0.330 OA 
BRANCH   5   6
HETATM    6  C   UNL     1     -11.016  14.095  68.493  1.00  0.00    -0.254 C  
HETATM    7  O   UNL     1      -9.818  14.023  68.714  1.00  0.00    -0.213 OA 
BRANCH   6   8
HETATM    8  C   UNL     1     -11.846  12.990  67.868  1.00  0.00    -0.389 C  
BRANCH   8   9
HETATM    9  C   UNL     1     -11.103  12.166  66.842  1.00  0.00    -0.348 A  
HETATM   10  C   UNL     1     -10.608  12.841  65.707  1.00  0.00    -0.295 A  
HETATM   11  C   UNL     1      -9.884  12.168  64.725  1.00  0.00    -0.157 A  
HETATM   12  C   UNL     1      -9.606  10.817  64.878  1.00  0.00    -0.307 A  
HETATM   13  C   UNL     1     -10.111  10.129  65.982  1.00  0.00    -0.317 A  
HETATM   14  C   UNL     1     -10.904  10.770  66.944  1.00  0.00    -0.229 A  
BRANCH  14  15
HETATM   15  N   UNL     1     -11.538   9.995  67.940  1.00  0.00    -0.569 NA 
HETATM   16  H   UNL     1     -12.542   9.881  67.803  1.00  0.00     0.000 HD 
BRANCH  15  17
HETATM   17  C   UNL     1     -11.029   9.342  69.103  1.00  0.00    -0.060 A  
HETATM   18  C   UNL     1     -10.387   8.091  68.918  1.00  0.00    -0.209 A  
HETATM   19  C   UNL     1      -9.690   7.451  69.950  1.00  0.00    -0.171 A  
HETATM   20 CL   UNL     1     -10.432   7.285  67.382  1.00  0.00    -0.328 Cl 
HETATM   21  C   UNL     1      -9.629   8.032  71.208  1.00  0.00    -0.191 A  
HETATM   22  C   UNL     1     -10.331   9.208  71.448  1.00  0.00    -0.409 A  
HETATM   23  C   UNL     1     -11.043   9.853  70.419  1.00  0.00    -0.319 A  
HETATM   24 CL   UNL     1     -11.821  11.321  70.902  1.00  0.00    -0.306 Cl 
ENDBRANCH  15  17
ENDBRANCH  14  15
ENDBRANCH   8   9
ENDBRANCH   6   8
ENDBRANCH   5   6
ENDBRANCH   4   5
TORSDOF 6
ENDMDL
MODEL      154
REMARK 921   NORMALIZED FREE ENERGY PREDICTED BY IDOCK:   -5.02 KCAL/MOL
REMARK 922        TOTAL FREE ENERGY PREDICTED BY IDOCK:   -7.74 KCAL/MOL
REMARK 923 INTER-LIGAND FREE ENERGY PREDICTED BY IDOCK:   -6.28 KCAL/MOL
REMARK 924 INTRA-LIGAND FREE ENERGY PREDICTED BY IDOCK:   -1.45 KCAL/MOL
REMARK 927      BINDING AFFINITY PREDICTED BY RF-SCORE:    0.00 PKD
ROOT
HETATM    1  O   UNL     1      -9.264   6.306  66.581  1.00  0.00    -0.138 OA 
HETATM    2  C   UNL     1     -10.340   6.714  67.297  1.00  0.00    -0.232 C  
HETATM    3  O   UNL     1     -10.991   7.699  66.984  1.00  0.00    -0.277 OA 
HETATM    4  C   UNL     1     -10.626   5.824  68.501  1.00  0.00    -0.229 C  
ENDROOT
BRANCH   4   5
HETATM    5  O   UNL     1     -11.728   6.340  69.260  1.00  0.00    -0.262 OA 
BRANCH   5   6
HETATM    6  C   UNL     1     -11.468   6.654  70.556  1.00  0.00    -0.376 C  
HETATM    7  O   UNL     1     -11.251   5.848  71.446  1.00  0.00    -0.274 OA 
BRANCH   6   8
HETATM    8  C   UNL     1     -11.491   8.161  70.742  1.00  0.00    -0.272 C  
BRANCH   8   9
HETATM    9  C   UNL     1     -10.191   8.845  70.390  1.00  0.00    -0.236 A  
HETATM   10  C   UNL     1      -9.055   8.508  71.156  1.00  0.00    -0.238 A  
HETATM   11  C   UNL     1      -7.809   9.067  70.882  1.00  0.00    -0.172 A  
HETATM   12  C   UNL     1      -7.664   9.940  69.814  1.00  0.00    -0.159 A  
HETATM   13  C   UNL     1      -8.782  10.303  69.062  1.00  0.00    -0.164 A  
HETATM   14  C   UNL     1     -10.059   9.811  69.367  1.00  0.00    -0.209 A  
BRANCH  14  15
HETATM   15  N   UNL     1     -11.180  10.346  68.694  1.00  0.00    -0.360 NA 
HETATM   16  H   UNL     1     -11.980   9.715  68.651  1.00  0.00     0.000 HD 
BRANCH  15  17
HETATM   17  C   UNL     1     -11.398  11.608  68.063  1.00  0.00    -0.296 A  
HETATM   18  C   UNL     1     -11.805  12.686  68.889  1.00  0.00    -0.302 A  
HETATM   19  C   UNL     1     -11.868  14.003  68.419  1.00  0.00    -0.397 A  
HETATM   20 CL   UNL     1     -12.250  12.421  70.545  1.00  0.00    -0.432 Cl 
HETATM   21  C   UNL     1     -11.543  14.284  67.100  1.00  0.00    -0.402 A  
HETATM   22  C   UNL     1     -11.235  13.236  66.239  1.00  0.00    -0.321 A  
HETATM   23  C   UNL     1     -11.180  11.907  66.700  1.00  0.00    -0.328 A  
HETATM   24 CL   UNL     1     -10.745  10.749  65.490  1.00  0.00    -0.208 Cl 
ENDBRANCH  15  17
ENDBRANCH  14  15
ENDBRANCH   8   9
ENDBRANCH   6   8
ENDBRANCH   5   6
ENDBRANCH   4   5
TORSDOF 6
ENDMDL
MODEL      155
REMARK 921   NORMALIZED FREE ENERGY PREDICTED BY IDOCK:   -5.02 KCAL/MOL
REMARK 922        TOTAL FREE ENERGY PREDICTED BY IDOCK:   -7.74 KCAL/MOL
REMARK 923 INTER-LIGAND FREE ENERGY PREDICTED BY IDOCK:   -6.58 KCAL/MOL
REMARK 924 INTRA-LIGAND FREE ENERGY PREDICTED BY IDOCK:   -1.16 KCAL/MOL
REMARK 927      BINDING AFFINITY PREDICTED BY RF-SCORE:    0.00 PKD
ROOT
HETATM    1  O   UNL     1      -9.304   6.409  66.239  1.00  0.00    -0.161 OA 
HETATM    2  C   UNL     1     -10.289   6.718  67.118  1.00  0.00    -0.258 C  
HETATM    3  O   UNL     1     -10.938   7.748  67.028  1.00  0.00    -0.247 OA 
HETATM    4  C   UNL     1     -10.480   5.656  68.195  1.00  0.00    -0.195 C  
ENDROOT
BRANCH   4   5
HETATM    5  O   UNL     1     -11.484   6.064  69.134  1.00  0.00    -0.316 OA 
BRANCH   5   6
HETATM    6  C   UNL     1     -11.089   6.156  70.431  1.00  0.00    -0.352 C  
HETATM    7  O   UNL     1     -10.717   5.221  71.121  1.00  0.00    -0.206 OA 
BRANCH   6   8
HETATM    8  C   UNL     1     -11.184   7.595  70.905  1.00  0.00    -0.282 C  
BRANCH   8   9
HETATM    9  C   UNL     1     -10.079   8.487  70.388  1.00  0.00    -0.208 A  
HETATM   10  C   UNL     1      -8.752   8.081  70.634  1.00  0.00    -0.131 A  
HETATM   11  C   UNL     1      -7.671   8.826  70.168  1.00  0.00    -0.084 A  
HETATM   12  C   UNL     1      -7.895   9.968  69.413  1.00  0.00    -0.141 A  
HETATM   13  C   UNL     1      -9.203  10.398  69.182  1.00  0.00    -0.202 A  
HETATM   14  C   UNL     1     -10.303   9.704  69.705  1.00  0.00    -0.241 A  
BRANCH  14  15
HETATM   15  N   UNL     1     -11.590  10.277  69.597  1.00  0.00    -0.386 NA 
HETATM   16  H   UNL     1     -12.257   9.706  69.078  1.00  0.00     0.000 HD 
BRANCH  15  17
HETATM   17  C   UNL     1     -12.127  11.507  70.080  1.00  0.00    -0.351 A  
HETATM   18  C   UNL     1     -12.815  11.474  71.320  1.00  0.00    -0.360 A  
HETATM   19  C   UNL     1     -13.219  12.641  71.980  1.00  0.00    -0.531 A  
HETATM   20 CL   UNL     1     -13.190   9.965  72.091  1.00  0.00    -0.536 Cl 
HETATM   21  C   UNL     1     -12.967  13.881  71.412  1.00  0.00    -0.430 A  
HETATM   22  C   UNL     1     -12.383  13.943  70.151  1.00  0.00    -0.400 A  
HETATM   23  C   UNL     1     -11.983  12.775  69.475  1.00  0.00    -0.276 A  
HETATM   24 CL   UNL     1     -11.245  13.058  67.937  1.00  0.00    -0.284 Cl 
ENDBRANCH  15  17
ENDBRANCH  14  15
ENDBRANCH   8   9
ENDBRANCH   6   8
ENDBRANCH   5   6
ENDBRANCH   4   5
TORSDOF 6
ENDMDL
MODEL      156
REMARK 921   NORMALIZED FREE ENERGY PREDICTED BY IDOCK:   -5.01 KCAL/MOL
REMARK 922        TOTAL FREE ENERGY PREDICTED BY IDOCK:   -7.73 KCAL/MOL
REMARK 923 INTER-LIGAND FREE ENERGY PREDICTED BY IDOCK:   -6.72 KCAL/MOL
REMARK 924 INTRA-LIGAND FREE ENERGY PREDICTED BY IDOCK:   -1.00 KCAL/MOL
REMARK 927      BINDING AFFINITY PREDICTED BY RF-SCORE:    0.00 PKD
ROOT
HETATM    1  O   UNL     1      -5.298   9.960  68.075  1.00  0.00    -0.039 OA 
HETATM    2  C   UNL     1      -6.351  10.704  67.655  1.00  0.00    -0.056 C  
HETATM    3  O   UNL     1      -6.718  11.702  68.254  1.00  0.00    -0.060 OA 
HETATM    4  C   UNL     1      -6.997  10.158  66.387  1.00  0.00    -0.105 C  
ENDROOT
BRANCH   4   5
HETATM    5  O   UNL     1      -8.143  10.941  66.027  1.00  0.00    -0.159 OA 
BRANCH   5   6
HETATM    6  C   UNL     1      -9.165  10.270  65.434  1.00  0.00    -0.193 C  
HETATM    7  O   UNL     1      -9.047   9.482  64.510  1.00  0.00    -0.230 OA 
BRANCH   6   8
HETATM    8  C   UNL     1     -10.484  10.647  66.084  1.00  0.00    -0.260 C  
BRANCH   8   9
HETATM    9  C   UNL     1     -11.118  11.894  65.511  1.00  0.00    -0.356 A  
HETATM   10  C   UNL     1     -11.438  11.883  64.138  1.00  0.00    -0.449 A  
HETATM   11  C   UNL     1     -12.053  12.976  63.532  1.00  0.00    -0.617 A  
HETATM   12  C   UNL     1     -12.397  14.084  64.293  1.00  0.00    -0.393 A  
HETATM   13  C   UNL     1     -12.064  14.121  65.648  1.00  0.00    -0.425 A  
HETATM   14  C   UNL     1     -11.379  13.063  66.262  1.00  0.00    -0.317 A  
BRANCH  14  15
HETATM   15  N   UNL     1     -10.908  13.225  67.584  1.00  0.00    -0.254 NA 
HETATM   16  H   UNL     1      -9.948  12.909  67.725  1.00  0.00     0.000 HD 
BRANCH  15  17
HETATM   17  C   UNL     1     -11.529  13.748  68.757  1.00  0.00    -0.303 A  
HETATM   18  C   UNL     1     -12.066  12.816  69.680  1.00  0.00    -0.222 A  
HETATM   19  C   UNL     1     -12.529  13.199  70.944  1.00  0.00    -0.407 A  
HETATM   20 CL   UNL     1     -12.175  11.130  69.282  1.00  0.00    -0.370 Cl 
HETATM   21  C   UNL     1     -12.488  14.534  71.320  1.00  0.00    -0.416 A  
HETATM   22  C   UNL     1     -12.059  15.485  70.402  1.00  0.00    -0.426 A  
HETATM   23  C   UNL     1     -11.602  15.110  69.125  1.00  0.00    -0.323 A  
HETATM   24 CL   UNL     1     -11.076  16.430  68.138  1.00  0.00    -0.346 Cl 
ENDBRANCH  15  17
ENDBRANCH  14  15
ENDBRANCH   8   9
ENDBRANCH   6   8
ENDBRANCH   5   6
ENDBRANCH   4   5
TORSDOF 6
ENDMDL
MODEL      157
REMARK 921   NORMALIZED FREE ENERGY PREDICTED BY IDOCK:   -5.00 KCAL/MOL
REMARK 922        TOTAL FREE ENERGY PREDICTED BY IDOCK:   -7.72 KCAL/MOL
REMARK 923 INTER-LIGAND FREE ENERGY PREDICTED BY IDOCK:   -6.75 KCAL/MOL
REMARK 924 INTRA-LIGAND FREE ENERGY PREDICTED BY IDOCK:   -0.97 KCAL/MOL
REMARK 927      BINDING AFFINITY PREDICTED BY RF-SCORE:    0.00 PKD
ROOT
HETATM    1  O   UNL     1     -11.671  16.222  72.069  1.00  0.00    -0.496 OA 
HETATM    2  C   UNL     1     -12.236  15.642  70.982  1.00  0.00    -0.412 C  
HETATM    3  O   UNL     1     -13.222  14.927  71.069  1.00  0.00    -0.371 OA 
HETATM    4  C   UNL     1     -11.513  15.979  69.683  1.00  0.00    -0.326 C  
ENDROOT
BRANCH   4   5
HETATM    5  O   UNL     1     -12.109  15.286  68.579  1.00  0.00    -0.250 OA 
BRANCH   5   6
HETATM    6  C   UNL     1     -11.274  14.515  67.834  1.00  0.00    -0.295 C  
HETATM    7  O   UNL     1     -10.222  14.890  67.342  1.00  0.00    -0.233 OA 
BRANCH   6   8
HETATM    8  C   UNL     1     -11.841  13.114  67.695  1.00  0.00    -0.405 C  
BRANCH   8   9
HETATM    9  C   UNL     1     -11.601  12.484  66.343  1.00  0.00    -0.449 A  
HETATM   10  C   UNL     1     -12.413  12.918  65.274  1.00  0.00    -0.552 A  
HETATM   11  C   UNL     1     -12.241  12.415  63.987  1.00  0.00    -0.579 A  
HETATM   12  C   UNL     1     -11.230  11.499  63.734  1.00  0.00    -0.456 A  
HETATM   13  C   UNL     1     -10.435  11.039  64.785  1.00  0.00    -0.384 A  
HETATM   14  C   UNL     1     -10.639  11.477  66.101  1.00  0.00    -0.266 A  
BRANCH  14  15
HETATM   15  N   UNL     1      -9.932  10.850  67.151  1.00  0.00    -0.184 NA 
HETATM   16  H   UNL     1     -10.145  11.222  68.076  1.00  0.00     0.000 HD 
BRANCH  15  17
HETATM   17  C   UNL     1      -8.973   9.793  67.153  1.00  0.00    -0.135 A  
HETATM   18  C   UNL     1      -7.603  10.157  67.176  1.00  0.00    -0.092 A  
HETATM   19  C   UNL     1      -6.584   9.216  67.367  1.00  0.00    -0.065 A  
HETATM   20 CL   UNL     1      -7.117  11.810  66.969  1.00  0.00    -0.143 Cl 
HETATM   21  C   UNL     1      -6.901   7.875  67.522  1.00  0.00    -0.070 A  
HETATM   22  C   UNL     1      -8.227   7.472  67.405  1.00  0.00    -0.116 A  
HETATM   23  C   UNL     1      -9.257   8.410  67.202  1.00  0.00    -0.143 A  
HETATM   24 CL   UNL     1     -10.842   7.722  67.119  1.00  0.00    -0.329 Cl 
ENDBRANCH  15  17
ENDBRANCH  14  15
ENDBRANCH   8   9
ENDBRANCH   6   8
ENDBRANCH   5   6
ENDBRANCH   4   5
TORSDOF 6
ENDMDL
MODEL      158
REMARK 921   NORMALIZED FREE ENERGY PREDICTED BY IDOCK:   -5.00 KCAL/MOL
REMARK 922        TOTAL FREE ENERGY PREDICTED BY IDOCK:   -7.72 KCAL/MOL
REMARK 923 INTER-LIGAND FREE ENERGY PREDICTED BY IDOCK:   -6.60 KCAL/MOL
REMARK 924 INTRA-LIGAND FREE ENERGY PREDICTED BY IDOCK:   -1.12 KCAL/MOL
REMARK 927      BINDING AFFINITY PREDICTED BY RF-SCORE:    0.00 PKD
ROOT
HETATM    1  O   UNL     1     -12.570  13.935  63.001  1.00  0.00    -0.694 OA 
HETATM    2  C   UNL     1     -12.378  12.769  63.665  1.00  0.00    -0.463 C  
HETATM    3  O   UNL     1     -13.305  12.138  64.148  1.00  0.00    -0.750 OA 
HETATM    4  C   UNL     1     -10.911  12.358  63.732  1.00  0.00    -0.447 C  
ENDROOT
BRANCH   4   5
HETATM    5  O   UNL     1     -10.758  11.158  64.501  1.00  0.00    -0.336 OA 
BRANCH   5   6
HETATM    6  C   UNL     1      -9.745  10.333  64.130  1.00  0.00    -0.291 C  
HETATM    7  O   UNL     1      -9.394  10.123  62.980  1.00  0.00    -0.282 OA 
BRANCH   6   8
HETATM    8  C   UNL     1      -9.110   9.701  65.355  1.00  0.00    -0.265 C  
BRANCH   8   9
HETATM    9  C   UNL     1      -7.755  10.270  65.709  1.00  0.00    -0.143 A  
HETATM   10  C   UNL     1      -6.642   9.778  64.998  1.00  0.00    -0.099 A  
HETATM   11  C   UNL     1      -5.359  10.267  65.236  1.00  0.00    -0.089 A  
HETATM   12  C   UNL     1      -5.170  11.284  66.160  1.00  0.00    -0.115 A  
HETATM   13  C   UNL     1      -6.257  11.764  66.892  1.00  0.00    -0.134 A  
HETATM   14  C   UNL     1      -7.544  11.234  66.721  1.00  0.00    -0.151 A  
BRANCH  14  15
HETATM   15  N   UNL     1      -8.571  11.626  67.608  1.00  0.00    -0.137 NA 
HETATM   16  H   UNL     1      -8.588  11.101  68.483  1.00  0.00     0.000 HD 
BRANCH  15  17
HETATM   17  C   UNL     1      -9.589  12.621  67.505  1.00  0.00    -0.184 A  
HETATM   18  C   UNL     1     -10.931  12.200  67.686  1.00  0.00    -0.243 A  
HETATM   19  C   UNL     1     -11.990  13.109  67.792  1.00  0.00    -0.352 A  
HETATM   20 CL   UNL     1     -11.330  10.514  67.791  1.00  0.00    -0.353 Cl 
HETATM   21  C   UNL     1     -11.745  14.471  67.700  1.00  0.00    -0.410 A  
HETATM   22  C   UNL     1     -10.455  14.912  67.423  1.00  0.00    -0.255 A  
HETATM   23  C   UNL     1      -9.386  14.004  67.304  1.00  0.00    -0.230 A  
HETATM   24 CL   UNL     1      -7.853  14.744  66.995  1.00  0.00    -0.171 Cl 
ENDBRANCH  15  17
ENDBRANCH  14  15
ENDBRANCH   8   9
ENDBRANCH   6   8
ENDBRANCH   5   6
ENDBRANCH   4   5
TORSDOF 6
ENDMDL
MODEL      159
REMARK 921   NORMALIZED FREE ENERGY PREDICTED BY IDOCK:   -5.00 KCAL/MOL
REMARK 922        TOTAL FREE ENERGY PREDICTED BY IDOCK:   -7.71 KCAL/MOL
REMARK 923 INTER-LIGAND FREE ENERGY PREDICTED BY IDOCK:   -6.25 KCAL/MOL
REMARK 924 INTRA-LIGAND FREE ENERGY PREDICTED BY IDOCK:   -1.46 KCAL/MOL
REMARK 927      BINDING AFFINITY PREDICTED BY RF-SCORE:    0.00 PKD
ROOT
HETATM    1  O   UNL     1      -9.641   5.124  68.239  1.00  0.00    -0.123 OA 
HETATM    2  C   UNL     1     -10.494   5.927  68.919  1.00  0.00    -0.259 C  
HETATM    3  O   UNL     1     -11.010   6.907  68.405  1.00  0.00    -0.197 OA 
HETATM    4  C   UNL     1     -10.723   5.471  70.356  1.00  0.00    -0.251 C  
ENDROOT
BRANCH   4   5
HETATM    5  O   UNL     1     -11.577   6.392  71.048  1.00  0.00    -0.324 OA 
BRANCH   5   6
HETATM    6  C   UNL     1     -11.465   6.412  72.401  1.00  0.00    -0.282 C  
HETATM    7  O   UNL     1     -11.653   5.457  73.137  1.00  0.00    -0.270 OA 
BRANCH   6   8
HETATM    8  C   UNL     1     -11.076   7.802  72.872  1.00  0.00    -0.457 C  
BRANCH   8   9
HETATM    9  C   UNL     1      -9.756   8.291  72.323  1.00  0.00    -0.362 A  
HETATM   10  C   UNL     1      -8.610   8.094  73.122  1.00  0.00    -0.299 A  
HETATM   11  C   UNL     1      -7.348   8.486  72.683  1.00  0.00    -0.065 A  
HETATM   12  C   UNL     1      -7.199   9.043  71.421  1.00  0.00    -0.065 A  
HETATM   13  C   UNL     1      -8.325   9.268  70.628  1.00  0.00    -0.245 A  
HETATM   14  C   UNL     1      -9.614   8.950  71.081  1.00  0.00    -0.272 A  
BRANCH  14  15
HETATM   15  N   UNL     1     -10.730   9.361  70.320  1.00  0.00    -0.234 NA 
HETATM   16  H   UNL     1     -11.343   8.598  70.034  1.00  0.00     0.000 HD 
BRANCH  15  17
HETATM   17  C   UNL     1     -11.157  10.649  69.877  1.00  0.00    -0.298 A  
HETATM   18  C   UNL     1     -12.069  11.353  70.705  1.00  0.00    -0.332 A  
HETATM   19  C   UNL     1     -12.411  12.690  70.470  1.00  0.00    -0.350 A  
HETATM   20 CL   UNL     1     -12.811  10.580  72.070  1.00  0.00    -0.492 Cl 
HETATM   21  C   UNL     1     -11.867  13.363  69.386  1.00  0.00    -0.390 A  
HETATM   22  C   UNL     1     -11.048  12.673  68.499  1.00  0.00    -0.300 A  
HETATM   23  C   UNL     1     -10.708  11.325  68.722  1.00  0.00    -0.203 A  
HETATM   24 CL   UNL     1      -9.651  10.651  67.529  1.00  0.00    -0.176 Cl 
ENDBRANCH  15  17
ENDBRANCH  14  15
ENDBRANCH   8   9
ENDBRANCH   6   8
ENDBRANCH   5   6
ENDBRANCH   4   5
TORSDOF 6
ENDMDL
MODEL      160
REMARK 921   NORMALIZED FREE ENERGY PREDICTED BY IDOCK:   -4.99 KCAL/MOL
REMARK 922        TOTAL FREE ENERGY PREDICTED BY IDOCK:   -7.71 KCAL/MOL
REMARK 923 INTER-LIGAND FREE ENERGY PREDICTED BY IDOCK:   -7.05 KCAL/MOL
REMARK 924 INTRA-LIGAND FREE ENERGY PREDICTED BY IDOCK:   -0.66 KCAL/MOL
REMARK 927      BINDING AFFINITY PREDICTED BY RF-SCORE:    0.00 PKD
ROOT
HETATM    1  O   UNL     1     -12.851  14.535  72.567  1.00  0.00    -0.355 OA 
HETATM    2  C   UNL     1     -12.794  14.771  71.233  1.00  0.00    -0.338 C  
HETATM    3  O   UNL     1     -13.170  15.825  70.745  1.00  0.00    -0.542 OA 
HETATM    4  C   UNL     1     -12.222  13.597  70.445  1.00  0.00    -0.363 C  
ENDROOT
BRANCH   4   5
HETATM    5  O   UNL     1     -12.249  13.873  69.038  1.00  0.00    -0.350 OA 
BRANCH   5   6
HETATM    6  C   UNL     1     -11.814  12.876  68.224  1.00  0.00    -0.330 C  
HETATM    7  O   UNL     1     -12.096  11.695  68.345  1.00  0.00    -0.522 OA 
BRANCH   6   8
HETATM    8  C   UNL     1     -10.916  13.442  67.139  1.00  0.00    -0.292 C  
BRANCH   8   9
HETATM    9  C   UNL     1     -11.171  12.866  65.766  1.00  0.00    -0.324 A  
HETATM   10  C   UNL     1     -12.476  12.989  65.246  1.00  0.00    -0.555 A  
HETATM   11  C   UNL     1     -12.795  12.514  63.975  1.00  0.00    -0.323 A  
HETATM   12  C   UNL     1     -11.808  11.944  63.185  1.00  0.00    -0.269 A  
HETATM   13  C   UNL     1     -10.517  11.791  63.694  1.00  0.00    -0.490 A  
HETATM   14  C   UNL     1     -10.193  12.194  64.998  1.00  0.00    -0.283 A  
BRANCH  14  15
HETATM   15  N   UNL     1      -8.929  11.854  65.527  1.00  0.00    -0.418 NA 
HETATM   16  H   UNL     1      -8.179  11.839  64.836  1.00  0.00     0.000 HD 
BRANCH  15  17
HETATM   17  C   UNL     1      -8.508  11.529  66.851  1.00  0.00    -0.165 A  
HETATM   18  C   UNL     1      -8.843  10.241  67.342  1.00  0.00    -0.131 A  
HETATM   19  C   UNL     1      -8.329   9.744  68.545  1.00  0.00    -0.110 A  
HETATM   20 CL   UNL     1      -9.920   9.204  66.460  1.00  0.00    -0.341 Cl 
HETATM   21  C   UNL     1      -7.476  10.527  69.309  1.00  0.00    -0.122 A  
HETATM   22  C   UNL     1      -7.207  11.830  68.905  1.00  0.00    -0.107 A  
HETATM   23  C   UNL     1      -7.729  12.342  67.703  1.00  0.00    -0.144 A  
HETATM   24 CL   UNL     1      -7.253  13.968  67.354  1.00  0.00    -0.175 Cl 
ENDBRANCH  15  17
ENDBRANCH  14  15
ENDBRANCH   8   9
ENDBRANCH   6   8
ENDBRANCH   5   6
ENDBRANCH   4   5
TORSDOF 6
ENDMDL
MODEL      161
REMARK 921   NORMALIZED FREE ENERGY PREDICTED BY IDOCK:   -4.99 KCAL/MOL
REMARK 922        TOTAL FREE ENERGY PREDICTED BY IDOCK:   -7.70 KCAL/MOL
REMARK 923 INTER-LIGAND FREE ENERGY PREDICTED BY IDOCK:   -6.80 KCAL/MOL
REMARK 924 INTRA-LIGAND FREE ENERGY PREDICTED BY IDOCK:   -0.91 KCAL/MOL
REMARK 927      BINDING AFFINITY PREDICTED BY RF-SCORE:    0.00 PKD
ROOT
HETATM    1  O   UNL     1     -11.070   8.362  70.675  1.00  0.00    -0.251 OA 
HETATM    2  C   UNL     1     -10.316   9.146  69.866  1.00  0.00    -0.212 C  
HETATM    3  O   UNL     1      -9.116   9.291  70.040  1.00  0.00    -0.175 OA 
HETATM    4  C   UNL     1     -11.123   9.800  68.751  1.00  0.00    -0.095 C  
ENDROOT
BRANCH   4   5
HETATM    5  O   UNL     1     -10.292  10.669  67.969  1.00  0.00    -0.164 OA 
BRANCH   5   6
HETATM    6  C   UNL     1      -9.990  10.240  66.716  1.00  0.00    -0.209 C  
HETATM    7  O   UNL     1     -10.176   9.110  66.294  1.00  0.00    -0.276 OA 
BRANCH   6   8
HETATM    8  C   UNL     1      -9.377  11.371  65.910  1.00  0.00    -0.247 C  
BRANCH   8   9
HETATM    9  C   UNL     1     -10.369  12.124  65.053  1.00  0.00    -0.320 A  
HETATM   10  C   UNL     1     -11.090  11.381  64.096  1.00  0.00    -0.382 A  
HETATM   11  C   UNL     1     -12.046  11.986  63.283  1.00  0.00    -0.509 A  
HETATM   12  C   UNL     1     -12.329  13.335  63.439  1.00  0.00    -0.402 A  
HETATM   13  C   UNL     1     -11.606  14.091  64.364  1.00  0.00    -0.385 A  
HETATM   14  C   UNL     1     -10.588  13.518  65.139  1.00  0.00    -0.355 A  
BRANCH  14  15
HETATM   15  N   UNL     1      -9.768  14.357  65.925  1.00  0.00    -0.435 NA 
HETATM   16  H   UNL     1      -8.808  14.436  65.588  1.00  0.00     0.000 HD 
BRANCH  15  17
HETATM   17  C   UNL     1     -10.036  15.115  67.104  1.00  0.00    -0.239 A  
HETATM   18  C   UNL     1      -9.247  16.272  67.328  1.00  0.00    -0.208 A  
HETATM   19  C   UNL     1      -9.540  17.190  68.343  1.00  0.00    -0.281 A  
HETATM   20 CL   UNL     1      -7.863  16.611  66.337  1.00  0.00    -0.340 Cl 
HETATM   21  C   UNL     1     -10.622  16.971  69.183  1.00  0.00    -0.303 A  
HETATM   22  C   UNL     1     -11.356  15.797  69.053  1.00  0.00    -0.354 A  
HETATM   23  C   UNL     1     -11.062  14.863  68.041  1.00  0.00    -0.295 A  
HETATM   24 CL   UNL     1     -12.107  13.485  68.017  1.00  0.00    -0.358 Cl 
ENDBRANCH  15  17
ENDBRANCH  14  15
ENDBRANCH   8   9
ENDBRANCH   6   8
ENDBRANCH   5   6
ENDBRANCH   4   5
TORSDOF 6
ENDMDL
MODEL      162
REMARK 921   NORMALIZED FREE ENERGY PREDICTED BY IDOCK:   -4.99 KCAL/MOL
REMARK 922        TOTAL FREE ENERGY PREDICTED BY IDOCK:   -7.70 KCAL/MOL
REMARK 923 INTER-LIGAND FREE ENERGY PREDICTED BY IDOCK:   -7.41 KCAL/MOL
REMARK 924 INTRA-LIGAND FREE ENERGY PREDICTED BY IDOCK:   -0.29 KCAL/MOL
REMARK 927      BINDING AFFINITY PREDICTED BY RF-SCORE:    0.00 PKD
ROOT
HETATM    1  O   UNL     1      -9.880   7.738  73.172  1.00  0.00    -0.252 OA 
HETATM    2  C   UNL     1      -9.844   8.676  72.194  1.00  0.00    -0.317 C  
HETATM    3  O   UNL     1      -8.796   9.036  71.680  1.00  0.00    -0.329 OA 
HETATM    4  C   UNL     1     -11.225   9.208  71.827  1.00  0.00    -0.381 C  
ENDROOT
BRANCH   4   5
HETATM    5  O   UNL     1     -11.122  10.242  70.840  1.00  0.00    -0.315 OA 
BRANCH   5   6
HETATM    6  C   UNL     1     -12.292  10.674  70.300  1.00  0.00    -0.325 C  
HETATM    7  O   UNL     1     -13.400  10.260  70.600  1.00  0.00    -0.311 OA 
BRANCH   6   8
HETATM    8  C   UNL     1     -12.023  11.746  69.259  1.00  0.00    -0.354 C  
BRANCH   8   9
HETATM    9  C   UNL     1     -11.844  13.131  69.835  1.00  0.00    -0.378 A  
HETATM   10  C   UNL     1     -12.415  13.385  71.099  1.00  0.00    -0.414 A  
HETATM   11  C   UNL     1     -12.274  14.624  71.720  1.00  0.00    -0.409 A  
HETATM   12  C   UNL     1     -11.526  15.620  71.109  1.00  0.00    -0.463 A  
HETATM   13  C   UNL     1     -10.975  15.394  69.847  1.00  0.00    -0.305 A  
HETATM   14  C   UNL     1     -11.168  14.181  69.171  1.00  0.00    -0.272 A  
BRANCH  14  15
HETATM   15  N   UNL     1     -10.746  14.068  67.828  1.00  0.00    -0.241 NA 
HETATM   16  H   UNL     1     -10.576  14.962  67.369  1.00  0.00     0.000 HD 
BRANCH  15  17
HETATM   17  C   UNL     1     -10.516  12.931  66.996  1.00  0.00    -0.238 A  
HETATM   18  C   UNL     1     -11.335  12.789  65.847  1.00  0.00    -0.324 A  
HETATM   19  C   UNL     1     -11.081  11.825  64.865  1.00  0.00    -0.345 A  
HETATM   20 CL   UNL     1     -12.709  13.820  65.600  1.00  0.00    -0.548 Cl 
HETATM   21  C   UNL     1     -10.009  10.956  65.008  1.00  0.00    -0.356 A  
HETATM   22  C   UNL     1      -9.246  11.005  66.170  1.00  0.00    -0.209 A  
HETATM   23  C   UNL     1      -9.501  11.964  67.168  1.00  0.00    -0.178 A  
HETATM   24 CL   UNL     1      -8.425  11.890  68.520  1.00  0.00    -0.145 Cl 
ENDBRANCH  15  17
ENDBRANCH  14  15
ENDBRANCH   8   9
ENDBRANCH   6   8
ENDBRANCH   5   6
ENDBRANCH   4   5
TORSDOF 6
ENDMDL
MODEL      163
REMARK 921   NORMALIZED FREE ENERGY PREDICTED BY IDOCK:   -4.98 KCAL/MOL
REMARK 922        TOTAL FREE ENERGY PREDICTED BY IDOCK:   -7.69 KCAL/MOL
REMARK 923 INTER-LIGAND FREE ENERGY PREDICTED BY IDOCK:   -6.85 KCAL/MOL
REMARK 924 INTRA-LIGAND FREE ENERGY PREDICTED BY IDOCK:   -0.84 KCAL/MOL
REMARK 927      BINDING AFFINITY PREDICTED BY RF-SCORE:    0.00 PKD
ROOT
HETATM    1  O   UNL     1     -11.080  18.719  67.537  1.00  0.00    -0.326 OA 
HETATM    2  C   UNL     1     -10.265  17.720  67.955  1.00  0.00    -0.377 C  
HETATM    3  O   UNL     1      -9.051  17.845  67.984  1.00  0.00    -0.255 OA 
HETATM    4  C   UNL     1     -11.025  16.465  68.369  1.00  0.00    -0.353 C  
ENDROOT
BRANCH   4   5
HETATM    5  O   UNL     1     -10.113  15.421  68.737  1.00  0.00    -0.200 OA 
BRANCH   5   6
HETATM    6  C   UNL     1     -10.551  14.149  68.549  1.00  0.00    -0.252 C  
HETATM    7  O   UNL     1     -11.717  13.792  68.605  1.00  0.00    -0.311 OA 
BRANCH   6   8
HETATM    8  C   UNL     1      -9.378  13.229  68.265  1.00  0.00    -0.205 C  
BRANCH   8   9
HETATM    9  C   UNL     1      -9.766  11.920  67.616  1.00  0.00    -0.186 A  
HETATM   10  C   UNL     1      -9.733  11.862  66.208  1.00  0.00    -0.247 A  
HETATM   11  C   UNL     1     -10.045  10.688  65.526  1.00  0.00    -0.343 A  
HETATM   12  C   UNL     1     -10.356   9.539  66.239  1.00  0.00    -0.226 A  
HETATM   13  C   UNL     1     -10.419   9.586  67.632  1.00  0.00    -0.321 A  
HETATM   14  C   UNL     1     -10.182  10.776  68.335  1.00  0.00    -0.175 A  
BRANCH  14  15
HETATM   15  N   UNL     1     -10.433  10.815  69.724  1.00  0.00    -0.436 NA 
HETATM   16  H   UNL     1     -10.501  11.757  70.109  1.00  0.00     0.000 HD 
BRANCH  15  17
HETATM   17  C   UNL     1     -10.608   9.777  70.688  1.00  0.00    -0.313 A  
HETATM   18  C   UNL     1      -9.438   9.153  71.193  1.00  0.00    -0.261 A  
HETATM   19  C   UNL     1      -9.474   8.260  72.270  1.00  0.00    -0.341 A  
HETATM   20 CL   UNL     1      -7.884   9.475  70.490  1.00  0.00    -0.182 Cl 
HETATM   21  C   UNL     1     -10.685   7.945  72.867  1.00  0.00    -0.440 A  
HETATM   22  C   UNL     1     -11.861   8.463  72.334  1.00  0.00    -0.452 A  
HETATM   23  C   UNL     1     -11.835   9.353  71.244  1.00  0.00    -0.360 A  
HETATM   24 CL   UNL     1     -13.393   9.916  70.746  1.00  0.00    -0.288 Cl 
ENDBRANCH  15  17
ENDBRANCH  14  15
ENDBRANCH   8   9
ENDBRANCH   6   8
ENDBRANCH   5   6
ENDBRANCH   4   5
TORSDOF 6
ENDMDL
MODEL      164
REMARK 921   NORMALIZED FREE ENERGY PREDICTED BY IDOCK:   -4.98 KCAL/MOL
REMARK 922        TOTAL FREE ENERGY PREDICTED BY IDOCK:   -7.69 KCAL/MOL
REMARK 923 INTER-LIGAND FREE ENERGY PREDICTED BY IDOCK:   -7.03 KCAL/MOL
REMARK 924 INTRA-LIGAND FREE ENERGY PREDICTED BY IDOCK:   -0.66 KCAL/MOL
REMARK 927      BINDING AFFINITY PREDICTED BY RF-SCORE:    0.00 PKD
ROOT
HETATM    1  O   UNL     1     -14.131  15.427  72.428  1.00  0.00    -0.528 OA 
HETATM    2  C   UNL     1     -13.579  14.312  71.891  1.00  0.00    -0.413 C  
HETATM    3  O   UNL     1     -13.738  13.207  72.387  1.00  0.00    -0.581 OA 
HETATM    4  C   UNL     1     -12.762  14.597  70.636  1.00  0.00    -0.357 C  
ENDROOT
BRANCH   4   5
HETATM    5  O   UNL     1     -12.147  13.396  70.151  1.00  0.00    -0.333 OA 
BRANCH   5   6
HETATM    6  C   UNL     1     -11.901  13.346  68.816  1.00  0.00    -0.351 C  
HETATM    7  O   UNL     1     -11.625  14.306  68.114  1.00  0.00    -0.295 OA 
BRANCH   6   8
HETATM    8  C   UNL     1     -12.026  11.918  68.315  1.00  0.00    -0.235 C  
BRANCH   8   9
HETATM    9  C   UNL     1     -11.047  11.562  67.220  1.00  0.00    -0.351 A  
HETATM   10  C   UNL     1     -11.293  12.089  65.936  1.00  0.00    -0.391 A  
HETATM   11  C   UNL     1     -10.427  11.838  64.874  1.00  0.00    -0.334 A  
HETATM   12  C   UNL     1      -9.278  11.090  65.085  1.00  0.00    -0.227 A  
HETATM   13  C   UNL     1      -9.032  10.539  66.343  1.00  0.00    -0.174 A  
HETATM   14  C   UNL     1      -9.929  10.717  67.406  1.00  0.00    -0.181 A  
BRANCH  14  15
HETATM   15  N   UNL     1      -9.728   9.993  68.603  1.00  0.00    -0.154 NA 
HETATM   16  H   UNL     1      -9.176  10.490  69.302  1.00  0.00     0.000 HD 
BRANCH  15  17
HETATM   17  C   UNL     1     -10.157   8.695  69.012  1.00  0.00    -0.199 A  
HETATM   18  C   UNL     1     -11.022   8.619  70.133  1.00  0.00    -0.226 A  
HETATM   19  C   UNL     1     -11.652   7.427  70.509  1.00  0.00    -0.256 A  
HETATM   20 CL   UNL     1     -11.350  10.021  71.103  1.00  0.00    -0.431 Cl 
HETATM   21  C   UNL     1     -11.421   6.265  69.789  1.00  0.00    -0.449 A  
HETATM   22  C   UNL     1     -10.502   6.284  68.745  1.00  0.00    -0.279 A  
HETATM   23  C   UNL     1      -9.856   7.476  68.367  1.00  0.00    -0.164 A  
HETATM   24 CL   UNL     1      -8.776   7.307  67.026  1.00  0.00    -0.121 Cl 
ENDBRANCH  15  17
ENDBRANCH  14  15
ENDBRANCH   8   9
ENDBRANCH   6   8
ENDBRANCH   5   6
ENDBRANCH   4   5
TORSDOF 6
ENDMDL
MODEL      165
REMARK 921   NORMALIZED FREE ENERGY PREDICTED BY IDOCK:   -4.97 KCAL/MOL
REMARK 922        TOTAL FREE ENERGY PREDICTED BY IDOCK:   -7.68 KCAL/MOL
REMARK 923 INTER-LIGAND FREE ENERGY PREDICTED BY IDOCK:   -6.46 KCAL/MOL
REMARK 924 INTRA-LIGAND FREE ENERGY PREDICTED BY IDOCK:   -1.21 KCAL/MOL
REMARK 927      BINDING AFFINITY PREDICTED BY RF-SCORE:    0.00 PKD
ROOT
HETATM    1  O   UNL     1     -10.520  11.126  63.199  1.00  0.00    -0.320 OA 
HETATM    2  C   UNL     1     -10.662  11.363  64.526  1.00  0.00    -0.327 C  
HETATM    3  O   UNL     1      -9.805  11.047  65.336  1.00  0.00    -0.223 OA 
HETATM    4  C   UNL     1     -11.980  12.047  64.871  1.00  0.00    -0.216 C  
ENDROOT
BRANCH   4   5
HETATM    5  O   UNL     1     -12.108  12.211  66.289  1.00  0.00    -0.626 OA 
BRANCH   5   6
HETATM    6  C   UNL     1     -12.037  13.486  66.754  1.00  0.00    -0.375 C  
HETATM    7  O   UNL     1     -12.631  14.441  66.282  1.00  0.00    -0.355 OA 
BRANCH   6   8
HETATM    8  C   UNL     1     -11.102  13.555  67.948  1.00  0.00    -0.288 C  
BRANCH   8   9
HETATM    9  C   UNL     1     -11.798  13.426  69.283  1.00  0.00    -0.385 A  
HETATM   10  C   UNL     1     -12.102  14.618  69.971  1.00  0.00    -0.383 A  
HETATM   11  C   UNL     1     -12.770  14.596  71.194  1.00  0.00    -0.409 A  
HETATM   12  C   UNL     1     -13.183  13.386  71.732  1.00  0.00    -0.495 A  
HETATM   13  C   UNL     1     -12.868  12.195  71.077  1.00  0.00    -0.258 A  
HETATM   14  C   UNL     1     -12.131  12.190  69.884  1.00  0.00    -0.253 A  
BRANCH  14  15
HETATM   15  N   UNL     1     -11.684  10.958  69.358  1.00  0.00    -0.301 NA 
HETATM   16  H   UNL     1     -12.202  10.644  68.537  1.00  0.00     0.000 HD 
BRANCH  15  17
HETATM   17  C   UNL     1     -10.642  10.072  69.765  1.00  0.00    -0.267 A  
HETATM   18  C   UNL     1     -11.024   8.882  70.434  1.00  0.00    -0.244 A  
HETATM   19  C   UNL     1     -10.112   7.857  70.713  1.00  0.00    -0.201 A  
HETATM   20 CL   UNL     1     -12.664   8.634  70.944  1.00  0.00    -0.014 Cl 
HETATM   21  C   UNL     1      -8.781   7.997  70.348  1.00  0.00    -0.136 A  
HETATM   22  C   UNL     1      -8.355   9.192  69.779  1.00  0.00    -0.136 A  
HETATM   23  C   UNL     1      -9.263  10.232  69.506  1.00  0.00    -0.170 A  
HETATM   24 CL   UNL     1      -8.551  11.624  68.765  1.00  0.00    -0.079 Cl 
ENDBRANCH  15  17
ENDBRANCH  14  15
ENDBRANCH   8   9
ENDBRANCH   6   8
ENDBRANCH   5   6
ENDBRANCH   4   5
TORSDOF 6
ENDMDL
MODEL      166
REMARK 921   NORMALIZED FREE ENERGY PREDICTED BY IDOCK:   -4.96 KCAL/MOL
REMARK 922        TOTAL FREE ENERGY PREDICTED BY IDOCK:   -7.66 KCAL/MOL
REMARK 923 INTER-LIGAND FREE ENERGY PREDICTED BY IDOCK:   -6.70 KCAL/MOL
REMARK 924 INTRA-LIGAND FREE ENERGY PREDICTED BY IDOCK:   -0.97 KCAL/MOL
REMARK 927      BINDING AFFINITY PREDICTED BY RF-SCORE:    0.00 PKD
ROOT
HETATM    1  O   UNL     1      -9.374   9.858  63.667  1.00  0.00    -0.272 OA 
HETATM    2  C   UNL     1      -8.877  10.032  64.916  1.00  0.00    -0.192 C  
HETATM    3  O   UNL     1      -7.702   9.833  65.179  1.00  0.00    -0.113 OA 
HETATM    4  C   UNL     1      -9.931  10.491  65.918  1.00  0.00    -0.254 C  
ENDROOT
BRANCH   4   5
HETATM    5  O   UNL     1      -9.367  10.593  67.232  1.00  0.00    -0.150 OA 
BRANCH   5   6
HETATM    6  C   UNL     1      -9.820  11.619  67.999  1.00  0.00    -0.190 C  
HETATM    7  O   UNL     1      -9.114  12.438  68.566  1.00  0.00    -0.163 OA 
BRANCH   6   8
HETATM    8  C   UNL     1     -11.336  11.598  68.058  1.00  0.00    -0.366 C  
BRANCH   8   9
HETATM    9  C   UNL     1     -11.900  11.716  69.456  1.00  0.00    -0.414 A  
HETATM   10  C   UNL     1     -12.118  13.016  69.957  1.00  0.00    -0.367 A  
HETATM   11  C   UNL     1     -12.662  13.219  71.223  1.00  0.00    -0.411 A  
HETATM   12  C   UNL     1     -13.037  12.129  71.995  1.00  0.00    -0.462 A  
HETATM   13  C   UNL     1     -12.805  10.836  71.525  1.00  0.00    -0.567 A  
HETATM   14  C   UNL     1     -12.190  10.609  70.286  1.00  0.00    -0.334 A  
BRANCH  14  15
HETATM   15  N   UNL     1     -11.814   9.293  69.936  1.00  0.00    -0.401 NA 
HETATM   16  H   UNL     1     -11.770   9.125  68.931  1.00  0.00     0.000 HD 
BRANCH  15  17
HETATM   17  C   UNL     1     -11.486   8.155  70.732  1.00  0.00    -0.261 A  
HETATM   18  C   UNL     1     -10.110   7.856  70.904  1.00  0.00    -0.190 A  
HETATM   19  C   UNL     1      -9.665   6.884  71.808  1.00  0.00    -0.163 A  
HETATM   20 CL   UNL     1      -8.896   8.695  69.991  1.00  0.00    -0.138 Cl 
HETATM   21  C   UNL     1     -10.583   6.164  72.557  1.00  0.00    -0.244 A  
HETATM   22  C   UNL     1     -11.942   6.364  72.341  1.00  0.00    -0.213 A  
HETATM   23  C   UNL     1     -12.399   7.331  71.426  1.00  0.00    -0.368 A  
HETATM   24 CL   UNL     1     -14.121   7.457  71.322  1.00  0.00    -0.466 Cl 
ENDBRANCH  15  17
ENDBRANCH  14  15
ENDBRANCH   8   9
ENDBRANCH   6   8
ENDBRANCH   5   6
ENDBRANCH   4   5
TORSDOF 6
ENDMDL
MODEL      167
REMARK 921   NORMALIZED FREE ENERGY PREDICTED BY IDOCK:   -4.96 KCAL/MOL
REMARK 922        TOTAL FREE ENERGY PREDICTED BY IDOCK:   -7.66 KCAL/MOL
REMARK 923 INTER-LIGAND FREE ENERGY PREDICTED BY IDOCK:   -6.67 KCAL/MOL
REMARK 924 INTRA-LIGAND FREE ENERGY PREDICTED BY IDOCK:   -0.99 KCAL/MOL
REMARK 927      BINDING AFFINITY PREDICTED BY RF-SCORE:    0.00 PKD
ROOT
HETATM    1  O   UNL     1     -12.550  13.739  63.069  1.00  0.00    -0.721 OA 
HETATM    2  C   UNL     1     -12.265  12.702  63.894  1.00  0.00    -0.481 C  
HETATM    3  O   UNL     1     -12.962  12.431  64.859  1.00  0.00    -0.762 OA 
HETATM    4  C   UNL     1     -11.009  11.942  63.482  1.00  0.00    -0.432 C  
ENDROOT
BRANCH   4   5
HETATM    5  O   UNL     1     -10.717  10.902  64.424  1.00  0.00    -0.340 OA 
BRANCH   5   6
HETATM    6  C   UNL     1      -9.658  10.104  64.127  1.00  0.00    -0.272 C  
HETATM    7  O   UNL     1      -9.046  10.112  63.072  1.00  0.00    -0.230 OA 
BRANCH   6   8
HETATM    8  C   UNL     1      -9.347   9.191  65.299  1.00  0.00    -0.224 C  
BRANCH   8   9
HETATM    9  C   UNL     1      -8.961   9.922  66.564  1.00  0.00    -0.166 A  
HETATM   10  C   UNL     1      -7.855  10.794  66.494  1.00  0.00    -0.145 A  
HETATM   11  C   UNL     1      -7.447  11.532  67.603  1.00  0.00    -0.110 A  
HETATM   12  C   UNL     1      -8.159  11.444  68.790  1.00  0.00    -0.112 A  
HETATM   13  C   UNL     1      -9.240  10.566  68.884  1.00  0.00    -0.188 A  
HETATM   14  C   UNL     1      -9.622   9.758  67.803  1.00  0.00    -0.135 A  
BRANCH  14  15
HETATM   15  N   UNL     1     -10.602   8.761  68.003  1.00  0.00    -0.396 NA 
HETATM   16  H   UNL     1     -11.377   8.801  67.341  1.00  0.00     0.000 HD 
BRANCH  15  17
HETATM   17  C   UNL     1     -10.706   7.709  68.961  1.00  0.00    -0.119 A  
HETATM   18  C   UNL     1     -10.211   6.435  68.585  1.00  0.00    -0.174 A  
HETATM   19  C   UNL     1     -10.089   5.382  69.500  1.00  0.00    -0.310 A  
HETATM   20 CL   UNL     1      -9.722   6.116  66.951  1.00  0.00    -0.165 Cl 
HETATM   21  C   UNL     1     -10.479   5.563  70.819  1.00  0.00    -0.330 A  
HETATM   22  C   UNL     1     -11.060   6.768  71.196  1.00  0.00    -0.313 A  
HETATM   23  C   UNL     1     -11.196   7.829  70.280  1.00  0.00    -0.206 A  
HETATM   24 CL   UNL     1     -11.909   9.258  70.945  1.00  0.00    -0.342 Cl 
ENDBRANCH  15  17
ENDBRANCH  14  15
ENDBRANCH   8   9
ENDBRANCH   6   8
ENDBRANCH   5   6
ENDBRANCH   4   5
TORSDOF 6
ENDMDL
MODEL      168
REMARK 921   NORMALIZED FREE ENERGY PREDICTED BY IDOCK:   -4.95 KCAL/MOL
REMARK 922        TOTAL FREE ENERGY PREDICTED BY IDOCK:   -7.65 KCAL/MOL
REMARK 923 INTER-LIGAND FREE ENERGY PREDICTED BY IDOCK:   -6.38 KCAL/MOL
REMARK 924 INTRA-LIGAND FREE ENERGY PREDICTED BY IDOCK:   -1.27 KCAL/MOL
REMARK 927      BINDING AFFINITY PREDICTED BY RF-SCORE:    0.00 PKD
ROOT
HETATM    1  O   UNL     1     -10.536  17.987  68.415  1.00  0.00    -0.340 OA 
HETATM    2  C   UNL     1     -10.436  16.716  68.877  1.00  0.00    -0.322 C  
HETATM    3  O   UNL     1      -9.506  16.354  69.579  1.00  0.00    -0.168 OA 
HETATM    4  C   UNL     1     -11.590  15.827  68.427  1.00  0.00    -0.338 C  
ENDROOT
BRANCH   4   5
HETATM    5  O   UNL     1     -11.399  14.482  68.886  1.00  0.00    -0.246 OA 
BRANCH   5   6
HETATM    6  C   UNL     1     -11.942  13.503  68.116  1.00  0.00    -0.341 C  
HETATM    7  O   UNL     1     -12.025  12.327  68.428  1.00  0.00    -0.326 OA 
BRANCH   6   8
HETATM    8  C   UNL     1     -12.429  14.084  66.801  1.00  0.00    -0.238 C  
BRANCH   8   9
HETATM    9  C   UNL     1     -11.847  13.413  65.578  1.00  0.00    -0.394 A  
HETATM   10  C   UNL     1     -12.705  12.584  64.826  1.00  0.00    -0.415 A  
HETATM   11  C   UNL     1     -12.262  11.950  63.667  1.00  0.00    -0.586 A  
HETATM   12  C   UNL     1     -10.968  12.163  63.216  1.00  0.00    -0.398 A  
HETATM   13  C   UNL     1     -10.098  12.960  63.962  1.00  0.00    -0.142 A  
HETATM   14  C   UNL     1     -10.500  13.547  65.171  1.00  0.00    -0.364 A  
BRANCH  14  15
HETATM   15  N   UNL     1      -9.535  14.192  65.976  1.00  0.00    -0.502 NA 
HETATM   16  H   UNL     1      -9.548  15.209  65.906  1.00  0.00     0.000 HD 
BRANCH  15  17
HETATM   17  C   UNL     1      -8.545  13.680  66.868  1.00  0.00    -0.104 A  
HETATM   18  C   UNL     1      -7.578  14.593  67.360  1.00  0.00    -0.192 A  
HETATM   19  C   UNL     1      -6.679  14.251  68.377  1.00  0.00    -0.104 A  
HETATM   20 CL   UNL     1      -7.464  16.201  66.718  1.00  0.00    -0.264 Cl 
HETATM   21  C   UNL     1      -6.704  12.976  68.923  1.00  0.00    -0.096 A  
HETATM   22  C   UNL     1      -7.574  12.028  68.395  1.00  0.00    -0.128 A  
HETATM   23  C   UNL     1      -8.473  12.360  67.364  1.00  0.00    -0.179 A  
HETATM   24 CL   UNL     1      -9.497  11.058  66.865  1.00  0.00    -0.192 Cl 
ENDBRANCH  15  17
ENDBRANCH  14  15
ENDBRANCH   8   9
ENDBRANCH   6   8
ENDBRANCH   5   6
ENDBRANCH   4   5
TORSDOF 6
ENDMDL
MODEL      169
REMARK 921   NORMALIZED FREE ENERGY PREDICTED BY IDOCK:   -4.94 KCAL/MOL
REMARK 922        TOTAL FREE ENERGY PREDICTED BY IDOCK:   -7.64 KCAL/MOL
REMARK 923 INTER-LIGAND FREE ENERGY PREDICTED BY IDOCK:   -6.71 KCAL/MOL
REMARK 924 INTRA-LIGAND FREE ENERGY PREDICTED BY IDOCK:   -0.93 KCAL/MOL
REMARK 927      BINDING AFFINITY PREDICTED BY RF-SCORE:    0.00 PKD
ROOT
HETATM    1  O   UNL     1      -7.172  15.928  67.246  1.00  0.00    -0.178 OA 
HETATM    2  C   UNL     1      -8.042  15.084  67.854  1.00  0.00    -0.136 C  
HETATM    3  O   UNL     1      -7.960  13.872  67.733  1.00  0.00    -0.141 OA 
HETATM    4  C   UNL     1      -9.099  15.811  68.678  1.00  0.00    -0.204 C  
ENDROOT
BRANCH   4   5
HETATM    5  O   UNL     1     -10.030  14.877  69.240  1.00  0.00    -0.217 OA 
BRANCH   5   6
HETATM    6  C   UNL     1     -11.341  15.098  68.962  1.00  0.00    -0.294 C  
HETATM    7  O   UNL     1     -11.881  16.192  68.939  1.00  0.00    -0.338 OA 
BRANCH   6   8
HETATM    8  C   UNL     1     -12.046  13.782  68.690  1.00  0.00    -0.333 C  
BRANCH   8   9
HETATM    9  C   UNL     1     -11.794  13.223  67.308  1.00  0.00    -0.421 A  
HETATM   10  C   UNL     1     -11.828  14.129  66.228  1.00  0.00    -0.427 A  
HETATM   11  C   UNL     1     -11.577  13.707  64.925  1.00  0.00    -0.360 A  
HETATM   12  C   UNL     1     -11.247  12.383  64.680  1.00  0.00    -0.356 A  
HETATM   13  C   UNL     1     -11.233  11.468  65.734  1.00  0.00    -0.228 A  
HETATM   14  C   UNL     1     -11.556  11.855  67.042  1.00  0.00    -0.291 A  
BRANCH  14  15
HETATM   15  N   UNL     1     -11.703  10.862  68.036  1.00  0.00    -0.685 NA 
HETATM   16  H   UNL     1     -12.649  10.489  68.114  1.00  0.00     0.000 HD 
BRANCH  15  17
HETATM   17  C   UNL     1     -10.771  10.286  68.950  1.00  0.00    -0.227 A  
HETATM   18  C   UNL     1     -11.189  10.137  70.297  1.00  0.00    -0.318 A  
HETATM   19  C   UNL     1     -10.438   9.421  71.237  1.00  0.00    -0.385 A  
HETATM   20 CL   UNL     1     -12.675  10.843  70.853  1.00  0.00    -0.457 Cl 
HETATM   21  C   UNL     1      -9.232   8.846  70.865  1.00  0.00    -0.286 A  
HETATM   22  C   UNL     1      -8.747   9.057  69.579  1.00  0.00    -0.144 A  
HETATM   23  C   UNL     1      -9.490   9.786  68.631  1.00  0.00    -0.151 A  
HETATM   24 CL   UNL     1      -8.739   9.910  67.078  1.00  0.00    -0.133 Cl 
ENDBRANCH  15  17
ENDBRANCH  14  15
ENDBRANCH   8   9
ENDBRANCH   6   8
ENDBRANCH   5   6
ENDBRANCH   4   5
TORSDOF 6
ENDMDL
MODEL      170
REMARK 921   NORMALIZED FREE ENERGY PREDICTED BY IDOCK:   -4.93 KCAL/MOL
REMARK 922        TOTAL FREE ENERGY PREDICTED BY IDOCK:   -7.62 KCAL/MOL
REMARK 923 INTER-LIGAND FREE ENERGY PREDICTED BY IDOCK:   -6.57 KCAL/MOL
REMARK 924 INTRA-LIGAND FREE ENERGY PREDICTED BY IDOCK:   -1.05 KCAL/MOL
REMARK 927      BINDING AFFINITY PREDICTED BY RF-SCORE:    0.00 PKD
ROOT
HETATM    1  O   UNL     1     -14.338  13.572  72.707  1.00  0.00    -0.640 OA 
HETATM    2  C   UNL     1     -13.344  14.429  72.371  1.00  0.00    -0.455 C  
HETATM    3  O   UNL     1     -13.199  15.505  72.931  1.00  0.00    -0.436 OA 
HETATM    4  C   UNL     1     -12.459  13.903  71.247  1.00  0.00    -0.359 C  
ENDROOT
BRANCH   4   5
HETATM    5  O   UNL     1     -11.469  14.876  70.886  1.00  0.00    -0.286 OA 
BRANCH   5   6
HETATM    6  C   UNL     1     -11.646  15.496  69.691  1.00  0.00    -0.348 C  
HETATM    7  O   UNL     1     -12.528  16.300  69.438  1.00  0.00     0.064 OA 
BRANCH   6   8
HETATM    8  C   UNL     1     -10.587  15.038  68.704  1.00  0.00    -0.237 C  
BRANCH   8   9
HETATM    9  C   UNL     1     -11.101  14.090  67.644  1.00  0.00    -0.298 A  
HETATM   10  C   UNL     1     -11.964  14.623  66.664  1.00  0.00    -0.293 A  
HETATM   11  C   UNL     1     -12.461  13.830  65.633  1.00  0.00    -0.541 A  
HETATM   12  C   UNL     1     -12.075  12.501  65.537  1.00  0.00    -0.481 A  
HETATM   13  C   UNL     1     -11.242  11.952  66.513  1.00  0.00    -0.383 A  
HETATM   14  C   UNL     1     -10.790  12.712  67.601  1.00  0.00    -0.221 A  
BRANCH  14  15
HETATM   15  N   UNL     1     -10.102  12.066  68.652  1.00  0.00    -0.328 NA 
HETATM   16  H   UNL     1     -10.174  12.543  69.551  1.00  0.00     0.000 HD 
BRANCH  15  17
HETATM   17  C   UNL     1      -9.325  10.870  68.686  1.00  0.00    -0.187 A  
HETATM   18  C   UNL     1      -9.887   9.747  69.346  1.00  0.00    -0.205 A  
HETATM   19  C   UNL     1      -9.305   8.476  69.283  1.00  0.00    -0.154 A  
HETATM   20 CL   UNL     1     -11.345   9.899  70.275  1.00  0.00    -0.330 Cl 
HETATM   21  C   UNL     1      -8.129   8.288  68.573  1.00  0.00    -0.123 A  
HETATM   22  C   UNL     1      -7.500   9.387  67.996  1.00  0.00    -0.080 A  
HETATM   23  C   UNL     1      -8.073  10.671  68.064  1.00  0.00    -0.112 A  
HETATM   24 CL   UNL     1      -7.163  11.901  67.258  1.00  0.00    -0.138 Cl 
ENDBRANCH  15  17
ENDBRANCH  14  15
ENDBRANCH   8   9
ENDBRANCH   6   8
ENDBRANCH   5   6
ENDBRANCH   4   5
TORSDOF 6
ENDMDL
MODEL      171
REMARK 921   NORMALIZED FREE ENERGY PREDICTED BY IDOCK:   -4.92 KCAL/MOL
REMARK 922        TOTAL FREE ENERGY PREDICTED BY IDOCK:   -7.60 KCAL/MOL
REMARK 923 INTER-LIGAND FREE ENERGY PREDICTED BY IDOCK:   -6.69 KCAL/MOL
REMARK 924 INTRA-LIGAND FREE ENERGY PREDICTED BY IDOCK:   -0.91 KCAL/MOL
REMARK 927      BINDING AFFINITY PREDICTED BY RF-SCORE:    0.00 PKD
ROOT
HETATM    1  O   UNL     1     -13.375  13.017  72.515  1.00  0.00    -0.519 OA 
HETATM    2  C   UNL     1     -12.910  12.847  71.253  1.00  0.00    -0.270 C  
HETATM    3  O   UNL     1     -12.771  13.784  70.483  1.00  0.00    -0.298 OA 
HETATM    4  C   UNL     1     -12.596  11.392  70.926  1.00  0.00    -0.356 C  
ENDROOT
BRANCH   4   5
HETATM    5  O   UNL     1     -12.175  11.261  69.561  1.00  0.00    -0.308 OA 
BRANCH   5   6
HETATM    6  C   UNL     1     -10.834  11.290  69.343  1.00  0.00    -0.189 C  
HETATM    7  O   UNL     1     -10.233  12.188  68.776  1.00  0.00    -0.201 OA 
BRANCH   6   8
HETATM    8  C   UNL     1     -10.186  10.036  69.902  1.00  0.00    -0.304 C  
BRANCH   8   9
HETATM    9  C   UNL     1     -10.431   8.796  69.075  1.00  0.00    -0.220 A  
HETATM   10  C   UNL     1     -10.843   7.633  69.758  1.00  0.00    -0.222 A  
HETATM   11  C   UNL     1     -11.120   6.453  69.073  1.00  0.00    -0.424 A  
HETATM   12  C   UNL     1     -11.030   6.422  67.689  1.00  0.00    -0.441 A  
HETATM   13  C   UNL     1     -10.599   7.556  66.999  1.00  0.00    -0.409 A  
HETATM   14  C   UNL     1     -10.243   8.731  67.675  1.00  0.00    -0.239 A  
BRANCH  14  15
HETATM   15  N   UNL     1      -9.644   9.786  66.951  1.00  0.00    -0.172 NA 
HETATM   16  H   UNL     1      -9.204  10.495  67.536  1.00  0.00     0.000 HD 
BRANCH  15  17
HETATM   17  C   UNL     1      -9.543  10.039  65.550  1.00  0.00    -0.266 A  
HETATM   18  C   UNL     1     -10.377  11.051  65.010  1.00  0.00    -0.295 A  
HETATM   19  C   UNL     1     -10.233  11.514  63.696  1.00  0.00    -0.450 A  
HETATM   20 CL   UNL     1     -11.630  11.777  65.966  1.00  0.00    -0.301 Cl 
HETATM   21  C   UNL     1      -9.263  10.965  62.871  1.00  0.00    -0.348 A  
HETATM   22  C   UNL     1      -8.495   9.903  63.339  1.00  0.00    -0.182 A  
HETATM   23  C   UNL     1      -8.640   9.425  64.654  1.00  0.00    -0.187 A  
HETATM   24 CL   UNL     1      -7.573   8.125  65.062  1.00  0.00    -0.090 Cl 
ENDBRANCH  15  17
ENDBRANCH  14  15
ENDBRANCH   8   9
ENDBRANCH   6   8
ENDBRANCH   5   6
ENDBRANCH   4   5
TORSDOF 6
ENDMDL
MODEL      172
REMARK 921   NORMALIZED FREE ENERGY PREDICTED BY IDOCK:   -4.91 KCAL/MOL
REMARK 922        TOTAL FREE ENERGY PREDICTED BY IDOCK:   -7.60 KCAL/MOL
REMARK 923 INTER-LIGAND FREE ENERGY PREDICTED BY IDOCK:   -6.63 KCAL/MOL
REMARK 924 INTRA-LIGAND FREE ENERGY PREDICTED BY IDOCK:   -0.97 KCAL/MOL
REMARK 927      BINDING AFFINITY PREDICTED BY RF-SCORE:    0.00 PKD
ROOT
HETATM    1  O   UNL     1     -11.981  16.052  63.981  1.00  0.00    -0.796 OA 
HETATM    2  C   UNL     1     -12.226  14.747  64.256  1.00  0.00    -0.379 C  
HETATM    3  O   UNL     1     -12.581  13.959  63.394  1.00  0.00    -0.853 OA 
HETATM    4  C   UNL     1     -12.013  14.399  65.725  1.00  0.00    -0.357 C  
ENDROOT
BRANCH   4   5
HETATM    5  O   UNL     1     -12.352  13.028  65.973  1.00  0.00    -0.439 OA 
BRANCH   5   6
HETATM    6  C   UNL     1     -11.358  12.246  66.470  1.00  0.00    -0.351 C  
HETATM    7  O   UNL     1     -10.888  11.267  65.914  1.00  0.00    -0.264 OA 
BRANCH   6   8
HETATM    8  C   UNL     1     -10.918  12.762  67.829  1.00  0.00    -0.266 C  
BRANCH   8   9
HETATM    9  C   UNL     1     -11.137  11.784  68.960  1.00  0.00    -0.301 A  
HETATM   10  C   UNL     1     -12.274  11.978  69.771  1.00  0.00    -0.226 A  
HETATM   11  C   UNL     1     -12.571  11.108  70.817  1.00  0.00    -0.445 A  
HETATM   12  C   UNL     1     -11.762  10.005  71.047  1.00  0.00    -0.479 A  
HETATM   13  C   UNL     1     -10.619   9.812  70.270  1.00  0.00    -0.348 A  
HETATM   14  C   UNL     1     -10.261  10.717  69.260  1.00  0.00    -0.213 A  
BRANCH  14  15
HETATM   15  N   UNL     1      -9.006  10.576  68.626  1.00  0.00    -0.153 NA 
HETATM   16  H   UNL     1      -9.064  10.405  67.623  1.00  0.00     0.000 HD 
BRANCH  15  17
HETATM   17  C   UNL     1      -7.673  10.631  69.133  1.00  0.00    -0.138 A  
HETATM   18  C   UNL     1      -6.966  11.849  68.974  1.00  0.00    -0.098 A  
HETATM   19  C   UNL     1      -5.730  12.081  69.590  1.00  0.00    -0.095 A  
HETATM   20 CL   UNL     1      -7.608  13.131  67.995  1.00  0.00    -0.129 Cl 
HETATM   21  C   UNL     1      -5.151  11.093  70.372  1.00  0.00    -0.075 A  
HETATM   22  C   UNL     1      -5.772   9.852  70.468  1.00  0.00    -0.062 A  
HETATM   23  C   UNL     1      -7.008   9.606  69.842  1.00  0.00    -0.081 A  
HETATM   24 CL   UNL     1      -7.638   8.017  70.106  1.00  0.00    -0.080 Cl 
ENDBRANCH  15  17
ENDBRANCH  14  15
ENDBRANCH   8   9
ENDBRANCH   6   8
ENDBRANCH   5   6
ENDBRANCH   4   5
TORSDOF 6
ENDMDL
MODEL      173
REMARK 921   NORMALIZED FREE ENERGY PREDICTED BY IDOCK:   -4.91 KCAL/MOL
REMARK 922        TOTAL FREE ENERGY PREDICTED BY IDOCK:   -7.59 KCAL/MOL
REMARK 923 INTER-LIGAND FREE ENERGY PREDICTED BY IDOCK:   -6.70 KCAL/MOL
REMARK 924 INTRA-LIGAND FREE ENERGY PREDICTED BY IDOCK:   -0.89 KCAL/MOL
REMARK 927      BINDING AFFINITY PREDICTED BY RF-SCORE:    0.00 PKD
ROOT
HETATM    1  O   UNL     1      -8.190  17.529  65.721  1.00  0.00    -0.545 OA 
HETATM    2  C   UNL     1      -9.429  17.370  66.248  1.00  0.00    -0.226 C  
HETATM    3  O   UNL     1     -10.435  17.400  65.557  1.00  0.00    -0.624 OA 
HETATM    4  C   UNL     1      -9.412  17.158  67.757  1.00  0.00    -0.253 C  
ENDROOT
BRANCH   4   5
HETATM    5  O   UNL     1     -10.748  17.065  68.270  1.00  0.00    -0.358 OA 
BRANCH   5   6
HETATM    6  C   UNL     1     -10.970  16.090  69.189  1.00  0.00    -0.297 C  
HETATM    7  O   UNL     1     -10.491  16.058  70.311  1.00  0.00    -0.253 OA 
BRANCH   6   8
HETATM    8  C   UNL     1     -11.899  15.034  68.617  1.00  0.00    -0.325 C  
BRANCH   8   9
HETATM    9  C   UNL     1     -12.133  13.857  69.535  1.00  0.00    -0.393 A  
HETATM   10  C   UNL     1     -12.860  14.095  70.719  1.00  0.00    -0.378 A  
HETATM   11  C   UNL     1     -13.149  13.062  71.608  1.00  0.00    -0.440 A  
HETATM   12  C   UNL     1     -12.752  11.766  71.313  1.00  0.00    -0.420 A  
HETATM   13  C   UNL     1     -12.009  11.518  70.158  1.00  0.00    -0.452 A  
HETATM   14  C   UNL     1     -11.643  12.554  69.287  1.00  0.00    -0.319 A  
BRANCH  14  15
HETATM   15  N   UNL     1     -10.743  12.280  68.234  1.00  0.00    -0.213 NA 
HETATM   16  H   UNL     1     -10.999  12.710  67.345  1.00  0.00     0.000 HD 
BRANCH  15  17
HETATM   17  C   UNL     1      -9.541  11.512  68.186  1.00  0.00    -0.187 A  
HETATM   18  C   UNL     1      -8.324  12.189  68.454  1.00  0.00    -0.143 A  
HETATM   19  C   UNL     1      -7.112  11.509  68.618  1.00  0.00    -0.098 A  
HETATM   20 CL   UNL     1      -8.280  13.918  68.597  1.00  0.00    -0.125 Cl 
HETATM   21  C   UNL     1      -7.072  10.127  68.500  1.00  0.00    -0.074 A  
HETATM   22  C   UNL     1      -8.228   9.443  68.140  1.00  0.00    -0.118 A  
HETATM   23  C   UNL     1      -9.449  10.121  67.962  1.00  0.00    -0.145 A  
HETATM   24 CL   UNL     1     -10.781   9.095  67.552  1.00  0.00    -0.313 Cl 
ENDBRANCH  15  17
ENDBRANCH  14  15
ENDBRANCH   8   9
ENDBRANCH   6   8
ENDBRANCH   5   6
ENDBRANCH   4   5
TORSDOF 6
ENDMDL
MODEL      174
REMARK 921   NORMALIZED FREE ENERGY PREDICTED BY IDOCK:   -4.90 KCAL/MOL
REMARK 922        TOTAL FREE ENERGY PREDICTED BY IDOCK:   -7.59 KCAL/MOL
REMARK 923 INTER-LIGAND FREE ENERGY PREDICTED BY IDOCK:   -6.50 KCAL/MOL
REMARK 924 INTRA-LIGAND FREE ENERGY PREDICTED BY IDOCK:   -1.09 KCAL/MOL
REMARK 927      BINDING AFFINITY PREDICTED BY RF-SCORE:    0.00 PKD
ROOT
HETATM    1  O   UNL     1     -10.637  10.912  63.866  1.00  0.00    -0.359 OA 
HETATM    2  C   UNL     1      -9.940  10.994  65.025  1.00  0.00    -0.285 C  
HETATM    3  O   UNL     1      -8.795  11.416  65.064  1.00  0.00    -0.024 OA 
HETATM    4  C   UNL     1     -10.734  10.511  66.233  1.00  0.00    -0.069 C  
ENDROOT
BRANCH   4   5
HETATM    5  O   UNL     1      -9.928  10.556  67.418  1.00  0.00    -0.170 OA 
BRANCH   5   6
HETATM    6  C   UNL     1     -10.228  11.536  68.310  1.00  0.00    -0.196 C  
HETATM    7  O   UNL     1      -9.417  12.131  69.000  1.00  0.00     0.102 OA 
BRANCH   6   8
HETATM    8  C   UNL     1     -11.726  11.783  68.330  1.00  0.00    -0.389 C  
BRANCH   8   9
HETATM    9  C   UNL     1     -12.224  12.439  69.597  1.00  0.00    -0.171 A  
HETATM   10  C   UNL     1     -12.452  11.605  70.711  1.00  0.00    -0.425 A  
HETATM   11  C   UNL     1     -12.882  12.127  71.928  1.00  0.00    -0.327 A  
HETATM   12  C   UNL     1     -13.054  13.496  72.069  1.00  0.00    -0.481 A  
HETATM   13  C   UNL     1     -12.858  14.334  70.970  1.00  0.00    -0.427 A  
HETATM   14  C   UNL     1     -12.497  13.821  69.715  1.00  0.00    -0.162 A  
BRANCH  14  15
HETATM   15  N   UNL     1     -12.487  14.685  68.598  1.00  0.00    -0.544 NA 
HETATM   16  H   UNL     1     -13.373  15.162  68.433  1.00  0.00     0.000 HD 
BRANCH  15  17
HETATM   17  C   UNL     1     -11.465  15.011  67.657  1.00  0.00    -0.333 A  
HETATM   18  C   UNL     1     -10.310  15.668  68.154  1.00  0.00    -0.246 A  
HETATM   19  C   UNL     1      -9.170  15.870  67.367  1.00  0.00    -0.207 A  
HETATM   20 CL   UNL     1     -10.253  16.260  69.784  1.00  0.00    -0.215 Cl 
HETATM   21  C   UNL     1      -9.154  15.437  66.049  1.00  0.00    -0.284 A  
HETATM   22  C   UNL     1     -10.304  14.878  65.503  1.00  0.00    -0.388 A  
HETATM   23  C   UNL     1     -11.459  14.682  66.284  1.00  0.00    -0.351 A  
HETATM   24 CL   UNL     1     -12.774  13.941  65.439  1.00  0.00    -0.545 Cl 
ENDBRANCH  15  17
ENDBRANCH  14  15
ENDBRANCH   8   9
ENDBRANCH   6   8
ENDBRANCH   5   6
ENDBRANCH   4   5
TORSDOF 6
ENDMDL
MODEL      175
REMARK 921   NORMALIZED FREE ENERGY PREDICTED BY IDOCK:   -4.90 KCAL/MOL
REMARK 922        TOTAL FREE ENERGY PREDICTED BY IDOCK:   -7.58 KCAL/MOL
REMARK 923 INTER-LIGAND FREE ENERGY PREDICTED BY IDOCK:   -6.73 KCAL/MOL
REMARK 924 INTRA-LIGAND FREE ENERGY PREDICTED BY IDOCK:   -0.85 KCAL/MOL
REMARK 927      BINDING AFFINITY PREDICTED BY RF-SCORE:    0.00 PKD
ROOT
HETATM    1  O   UNL     1     -11.246  16.548  70.219  1.00  0.00    -0.333 OA 
HETATM    2  C   UNL     1     -11.600  15.255  70.418  1.00  0.00    -0.308 C  
HETATM    3  O   UNL     1     -11.686  14.772  71.536  1.00  0.00    -0.341 OA 
HETATM    4  C   UNL     1     -11.868  14.504  69.118  1.00  0.00    -0.319 C  
ENDROOT
BRANCH   4   5
HETATM    5  O   UNL     1     -12.170  13.128  69.384  1.00  0.00    -0.251 OA 
BRANCH   5   6
HETATM    6  C   UNL     1     -11.773  12.235  68.440  1.00  0.00    -0.337 C  
HETATM    7  O   UNL     1     -12.124  11.068  68.384  1.00  0.00    -0.594 OA 
BRANCH   6   8
HETATM    8  C   UNL     1     -10.820  12.898  67.462  1.00  0.00    -0.256 C  
BRANCH   8   9
HETATM    9  C   UNL     1     -11.117  12.596  66.011  1.00  0.00    -0.321 A  
HETATM   10  C   UNL     1     -12.408  12.909  65.538  1.00  0.00    -0.517 A  
HETATM   11  C   UNL     1     -12.761  12.693  64.208  1.00  0.00    -0.394 A  
HETATM   12  C   UNL     1     -11.820  12.199  63.316  1.00  0.00    -0.466 A  
HETATM   13  C   UNL     1     -10.546  11.859  63.774  1.00  0.00    -0.475 A  
HETATM   14  C   UNL     1     -10.193  11.998  65.124  1.00  0.00    -0.276 A  
BRANCH  14  15
HETATM   15  N   UNL     1      -8.959  11.475  65.569  1.00  0.00    -0.392 NA 
HETATM   16  H   UNL     1      -8.235  12.179  65.709  1.00  0.00     0.000 HD 
BRANCH  15  17
HETATM   17  C   UNL     1      -8.541  10.141  65.858  1.00  0.00    -0.147 A  
HETATM   18  C   UNL     1      -8.310   9.812  67.218  1.00  0.00    -0.121 A  
HETATM   19  C   UNL     1      -8.079   8.497  67.638  1.00  0.00    -0.107 A  
HETATM   20 CL   UNL     1      -8.305  11.041  68.444  1.00  0.00    -0.132 Cl 
HETATM   21  C   UNL     1      -8.052   7.468  66.708  1.00  0.00    -0.123 A  
HETATM   22  C   UNL     1      -8.177   7.771  65.357  1.00  0.00    -0.140 A  
HETATM   23  C   UNL     1      -8.398   9.092  64.924  1.00  0.00    -0.169 A  
HETATM   24 CL   UNL     1      -8.562   9.263  63.211  1.00  0.00    -0.211 Cl 
ENDBRANCH  15  17
ENDBRANCH  14  15
ENDBRANCH   8   9
ENDBRANCH   6   8
ENDBRANCH   5   6
ENDBRANCH   4   5
TORSDOF 6
ENDMDL
MODEL      176
REMARK 921   NORMALIZED FREE ENERGY PREDICTED BY IDOCK:   -4.89 KCAL/MOL
REMARK 922        TOTAL FREE ENERGY PREDICTED BY IDOCK:   -7.57 KCAL/MOL
REMARK 923 INTER-LIGAND FREE ENERGY PREDICTED BY IDOCK:   -6.79 KCAL/MOL
REMARK 924 INTRA-LIGAND FREE ENERGY PREDICTED BY IDOCK:   -0.78 KCAL/MOL
REMARK 927      BINDING AFFINITY PREDICTED BY RF-SCORE:    0.00 PKD
ROOT
HETATM    1  O   UNL     1     -12.489  12.737  63.229  1.00  0.00    -0.665 OA 
HETATM    2  C   UNL     1     -12.101  12.518  64.510  1.00  0.00    -0.425 C  
HETATM    3  O   UNL     1     -12.895  12.523  65.437  1.00  0.00    -0.554 OA 
HETATM    4  C   UNL     1     -10.602  12.273  64.644  1.00  0.00    -0.303 C  
ENDROOT
BRANCH   4   5
HETATM    5  O   UNL     1     -10.238  12.115  66.022  1.00  0.00    -0.227 OA 
BRANCH   5   6
HETATM    6  C   UNL     1      -9.486  13.110  66.560  1.00  0.00    -0.243 C  
HETATM    7  O   UNL     1      -8.399  12.960  67.094  1.00  0.00    -0.184 OA 
BRANCH   6   8
HETATM    8  C   UNL     1     -10.197  14.443  66.408  1.00  0.00    -0.294 C  
BRANCH   8   9
HETATM    9  C   UNL     1     -10.654  15.049  67.715  1.00  0.00    -0.264 A  
HETATM   10  C   UNL     1     -11.902  14.631  68.220  1.00  0.00    -0.333 A  
HETATM   11  C   UNL     1     -12.389  15.114  69.433  1.00  0.00    -0.165 A  
HETATM   12  C   UNL     1     -11.621  15.993  70.183  1.00  0.00    -0.324 A  
HETATM   13  C   UNL     1     -10.395  16.437  69.685  1.00  0.00    -0.244 A  
HETATM   14  C   UNL     1      -9.921  16.021  68.433  1.00  0.00    -0.220 A  
BRANCH  14  15
HETATM   15  N   UNL     1      -8.768  16.636  67.896  1.00  0.00    -0.191 NA 
HETATM   16  H   UNL     1      -8.590  16.406  66.919  1.00  0.00     0.000 HD 
BRANCH  15  17
HETATM   17  C   UNL     1      -7.806  17.519  68.472  1.00  0.00    -0.274 A  
HETATM   18  C   UNL     1      -8.156  18.891  68.565  1.00  0.00    -0.348 A  
HETATM   19  C   UNL     1      -7.377  19.813  69.274  1.00  0.00    -0.248 A  
HETATM   20 CL   UNL     1      -9.587  19.499  67.794  1.00  0.00    -0.418 Cl 
HETATM   21  C   UNL     1      -6.211  19.398  69.900  1.00  0.00    -0.303 A  
HETATM   22  C   UNL     1      -5.789  18.082  69.745  1.00  0.00    -0.240 A  
HETATM   23  C   UNL     1      -6.560  17.150  69.024  1.00  0.00    -0.218 A  
HETATM   24 CL   UNL     1      -5.889  15.557  68.974  1.00  0.00    -0.102 Cl 
ENDBRANCH  15  17
ENDBRANCH  14  15
ENDBRANCH   8   9
ENDBRANCH   6   8
ENDBRANCH   5   6
ENDBRANCH   4   5
TORSDOF 6
ENDMDL
MODEL      177
REMARK 921   NORMALIZED FREE ENERGY PREDICTED BY IDOCK:   -4.88 KCAL/MOL
REMARK 922        TOTAL FREE ENERGY PREDICTED BY IDOCK:   -7.55 KCAL/MOL
REMARK 923 INTER-LIGAND FREE ENERGY PREDICTED BY IDOCK:   -6.79 KCAL/MOL
REMARK 924 INTRA-LIGAND FREE ENERGY PREDICTED BY IDOCK:   -0.76 KCAL/MOL
REMARK 927      BINDING AFFINITY PREDICTED BY RF-SCORE:    0.00 PKD
ROOT
HETATM    1  O   UNL     1     -13.768   8.767  72.295  1.00  0.00    -0.411 OA 
HETATM    2  C   UNL     1     -13.052   9.826  71.844  1.00  0.00    -0.446 C  
HETATM    3  O   UNL     1     -13.358  10.977  72.113  1.00  0.00    -0.451 OA 
HETATM    4  C   UNL     1     -11.858   9.415  70.989  1.00  0.00    -0.322 C  
ENDROOT
BRANCH   4   5
HETATM    5  O   UNL     1     -11.178  10.572  70.484  1.00  0.00    -0.314 OA 
BRANCH   5   6
HETATM    6  C   UNL     1     -11.357  10.844  69.165  1.00  0.00    -0.283 C  
HETATM    7  O   UNL     1     -12.438  10.938  68.606  1.00  0.00    -0.418 OA 
BRANCH   6   8
HETATM    8  C   UNL     1     -10.014  11.009  68.478  1.00  0.00    -0.198 C  
BRANCH   8   9
HETATM    9  C   UNL     1     -10.101  11.586  67.084  1.00  0.00    -0.223 A  
HETATM   10  C   UNL     1     -10.448  10.705  66.040  1.00  0.00    -0.250 A  
HETATM   11  C   UNL     1     -10.582  11.156  64.729  1.00  0.00    -0.371 A  
HETATM   12  C   UNL     1     -10.412  12.502  64.443  1.00  0.00    -0.384 A  
HETATM   13  C   UNL     1     -10.044  13.384  65.460  1.00  0.00    -0.279 A  
HETATM   14  C   UNL     1      -9.831  12.938  66.772  1.00  0.00    -0.241 A  
BRANCH  14  15
HETATM   15  N   UNL     1      -9.286  13.831  67.721  1.00  0.00    -0.205 NA 
HETATM   16  H   UNL     1      -8.510  13.445  68.259  1.00  0.00     0.000 HD 
BRANCH  15  17
HETATM   17  C   UNL     1      -9.624  15.175  68.065  1.00  0.00    -0.204 A  
HETATM   18  C   UNL     1     -10.664  15.362  69.011  1.00  0.00    -0.242 A  
HETATM   19  C   UNL     1     -10.954  16.616  69.562  1.00  0.00    -0.228 A  
HETATM   20 CL   UNL     1     -11.639  14.027  69.540  1.00  0.00    -0.330 Cl 
HETATM   21  C   UNL     1     -10.226  17.729  69.170  1.00  0.00    -0.211 A  
HETATM   22  C   UNL     1      -9.266  17.596  68.173  1.00  0.00    -0.282 A  
HETATM   23  C   UNL     1      -8.975  16.341  67.605  1.00  0.00    -0.192 A  
HETATM   24 CL   UNL     1      -7.727  16.372  66.408  1.00  0.00    -0.301 Cl 
ENDBRANCH  15  17
ENDBRANCH  14  15
ENDBRANCH   8   9
ENDBRANCH   6   8
ENDBRANCH   5   6
ENDBRANCH   4   5
TORSDOF 6
ENDMDL
MODEL      178
REMARK 921   NORMALIZED FREE ENERGY PREDICTED BY IDOCK:   -4.84 KCAL/MOL
REMARK 922        TOTAL FREE ENERGY PREDICTED BY IDOCK:   -7.50 KCAL/MOL
REMARK 923 INTER-LIGAND FREE ENERGY PREDICTED BY IDOCK:   -6.50 KCAL/MOL
REMARK 924 INTRA-LIGAND FREE ENERGY PREDICTED BY IDOCK:   -1.01 KCAL/MOL
REMARK 927      BINDING AFFINITY PREDICTED BY RF-SCORE:    0.00 PKD
ROOT
HETATM    1  O   UNL     1      -7.829   4.544  67.937  1.00  0.00    -0.081 OA 
HETATM    2  C   UNL     1      -7.766   4.921  69.238  1.00  0.00    -0.074 C  
HETATM    3  O   UNL     1      -6.852   4.574  69.969  1.00  0.00    -0.039 OA 
HETATM    4  C   UNL     1      -8.937   5.801  69.660  1.00  0.00    -0.128 C  
ENDROOT
BRANCH   4   5
HETATM    5  O   UNL     1      -8.856   6.113  71.058  1.00  0.00    -0.138 OA 
BRANCH   5   6
HETATM    6  C   UNL     1      -9.499   7.240  71.458  1.00  0.00    -0.152 C  
HETATM    7  O   UNL     1      -9.336   7.801  72.529  1.00  0.00    -0.150 OA 
BRANCH   6   8
HETATM    8  C   UNL     1     -10.462   7.703  70.379  1.00  0.00    -0.221 C  
BRANCH   8   9
HETATM    9  C   UNL     1     -11.811   8.139  70.904  1.00  0.00    -0.232 A  
HETATM   10  C   UNL     1     -12.733   7.126  71.236  1.00  0.00    -0.412 A  
HETATM   11  C   UNL     1     -13.989   7.434  71.756  1.00  0.00    -0.469 A  
HETATM   12  C   UNL     1     -14.331   8.758  71.990  1.00  0.00    -0.466 A  
HETATM   13  C   UNL     1     -13.440   9.774  71.643  1.00  0.00    -0.436 A  
HETATM   14  C   UNL     1     -12.202   9.489  71.050  1.00  0.00    -0.304 A  
BRANCH  14  15
HETATM   15  N   UNL     1     -11.417  10.554  70.554  1.00  0.00    -0.332 NA 
HETATM   16  H   UNL     1     -10.589  10.756  71.114  1.00  0.00     0.000 HD 
BRANCH  15  17
HETATM   17  C   UNL     1     -11.571  11.398  69.413  1.00  0.00    -0.323 A  
HETATM   18  C   UNL     1     -12.008  12.727  69.642  1.00  0.00    -0.288 A  
HETATM   19  C   UNL     1     -12.017  13.694  68.630  1.00  0.00    -0.395 A  
HETATM   20 CL   UNL     1     -12.559  13.227  71.210  1.00  0.00    -0.434 Cl 
HETATM   21  C   UNL     1     -11.606  13.358  67.348  1.00  0.00    -0.394 A  
HETATM   22  C   UNL     1     -11.265  12.039  67.068  1.00  0.00    -0.377 A  
HETATM   23  C   UNL     1     -11.265  11.058  68.077  1.00  0.00    -0.309 A  
HETATM   24 CL   UNL     1     -10.778   9.486  67.543  1.00  0.00    -0.344 Cl 
ENDBRANCH  15  17
ENDBRANCH  14  15
ENDBRANCH   8   9
ENDBRANCH   6   8
ENDBRANCH   5   6
ENDBRANCH   4   5
TORSDOF 6
ENDMDL
MODEL      179
REMARK 921   NORMALIZED FREE ENERGY PREDICTED BY IDOCK:   -4.84 KCAL/MOL
REMARK 922        TOTAL FREE ENERGY PREDICTED BY IDOCK:   -7.50 KCAL/MOL
REMARK 923 INTER-LIGAND FREE ENERGY PREDICTED BY IDOCK:   -6.76 KCAL/MOL
REMARK 924 INTRA-LIGAND FREE ENERGY PREDICTED BY IDOCK:   -0.74 KCAL/MOL
REMARK 927      BINDING AFFINITY PREDICTED BY RF-SCORE:    0.00 PKD
ROOT
HETATM    1  O   UNL     1     -12.546  14.873  71.709  1.00  0.00    -0.303 OA 
HETATM    2  C   UNL     1     -13.223  13.731  71.985  1.00  0.00    -0.432 C  
HETATM    3  O   UNL     1     -14.259  13.733  72.632  1.00  0.00    -0.710 OA 
HETATM    4  C   UNL     1     -12.554  12.488  71.410  1.00  0.00    -0.194 C  
ENDROOT
BRANCH   4   5
HETATM    5  O   UNL     1     -13.272  11.307  71.790  1.00  0.00    -0.450 OA 
BRANCH   5   6
HETATM    6  C   UNL     1     -12.838  10.141  71.244  1.00  0.00    -0.410 C  
HETATM    7  O   UNL     1     -13.540   9.172  71.004  1.00  0.00    -0.189 OA 
BRANCH   6   8
HETATM    8  C   UNL     1     -11.345  10.211  70.980  1.00  0.00    -0.385 C  
BRANCH   8   9
HETATM    9  C   UNL     1     -10.965   9.999  69.533  1.00  0.00    -0.289 A  
HETATM   10  C   UNL     1     -10.683  11.147  68.764  1.00  0.00    -0.236 A  
HETATM   11  C   UNL     1     -10.295  11.045  67.430  1.00  0.00    -0.242 A  
HETATM   12  C   UNL     1     -10.142   9.794  66.851  1.00  0.00    -0.287 A  
HETATM   13  C   UNL     1     -10.441   8.649  67.590  1.00  0.00    -0.311 A  
HETATM   14  C   UNL     1     -10.905   8.732  68.911  1.00  0.00    -0.008 A  
BRANCH  14  15
HETATM   15  N   UNL     1     -11.365   7.560  69.552  1.00  0.00    -0.455 NA 
HETATM   16  H   UNL     1     -12.380   7.462  69.561  1.00  0.00     0.000 HD 
BRANCH  15  17
HETATM   17  C   UNL     1     -10.668   6.490  70.190  1.00  0.00    -0.252 A  
HETATM   18  C   UNL     1     -10.153   5.462  69.359  1.00  0.00    -0.234 A  
HETATM   19  C   UNL     1      -9.299   4.467  69.847  1.00  0.00    -0.225 A  
HETATM   20 CL   UNL     1     -10.561   5.391  67.674  1.00  0.00    -0.224 Cl 
HETATM   21  C   UNL     1      -8.946   4.454  71.189  1.00  0.00    -0.167 A  
HETATM   22  C   UNL     1      -9.512   5.389  72.049  1.00  0.00    -0.172 A  
HETATM   23  C   UNL     1     -10.381   6.387  71.569  1.00  0.00    -0.207 A  
HETATM   24 CL   UNL     1     -10.954   7.477  72.783  1.00  0.00    -0.376 Cl 
ENDBRANCH  15  17
ENDBRANCH  14  15
ENDBRANCH   8   9
ENDBRANCH   6   8
ENDBRANCH   5   6
ENDBRANCH   4   5
TORSDOF 6
ENDMDL
MODEL      180
REMARK 921   NORMALIZED FREE ENERGY PREDICTED BY IDOCK:   -4.84 KCAL/MOL
REMARK 922        TOTAL FREE ENERGY PREDICTED BY IDOCK:   -7.50 KCAL/MOL
REMARK 923 INTER-LIGAND FREE ENERGY PREDICTED BY IDOCK:   -6.51 KCAL/MOL
REMARK 924 INTRA-LIGAND FREE ENERGY PREDICTED BY IDOCK:   -0.99 KCAL/MOL
REMARK 927      BINDING AFFINITY PREDICTED BY RF-SCORE:    0.00 PKD
ROOT
HETATM    1  O   UNL     1     -10.756  16.568  69.418  1.00  0.00    -0.299 OA 
HETATM    2  C   UNL     1     -11.605  15.574  69.058  1.00  0.00    -0.365 C  
HETATM    3  O   UNL     1     -12.371  15.056  69.855  1.00  0.00    -0.312 OA 
HETATM    4  C   UNL     1     -11.488  15.195  67.586  1.00  0.00    -0.309 C  
ENDROOT
BRANCH   4   5
HETATM    5  O   UNL     1     -12.357  14.097  67.277  1.00  0.00    -0.350 OA 
BRANCH   5   6
HETATM    6  C   UNL     1     -11.750  12.946  66.885  1.00  0.00    -0.382 C  
HETATM    7  O   UNL     1     -11.339  12.715  65.759  1.00  0.00    -0.305 OA 
BRANCH   6   8
HETATM    8  C   UNL     1     -11.661  11.979  68.052  1.00  0.00    -0.407 C  
BRANCH   8   9
HETATM    9  C   UNL     1     -10.252  11.544  68.384  1.00  0.00    -0.211 A  
HETATM   10  C   UNL     1      -9.220  12.480  68.173  1.00  0.00    -0.209 A  
HETATM   11  C   UNL     1      -7.896  12.176  68.480  1.00  0.00    -0.122 A  
HETATM   12  C   UNL     1      -7.583  10.946  69.042  1.00  0.00    -0.135 A  
HETATM   13  C   UNL     1      -8.589   9.998  69.233  1.00  0.00    -0.172 A  
HETATM   14  C   UNL     1      -9.917  10.256  68.861  1.00  0.00    -0.201 A  
BRANCH  14  15
HETATM   15  N   UNL     1     -10.859   9.205  68.908  1.00  0.00    -0.408 NA 
HETATM   16  H   UNL     1     -11.306   9.008  68.013  1.00  0.00     0.000 HD 
BRANCH  15  17
HETATM   17  C   UNL     1     -11.301   8.370  69.978  1.00  0.00    -0.001 A  
HETATM   18  C   UNL     1     -10.994   6.988  69.894  1.00  0.00    -0.263 A  
HETATM   19  C   UNL     1     -11.209   6.110  70.962  1.00  0.00    -0.361 A  
HETATM   20 CL   UNL     1     -10.324   6.311  68.443  1.00  0.00    -0.203 Cl 
HETATM   21  C   UNL     1     -11.758   6.581  72.146  1.00  0.00    -0.353 A  
HETATM   22  C   UNL     1     -12.161   7.910  72.226  1.00  0.00    -0.363 A  
HETATM   23  C   UNL     1     -11.958   8.798  71.152  1.00  0.00    -0.285 A  
HETATM   24 CL   UNL     1     -12.493  10.415  71.454  1.00  0.00    -0.494 Cl 
ENDBRANCH  15  17
ENDBRANCH  14  15
ENDBRANCH   8   9
ENDBRANCH   6   8
ENDBRANCH   5   6
ENDBRANCH   4   5
TORSDOF 6
ENDMDL
MODEL      181
REMARK 921   NORMALIZED FREE ENERGY PREDICTED BY IDOCK:   -4.83 KCAL/MOL
REMARK 922        TOTAL FREE ENERGY PREDICTED BY IDOCK:   -7.49 KCAL/MOL
REMARK 923 INTER-LIGAND FREE ENERGY PREDICTED BY IDOCK:   -6.75 KCAL/MOL
REMARK 924 INTRA-LIGAND FREE ENERGY PREDICTED BY IDOCK:   -0.74 KCAL/MOL
REMARK 927      BINDING AFFINITY PREDICTED BY RF-SCORE:    0.00 PKD
ROOT
HETATM    1  O   UNL     1      -6.110  20.401  68.750  1.00  0.00    -0.295 OA 
HETATM    2  C   UNL     1      -7.265  20.130  68.095  1.00  0.00    -0.258 C  
HETATM    3  O   UNL     1      -7.698  20.860  67.217  1.00  0.00    -0.344 OA 
HETATM    4  C   UNL     1      -7.934  18.846  68.573  1.00  0.00    -0.346 C  
ENDROOT
BRANCH   4   5
HETATM    5  O   UNL     1      -9.182  18.645  67.896  1.00  0.00    -0.284 OA 
BRANCH   5   6
HETATM    6  C   UNL     1      -9.181  17.721  66.900  1.00  0.00    -0.258 C  
HETATM    7  O   UNL     1      -8.659  17.865  65.807  1.00  0.00    -0.503 OA 
BRANCH   6   8
HETATM    8  C   UNL     1      -9.933  16.478  67.341  1.00  0.00    -0.267 C  
BRANCH   8   9
HETATM    9  C   UNL     1      -9.047  15.280  67.594  1.00  0.00    -0.184 A  
HETATM   10  C   UNL     1      -7.678  15.411  67.281  1.00  0.00    -0.245 A  
HETATM   11  C   UNL     1      -6.782  14.369  67.509  1.00  0.00    -0.132 A  
HETATM   12  C   UNL     1      -7.229  13.192  68.091  1.00  0.00    -0.117 A  
HETATM   13  C   UNL     1      -8.584  13.036  68.384  1.00  0.00    -0.116 A  
HETATM   14  C   UNL     1      -9.515  14.043  68.093  1.00  0.00    -0.215 A  
BRANCH  14  15
HETATM   15  N   UNL     1     -10.893  13.769  68.240  1.00  0.00    -0.243 NA 
HETATM   16  H   UNL     1     -11.434  13.883  67.383  1.00  0.00     0.000 HD 
BRANCH  15  17
HETATM   17  C   UNL     1     -11.666  13.361  69.368  1.00  0.00    -0.325 A  
HETATM   18  C   UNL     1     -11.901  11.972  69.528  1.00  0.00    -0.326 A  
HETATM   19  C   UNL     1     -12.482  11.442  70.686  1.00  0.00    -0.419 A  
HETATM   20 CL   UNL     1     -11.470  10.846  68.279  1.00  0.00    -0.377 Cl 
HETATM   21  C   UNL     1     -12.866  12.287  71.716  1.00  0.00    -0.359 A  
HETATM   22  C   UNL     1     -12.740  13.662  71.550  1.00  0.00    -0.420 A  
HETATM   23  C   UNL     1     -12.168  14.204  70.384  1.00  0.00    -0.356 A  
HETATM   24 CL   UNL     1     -12.064  15.931  70.377  1.00  0.00    -0.359 Cl 
ENDBRANCH  15  17
ENDBRANCH  14  15
ENDBRANCH   8   9
ENDBRANCH   6   8
ENDBRANCH   5   6
ENDBRANCH   4   5
TORSDOF 6
ENDMDL
MODEL      182
REMARK 921   NORMALIZED FREE ENERGY PREDICTED BY IDOCK:   -4.83 KCAL/MOL
REMARK 922        TOTAL FREE ENERGY PREDICTED BY IDOCK:   -7.49 KCAL/MOL
REMARK 923 INTER-LIGAND FREE ENERGY PREDICTED BY IDOCK:   -6.47 KCAL/MOL
REMARK 924 INTRA-LIGAND FREE ENERGY PREDICTED BY IDOCK:   -1.02 KCAL/MOL
REMARK 927      BINDING AFFINITY PREDICTED BY RF-SCORE:    0.00 PKD
ROOT
HETATM    1  O   UNL     1     -12.682  14.621  63.667  1.00  0.00    -0.735 OA 
HETATM    2  C   UNL     1     -12.207  13.377  63.921  1.00  0.00    -0.415 C  
HETATM    3  O   UNL     1     -12.848  12.373  63.654  1.00  0.00    -0.743 OA 
HETATM    4  C   UNL     1     -10.823  13.386  64.559  1.00  0.00    -0.406 C  
ENDROOT
BRANCH   4   5
HETATM    5  O   UNL     1     -10.400  12.051  64.867  1.00  0.00    -0.261 OA 
BRANCH   5   6
HETATM    6  C   UNL     1     -10.541  11.662  66.161  1.00  0.00    -0.262 C  
HETATM    7  O   UNL     1     -11.596  11.360  66.695  1.00  0.00    -0.432 OA 
BRANCH   6   8
HETATM    8  C   UNL     1      -9.191  11.664  66.856  1.00  0.00    -0.187 C  
BRANCH   8   9
HETATM    9  C   UNL     1      -8.313  10.487  66.498  1.00  0.00    -0.141 A  
HETATM   10  C   UNL     1      -7.064  10.770  65.906  1.00  0.00    -0.080 A  
HETATM   11  C   UNL     1      -6.177   9.749  65.571  1.00  0.00    -0.074 A  
HETATM   12  C   UNL     1      -6.503   8.431  65.857  1.00  0.00    -0.053 A  
HETATM   13  C   UNL     1      -7.745   8.132  66.418  1.00  0.00    -0.092 A  
HETATM   14  C   UNL     1      -8.683   9.137  66.694  1.00  0.00    -0.127 A  
BRANCH  14  15
HETATM   15  N   UNL     1      -9.987   8.769  67.092  1.00  0.00    -0.208 NA 
HETATM   16  H   UNL     1     -10.697   8.911  66.373  1.00  0.00     0.000 HD 
BRANCH  15  17
HETATM   17  C   UNL     1     -10.494   8.234  68.314  1.00  0.00    -0.161 A  
HETATM   18  C   UNL     1     -10.855   6.863  68.325  1.00  0.00    -0.184 A  
HETATM   19  C   UNL     1     -11.184   6.187  69.506  1.00  0.00    -0.482 A  
HETATM   20 CL   UNL     1     -10.902   5.943  66.854  1.00  0.00    -0.384 Cl 
HETATM   21  C   UNL     1     -11.183   6.867  70.715  1.00  0.00    -0.338 A  
HETATM   22  C   UNL     1     -10.930   8.234  70.725  1.00  0.00    -0.266 A  
HETATM   23  C   UNL     1     -10.609   8.924  69.541  1.00  0.00    -0.228 A  
HETATM   24 CL   UNL     1     -10.292  10.610  69.762  1.00  0.00    -0.206 Cl 
ENDBRANCH  15  17
ENDBRANCH  14  15
ENDBRANCH   8   9
ENDBRANCH   6   8
ENDBRANCH   5   6
ENDBRANCH   4   5
TORSDOF 6
ENDMDL
MODEL      183
REMARK 921   NORMALIZED FREE ENERGY PREDICTED BY IDOCK:   -4.83 KCAL/MOL
REMARK 922        TOTAL FREE ENERGY PREDICTED BY IDOCK:   -7.48 KCAL/MOL
REMARK 923 INTER-LIGAND FREE ENERGY PREDICTED BY IDOCK:   -6.02 KCAL/MOL
REMARK 924 INTRA-LIGAND FREE ENERGY PREDICTED BY IDOCK:   -1.47 KCAL/MOL
REMARK 927      BINDING AFFINITY PREDICTED BY RF-SCORE:    0.00 PKD
ROOT
HETATM    1  O   UNL     1      -6.125  13.044  67.664  1.00  0.00    -0.137 OA 
HETATM    2  C   UNL     1      -6.642  11.793  67.727  1.00  0.00    -0.075 C  
HETATM    3  O   UNL     1      -6.796  11.104  66.730  1.00  0.00    -0.116 OA 
HETATM    4  C   UNL     1      -6.997  11.366  69.147  1.00  0.00    -0.118 C  
ENDROOT
BRANCH   4   5
HETATM    5  O   UNL     1      -7.602  10.066  69.147  1.00  0.00    -0.081 OA 
BRANCH   5   6
HETATM    6  C   UNL     1      -8.161   9.666  70.319  1.00  0.00    -0.183 C  
HETATM    7  O   UNL     1      -7.545   9.419  71.344  1.00  0.00    -0.340 OA 
BRANCH   6   8
HETATM    8  C   UNL     1      -9.668   9.562  70.171  1.00  0.00    -0.289 C  
BRANCH   8   9
HETATM    9  C   UNL     1     -10.118   8.510  69.184  1.00  0.00    -0.207 A  
HETATM   10  C   UNL     1     -10.457   7.242  69.701  1.00  0.00    -0.239 A  
HETATM   11  C   UNL     1     -10.911   6.222  68.869  1.00  0.00    -0.435 A  
HETATM   12  C   UNL     1     -11.075   6.460  67.512  1.00  0.00    -0.401 A  
HETATM   13  C   UNL     1     -10.720   7.700  66.980  1.00  0.00    -0.340 A  
HETATM   14  C   UNL     1     -10.190   8.717  67.788  1.00  0.00    -0.225 A  
BRANCH  14  15
HETATM   15  N   UNL     1      -9.680   9.884  67.177  1.00  0.00    -0.171 NA 
HETATM   16  H   UNL     1      -8.795  10.205  67.567  1.00  0.00     0.000 HD 
BRANCH  15  17
HETATM   17  C   UNL     1     -10.178  10.696  66.114  1.00  0.00    -0.248 A  
HETATM   18  C   UNL     1     -11.092  11.726  66.455  1.00  0.00    -0.307 A  
HETATM   19  C   UNL     1     -11.500  12.696  65.532  1.00  0.00    -0.375 A  
HETATM   20 CL   UNL     1     -11.754  11.835  68.055  1.00  0.00    -0.381 Cl 
HETATM   21  C   UNL     1     -11.024  12.657  64.230  1.00  0.00    -0.404 A  
HETATM   22  C   UNL     1     -10.204  11.604  63.838  1.00  0.00    -0.409 A  
HETATM   23  C   UNL     1      -9.798  10.618  64.756  1.00  0.00    -0.310 A  
HETATM   24 CL   UNL     1      -8.752   9.411  64.090  1.00  0.00    -0.225 Cl 
ENDBRANCH  15  17
ENDBRANCH  14  15
ENDBRANCH   8   9
ENDBRANCH   6   8
ENDBRANCH   5   6
ENDBRANCH   4   5
TORSDOF 6
ENDMDL
MODEL      184
REMARK 921   NORMALIZED FREE ENERGY PREDICTED BY IDOCK:   -4.82 KCAL/MOL
REMARK 922        TOTAL FREE ENERGY PREDICTED BY IDOCK:   -7.48 KCAL/MOL
REMARK 923 INTER-LIGAND FREE ENERGY PREDICTED BY IDOCK:   -6.55 KCAL/MOL
REMARK 924 INTRA-LIGAND FREE ENERGY PREDICTED BY IDOCK:   -0.93 KCAL/MOL
REMARK 927      BINDING AFFINITY PREDICTED BY RF-SCORE:    0.00 PKD
ROOT
HETATM    1  O   UNL     1      -6.144  20.483  70.156  1.00  0.00    -0.419 OA 
HETATM    2  C   UNL     1      -6.336  20.172  68.851  1.00  0.00    -0.323 C  
HETATM    3  O   UNL     1      -5.501  20.422  67.996  1.00  0.00    -0.190 OA 
HETATM    4  C   UNL     1      -7.678  19.496  68.591  1.00  0.00    -0.355 C  
ENDROOT
BRANCH   4   5
HETATM    5  O   UNL     1      -7.857  19.252  67.189  1.00  0.00    -0.246 OA 
BRANCH   5   6
HETATM    6  C   UNL     1      -7.867  17.949  66.804  1.00  0.00    -0.232 C  
HETATM    7  O   UNL     1      -7.611  17.545  65.682  1.00  0.00    -0.480 OA 
BRANCH   6   8
HETATM    8  C   UNL     1      -8.250  17.062  67.975  1.00  0.00    -0.206 C  
BRANCH   8   9
HETATM    9  C   UNL     1      -7.854  15.613  67.805  1.00  0.00    -0.158 A  
HETATM   10  C   UNL     1      -6.477  15.312  67.838  1.00  0.00    -0.172 A  
HETATM   11  C   UNL     1      -6.022  14.001  67.720  1.00  0.00    -0.115 A  
HETATM   12  C   UNL     1      -6.935  12.962  67.607  1.00  0.00    -0.152 A  
HETATM   13  C   UNL     1      -8.300  13.245  67.547  1.00  0.00    -0.186 A  
HETATM   14  C   UNL     1      -8.775  14.564  67.589  1.00  0.00    -0.183 A  
BRANCH  14  15
HETATM   15  N   UNL     1     -10.145  14.808  67.343  1.00  0.00    -0.231 NA 
HETATM   16  H   UNL     1     -10.564  15.494  67.971  1.00  0.00     0.000 HD 
BRANCH  15  17
HETATM   17  C   UNL     1     -11.049  14.270  66.379  1.00  0.00    -0.325 A  
HETATM   18  C   UNL     1     -11.295  15.044  65.216  1.00  0.00    -0.349 A  
HETATM   19  C   UNL     1     -12.010  14.541  64.123  1.00  0.00    -0.346 A  
HETATM   20 CL   UNL     1     -10.709  16.673  65.088  1.00  0.00    -0.296 Cl 
HETATM   21  C   UNL     1     -12.522  13.252  64.165  1.00  0.00    -0.330 A  
HETATM   22  C   UNL     1     -12.383  12.504  65.329  1.00  0.00    -0.469 A  
HETATM   23  C   UNL     1     -11.675  13.006  66.436  1.00  0.00    -0.390 A  
HETATM   24 CL   UNL     1     -11.580  11.915  67.776  1.00  0.00    -0.397 Cl 
ENDBRANCH  15  17
ENDBRANCH  14  15
ENDBRANCH   8   9
ENDBRANCH   6   8
ENDBRANCH   5   6
ENDBRANCH   4   5
TORSDOF 6
ENDMDL
MODEL      185
REMARK 921   NORMALIZED FREE ENERGY PREDICTED BY IDOCK:   -4.82 KCAL/MOL
REMARK 922        TOTAL FREE ENERGY PREDICTED BY IDOCK:   -7.47 KCAL/MOL
REMARK 923 INTER-LIGAND FREE ENERGY PREDICTED BY IDOCK:   -6.57 KCAL/MOL
REMARK 924 INTRA-LIGAND FREE ENERGY PREDICTED BY IDOCK:   -0.90 KCAL/MOL
REMARK 927      BINDING AFFINITY PREDICTED BY RF-SCORE:    0.00 PKD
ROOT
HETATM    1  O   UNL     1     -12.150   6.754  71.335  1.00  0.00    -0.333 OA 
HETATM    2  C   UNL     1     -11.841   8.001  71.767  1.00  0.00    -0.296 C  
HETATM    3  O   UNL     1     -11.810   8.287  72.953  1.00  0.00    -0.337 OA 
HETATM    4  C   UNL     1     -11.548   8.971  70.627  1.00  0.00    -0.224 C  
ENDROOT
BRANCH   4   5
HETATM    5  O   UNL     1     -11.295  10.287  71.136  1.00  0.00    -0.314 OA 
BRANCH   5   6
HETATM    6  C   UNL     1     -12.372  11.111  71.226  1.00  0.00    -0.297 C  
HETATM    7  O   UNL     1     -13.127  11.179  72.182  1.00  0.00    -0.463 OA 
BRANCH   6   8
HETATM    8  C   UNL     1     -12.506  11.936  69.959  1.00  0.00    -0.091 C  
BRANCH   8   9
HETATM    9  C   UNL     1     -11.938  13.332  70.071  1.00  0.00    -0.399 A  
HETATM   10  C   UNL     1     -12.745  14.310  70.688  1.00  0.00    -0.409 A  
HETATM   11  C   UNL     1     -12.292  15.616  70.861  1.00  0.00    -0.479 A  
HETATM   12  C   UNL     1     -11.009  15.959  70.458  1.00  0.00    -0.346 A  
HETATM   13  C   UNL     1     -10.207  15.011  69.823  1.00  0.00    -0.142 A  
HETATM   14  C   UNL     1     -10.672  13.712  69.571  1.00  0.00     0.157 A  
BRANCH  14  15
HETATM   15  N   UNL     1      -9.894  12.848  68.769  1.00  0.00    -0.418 NA 
HETATM   16  H   UNL     1      -9.058  12.491  69.231  1.00  0.00     0.000 HD 
BRANCH  15  17
HETATM   17  C   UNL     1     -10.064  12.384  67.429  1.00  0.00    -0.201 A  
HETATM   18  C   UNL     1      -9.338  11.228  67.045  1.00  0.00    -0.172 A  
HETATM   19  C   UNL     1      -9.565  10.577  65.826  1.00  0.00    -0.260 A  
HETATM   20 CL   UNL     1      -8.121  10.554  68.082  1.00  0.00    -0.110 Cl 
HETATM   21  C   UNL     1     -10.511  11.072  64.942  1.00  0.00    -0.371 A  
HETATM   22  C   UNL     1     -11.169  12.259  65.246  1.00  0.00    -0.372 A  
HETATM   23  C   UNL     1     -10.940  12.927  66.464  1.00  0.00    -0.275 A  
HETATM   24 CL   UNL     1     -11.877  14.365  66.676  1.00  0.00    -0.417 Cl 
ENDBRANCH  15  17
ENDBRANCH  14  15
ENDBRANCH   8   9
ENDBRANCH   6   8
ENDBRANCH   5   6
ENDBRANCH   4   5
TORSDOF 6
ENDMDL
MODEL      186
REMARK 921   NORMALIZED FREE ENERGY PREDICTED BY IDOCK:   -4.81 KCAL/MOL
REMARK 922        TOTAL FREE ENERGY PREDICTED BY IDOCK:   -7.46 KCAL/MOL
REMARK 923 INTER-LIGAND FREE ENERGY PREDICTED BY IDOCK:   -6.47 KCAL/MOL
REMARK 924 INTRA-LIGAND FREE ENERGY PREDICTED BY IDOCK:   -0.99 KCAL/MOL
REMARK 927      BINDING AFFINITY PREDICTED BY RF-SCORE:    0.00 PKD
ROOT
HETATM    1  O   UNL     1     -12.785  13.869  63.791  1.00  0.00    -0.693 OA 
HETATM    2  C   UNL     1     -12.153  14.352  64.889  1.00  0.00    -0.436 C  
HETATM    3  O   UNL     1     -11.297  15.219  64.815  1.00  0.00    -0.409 OA 
HETATM    4  C   UNL     1     -12.628  13.701  66.184  1.00  0.00    -0.335 C  
ENDROOT
BRANCH   4   5
HETATM    5  O   UNL     1     -11.881  14.198  67.302  1.00  0.00    -0.379 OA 
BRANCH   5   6
HETATM    6  C   UNL     1     -11.943  13.459  68.440  1.00  0.00    -0.324 C  
HETATM    7  O   UNL     1     -11.936  13.910  69.574  1.00  0.00    -0.304 OA 
BRANCH   6   8
HETATM    8  C   UNL     1     -12.017  11.982  68.100  1.00  0.00    -0.231 C  
BRANCH   8   9
HETATM    9  C   UNL     1     -11.747  11.066  69.271  1.00  0.00    -0.397 A  
HETATM   10  C   UNL     1     -12.827  10.784  70.133  1.00  0.00    -0.148 A  
HETATM   11  C   UNL     1     -12.678   9.926  71.220  1.00  0.00    -0.482 A  
HETATM   12  C   UNL     1     -11.459   9.302  71.444  1.00  0.00    -0.439 A  
HETATM   13  C   UNL     1     -10.373   9.589  70.615  1.00  0.00    -0.369 A  
HETATM   14  C   UNL     1     -10.481  10.507  69.561  1.00  0.00    -0.235 A  
BRANCH  14  15
HETATM   15  N   UNL     1      -9.314  10.898  68.868  1.00  0.00    -0.254 NA 
HETATM   16  H   UNL     1      -9.135  11.902  68.888  1.00  0.00     0.000 HD 
BRANCH  15  17
HETATM   17  C   UNL     1      -8.340  10.145  68.146  1.00  0.00    -0.117 A  
HETATM   18  C   UNL     1      -7.054  10.014  68.731  1.00  0.00    -0.071 A  
HETATM   19  C   UNL     1      -6.083   9.151  68.211  1.00  0.00    -0.053 A  
HETATM   20 CL   UNL     1      -6.620  10.928  70.142  1.00  0.00    -0.155 Cl 
HETATM   21  C   UNL     1      -6.357   8.405  67.075  1.00  0.00    -0.057 A  
HETATM   22  C   UNL     1      -7.571   8.584  66.421  1.00  0.00    -0.091 A  
HETATM   23  C   UNL     1      -8.550   9.458  66.931  1.00  0.00    -0.127 A  
HETATM   24 CL   UNL     1     -10.006   9.519  65.999  1.00  0.00    -0.359 Cl 
ENDBRANCH  15  17
ENDBRANCH  14  15
ENDBRANCH   8   9
ENDBRANCH   6   8
ENDBRANCH   5   6
ENDBRANCH   4   5
TORSDOF 6
ENDMDL
MODEL      187
REMARK 921   NORMALIZED FREE ENERGY PREDICTED BY IDOCK:   -4.80 KCAL/MOL
REMARK 922        TOTAL FREE ENERGY PREDICTED BY IDOCK:   -7.44 KCAL/MOL
REMARK 923 INTER-LIGAND FREE ENERGY PREDICTED BY IDOCK:   -6.22 KCAL/MOL
REMARK 924 INTRA-LIGAND FREE ENERGY PREDICTED BY IDOCK:   -1.22 KCAL/MOL
REMARK 927      BINDING AFFINITY PREDICTED BY RF-SCORE:    0.00 PKD
ROOT
HETATM    1  O   UNL     1      -5.271  10.449  66.921  1.00  0.00    -0.039 OA 
HETATM    2  C   UNL     1      -6.025  10.620  68.035  1.00  0.00    -0.046 C  
HETATM    3  O   UNL     1      -5.643  11.295  68.978  1.00  0.00    -0.040 OA 
HETATM    4  C   UNL     1      -7.362   9.891  67.966  1.00  0.00    -0.084 C  
ENDROOT
BRANCH   4   5
HETATM    5  O   UNL     1      -8.087  10.049  69.193  1.00  0.00    -0.105 OA 
BRANCH   5   6
HETATM    6  C   UNL     1      -8.639   8.921  69.712  1.00  0.00    -0.134 C  
HETATM    7  O   UNL     1      -8.674   7.835  69.156  1.00  0.00    -0.137 OA 
BRANCH   6   8
HETATM    8  C   UNL     1      -9.214   9.207  71.087  1.00  0.00    -0.301 C  
BRANCH   8   9
HETATM    9  C   UNL     1     -10.709   9.432  71.094  1.00  0.00    -0.417 A  
HETATM   10  C   UNL     1     -11.510   8.433  71.686  1.00  0.00    -0.349 A  
HETATM   11  C   UNL     1     -12.893   8.571  71.765  1.00  0.00    -0.380 A  
HETATM   12  C   UNL     1     -13.500   9.725  71.291  1.00  0.00    -0.362 A  
HETATM   13  C   UNL     1     -12.725  10.712  70.680  1.00  0.00    -0.445 A  
HETATM   14  C   UNL     1     -11.340  10.560  70.523  1.00  0.00    -0.314 A  
BRANCH  14  15
HETATM   15  N   UNL     1     -10.630  11.499  69.741  1.00  0.00    -0.395 NA 
HETATM   16  H   UNL     1      -9.641  11.573  69.976  1.00  0.00     0.000 HD 
BRANCH  15  17
HETATM   17  C   UNL     1     -11.045  12.362  68.683  1.00  0.00    -0.257 A  
HETATM   18  C   UNL     1     -11.220  11.783  67.401  1.00  0.00    -0.297 A  
HETATM   19  C   UNL     1     -11.799  12.485  66.337  1.00  0.00    -0.445 A  
HETATM   20 CL   UNL     1     -10.720  10.151  67.085  1.00  0.00    -0.305 Cl 
HETATM   21  C   UNL     1     -12.205  13.799  66.515  1.00  0.00    -0.475 A  
HETATM   22  C   UNL     1     -11.958  14.428  67.731  1.00  0.00    -0.368 A  
HETATM   23  C   UNL     1     -11.366  13.732  68.802  1.00  0.00    -0.283 A  
HETATM   24 CL   UNL     1     -11.173  14.672  70.242  1.00  0.00    -0.239 Cl 
ENDBRANCH  15  17
ENDBRANCH  14  15
ENDBRANCH   8   9
ENDBRANCH   6   8
ENDBRANCH   5   6
ENDBRANCH   4   5
TORSDOF 6
ENDMDL
MODEL      188
REMARK 921   NORMALIZED FREE ENERGY PREDICTED BY IDOCK:   -4.79 KCAL/MOL
REMARK 922        TOTAL FREE ENERGY PREDICTED BY IDOCK:   -7.43 KCAL/MOL
REMARK 923 INTER-LIGAND FREE ENERGY PREDICTED BY IDOCK:   -6.35 KCAL/MOL
REMARK 924 INTRA-LIGAND FREE ENERGY PREDICTED BY IDOCK:   -1.08 KCAL/MOL
REMARK 927      BINDING AFFINITY PREDICTED BY RF-SCORE:    0.00 PKD
ROOT
HETATM    1  O   UNL     1      -7.408  18.209  65.380  1.00  0.00    -0.520 OA 
HETATM    2  C   UNL     1      -8.062  17.774  66.484  1.00  0.00    -0.272 C  
HETATM    3  O   UNL     1      -7.920  18.308  67.573  1.00  0.00    -0.228 OA 
HETATM    4  C   UNL     1      -8.965  16.577  66.209  1.00  0.00    -0.324 C  
ENDROOT
BRANCH   4   5
HETATM    5  O   UNL     1      -9.577  16.117  67.421  1.00  0.00    -0.226 OA 
BRANCH   5   6
HETATM    6  C   UNL     1      -8.874  15.199  68.135  1.00  0.00    -0.169 C  
HETATM    7  O   UNL     1      -8.591  15.294  69.318  1.00  0.00    -0.219 OA 
BRANCH   6   8
HETATM    8  C   UNL     1      -8.484  14.032  67.245  1.00  0.00    -0.220 C  
BRANCH   8   9
HETATM    9  C   UNL     1      -8.331  12.721  67.981  1.00  0.00    -0.173 A  
HETATM   10  C   UNL     1      -7.065  12.433  68.531  1.00  0.00    -0.100 A  
HETATM   11  C   UNL     1      -6.841  11.262  69.252  1.00  0.00    -0.116 A  
HETATM   12  C   UNL     1      -7.886  10.376  69.471  1.00  0.00    -0.161 A  
HETATM   13  C   UNL     1      -9.139  10.634  68.912  1.00  0.00    -0.181 A  
HETATM   14  C   UNL     1      -9.367  11.769  68.120  1.00  0.00    -0.190 A  
BRANCH  14  15
HETATM   15  N   UNL     1     -10.594  11.891  67.432  1.00  0.00    -0.219 NA 
HETATM   16  H   UNL     1     -11.408  11.961  68.042  1.00  0.00     0.000 HD 
BRANCH  15  17
HETATM   17  C   UNL     1     -10.902  11.935  66.039  1.00  0.00    -0.299 A  
HETATM   18  C   UNL     1     -11.646  13.048  65.572  1.00  0.00    -0.347 A  
HETATM   19  C   UNL     1     -11.846  13.293  64.208  1.00  0.00    -0.469 A  
HETATM   20 CL   UNL     1     -12.351  14.179  66.685  1.00  0.00    -0.456 Cl 
HETATM   21  C   UNL     1     -11.325  12.419  63.265  1.00  0.00    -0.399 A  
HETATM   22  C   UNL     1     -10.676  11.266  63.693  1.00  0.00    -0.438 A  
HETATM   23  C   UNL     1     -10.480  11.007  65.062  1.00  0.00    -0.277 A  
HETATM   24 CL   UNL     1      -9.622   9.542  65.395  1.00  0.00    -0.354 Cl 
ENDBRANCH  15  17
ENDBRANCH  14  15
ENDBRANCH   8   9
ENDBRANCH   6   8
ENDBRANCH   5   6
ENDBRANCH   4   5
TORSDOF 6
ENDMDL
MODEL      189
REMARK 921   NORMALIZED FREE ENERGY PREDICTED BY IDOCK:   -4.78 KCAL/MOL
REMARK 922        TOTAL FREE ENERGY PREDICTED BY IDOCK:   -7.42 KCAL/MOL
REMARK 923 INTER-LIGAND FREE ENERGY PREDICTED BY IDOCK:   -6.48 KCAL/MOL
REMARK 924 INTRA-LIGAND FREE ENERGY PREDICTED BY IDOCK:   -0.94 KCAL/MOL
REMARK 927      BINDING AFFINITY PREDICTED BY RF-SCORE:    0.00 PKD
ROOT
HETATM    1  O   UNL     1     -10.083  16.937  66.970  1.00  0.00    -0.274 OA 
HETATM    2  C   UNL     1     -10.628  17.003  68.209  1.00  0.00    -0.372 C  
HETATM    3  O   UNL     1     -10.361  17.906  68.987  1.00  0.00    -0.361 OA 
HETATM    4  C   UNL     1     -11.584  15.852  68.502  1.00  0.00    -0.349 C  
ENDROOT
BRANCH   4   5
HETATM    5  O   UNL     1     -12.077  15.934  69.845  1.00  0.00    -0.326 OA 
BRANCH   5   6
HETATM    6  C   UNL     1     -12.101  14.771  70.547  1.00  0.00    -0.315 C  
HETATM    7  O   UNL     1     -11.856  14.662  71.737  1.00  0.00    -0.338 OA 
BRANCH   6   8
HETATM    8  C   UNL     1     -12.472  13.617  69.633  1.00  0.00    -0.145 C  
BRANCH   8   9
HETATM    9  C   UNL     1     -12.205  12.253  70.224  1.00  0.00    -0.342 A  
HETATM   10  C   UNL     1     -13.088  11.798  71.225  1.00  0.00    -0.237 A  
HETATM   11  C   UNL     1     -12.937  10.540  71.804  1.00  0.00    -0.582 A  
HETATM   12  C   UNL     1     -11.925   9.697  71.367  1.00  0.00    -0.480 A  
HETATM   13  C   UNL     1     -11.027  10.142  70.396  1.00  0.00    -0.386 A  
HETATM   14  C   UNL     1     -11.116  11.432  69.853  1.00  0.00    -0.059 A  
BRANCH  14  15
HETATM   15  N   UNL     1     -10.081  11.895  69.012  1.00  0.00    -0.419 NA 
HETATM   16  H   UNL     1      -9.731  12.822  69.254  1.00  0.00     0.000 HD 
BRANCH  15  17
HETATM   17  C   UNL     1      -9.436  11.305  67.884  1.00  0.00    -0.178 A  
HETATM   18  C   UNL     1      -9.982  11.579  66.604  1.00  0.00    -0.207 A  
HETATM   19  C   UNL     1      -9.331  11.212  65.421  1.00  0.00    -0.243 A  
HETATM   20 CL   UNL     1     -11.504  12.398  66.442  1.00  0.00    -0.403 Cl 
HETATM   21  C   UNL     1      -8.120  10.539  65.477  1.00  0.00    -0.155 A  
HETATM   22  C   UNL     1      -7.606  10.168  66.715  1.00  0.00    -0.105 A  
HETATM   23  C   UNL     1      -8.259  10.524  67.910  1.00  0.00    -0.107 A  
HETATM   24 CL   UNL     1      -7.449  10.005  69.348  1.00  0.00    -0.099 Cl 
ENDBRANCH  15  17
ENDBRANCH  14  15
ENDBRANCH   8   9
ENDBRANCH   6   8
ENDBRANCH   5   6
ENDBRANCH   4   5
TORSDOF 6
ENDMDL
MODEL      190
REMARK 921   NORMALIZED FREE ENERGY PREDICTED BY IDOCK:   -4.78 KCAL/MOL
REMARK 922        TOTAL FREE ENERGY PREDICTED BY IDOCK:   -7.42 KCAL/MOL
REMARK 923 INTER-LIGAND FREE ENERGY PREDICTED BY IDOCK:   -6.83 KCAL/MOL
REMARK 924 INTRA-LIGAND FREE ENERGY PREDICTED BY IDOCK:   -0.59 KCAL/MOL
REMARK 927      BINDING AFFINITY PREDICTED BY RF-SCORE:    0.00 PKD
ROOT
HETATM    1  O   UNL     1     -12.679  14.016  63.320  1.00  0.00    -0.750 OA 
HETATM    2  C   UNL     1     -12.280  12.727  63.449  1.00  0.00    -0.504 C  
HETATM    3  O   UNL     1     -13.063  11.795  63.359  1.00  0.00    -0.622 OA 
HETATM    4  C   UNL     1     -10.785  12.590  63.712  1.00  0.00    -0.445 C  
ENDROOT
BRANCH   4   5
HETATM    5  O   UNL     1     -10.431  11.215  63.907  1.00  0.00    -0.342 OA 
BRANCH   5   6
HETATM    6  C   UNL     1     -10.396  10.783  65.195  1.00  0.00    -0.271 C  
HETATM    7  O   UNL     1     -10.275   9.620  65.544  1.00  0.00    -0.228 OA 
BRANCH   6   8
HETATM    8  C   UNL     1     -10.536  11.959  66.144  1.00  0.00    -0.295 C  
BRANCH   8   9
HETATM    9  C   UNL     1      -9.244  12.367  66.814  1.00  0.00    -0.212 A  
HETATM   10  C   UNL     1      -8.144  11.495  66.681  1.00  0.00    -0.139 A  
HETATM   11  C   UNL     1      -6.906  11.805  67.239  1.00  0.00    -0.134 A  
HETATM   12  C   UNL     1      -6.732  13.008  67.906  1.00  0.00    -0.129 A  
HETATM   13  C   UNL     1      -7.817  13.871  68.070  1.00  0.00    -0.154 A  
HETATM   14  C   UNL     1      -9.090  13.544  67.581  1.00  0.00    -0.205 A  
BRANCH  14  15
HETATM   15  N   UNL     1     -10.190  14.361  67.927  1.00  0.00    -0.230 NA 
HETATM   16  H   UNL     1     -11.017  13.842  68.221  1.00  0.00     0.000 HD 
BRANCH  15  17
HETATM   17  C   UNL     1     -10.354  15.778  67.941  1.00  0.00    -0.261 A  
HETATM   18  C   UNL     1     -10.433  16.412  69.208  1.00  0.00    -0.303 A  
HETATM   19  C   UNL     1     -10.407  17.804  69.348  1.00  0.00     0.054 A  
HETATM   20 CL   UNL     1     -10.565  15.478  70.665  1.00  0.00    -0.276 Cl 
HETATM   21  C   UNL     1     -10.321  18.612  68.224  1.00  0.00    -0.388 A  
HETATM   22  C   UNL     1     -10.341  18.025  66.963  1.00  0.00    -0.377 A  
HETATM   23  C   UNL     1     -10.378  16.626  66.812  1.00  0.00    -0.295 A  
HETATM   24 CL   UNL     1     -10.361  16.086  65.169  1.00  0.00    -0.325 Cl 
ENDBRANCH  15  17
ENDBRANCH  14  15
ENDBRANCH   8   9
ENDBRANCH   6   8
ENDBRANCH   5   6
ENDBRANCH   4   5
TORSDOF 6
ENDMDL
MODEL      191
REMARK 921   NORMALIZED FREE ENERGY PREDICTED BY IDOCK:   -4.78 KCAL/MOL
REMARK 922        TOTAL FREE ENERGY PREDICTED BY IDOCK:   -7.42 KCAL/MOL
REMARK 923 INTER-LIGAND FREE ENERGY PREDICTED BY IDOCK:   -6.57 KCAL/MOL
REMARK 924 INTRA-LIGAND FREE ENERGY PREDICTED BY IDOCK:   -0.85 KCAL/MOL
REMARK 927      BINDING AFFINITY PREDICTED BY RF-SCORE:    0.00 PKD
ROOT
HETATM    1  O   UNL     1     -13.583  12.020  72.232  1.00  0.00    -0.397 OA 
HETATM    2  C   UNL     1     -13.096  10.864  71.719  1.00  0.00    -0.459 C  
HETATM    3  O   UNL     1     -13.543   9.774  72.040  1.00  0.00    -0.399 OA 
HETATM    4  C   UNL     1     -11.961  11.085  70.725  1.00  0.00    -0.333 C  
ENDROOT
BRANCH   4   5
HETATM    5  O   UNL     1     -11.440   9.831  70.267  1.00  0.00    -0.253 OA 
BRANCH   5   6
HETATM    6  C   UNL     1     -10.497   9.894  69.292  1.00  0.00    -0.221 C  
HETATM    7  O   UNL     1      -9.327  10.199  69.463  1.00  0.00    -0.210 OA 
BRANCH   6   8
HETATM    8  C   UNL     1     -11.108   9.538  67.949  1.00  0.00    -0.053 C  
BRANCH   8   9
HETATM    9  C   UNL     1     -10.132   9.582  66.796  1.00  0.00    -0.312 A  
HETATM   10  C   UNL     1      -9.098   8.623  66.788  1.00  0.00    -0.183 A  
HETATM   11  C   UNL     1      -8.171   8.570  65.750  1.00  0.00    -0.125 A  
HETATM   12  C   UNL     1      -8.283   9.447  64.680  1.00  0.00    -0.148 A  
HETATM   13  C   UNL     1      -9.285  10.418  64.685  1.00  0.00    -0.282 A  
HETATM   14  C   UNL     1     -10.182  10.537  65.756  1.00  0.00    -0.243 A  
BRANCH  14  15
HETATM   15  N   UNL     1     -11.058  11.645  65.798  1.00  0.00    -0.287 NA 
HETATM   16  H   UNL     1     -12.038  11.395  65.927  1.00  0.00     0.000 HD 
BRANCH  15  17
HETATM   17  C   UNL     1     -10.822  13.048  65.692  1.00  0.00    -0.273 A  
HETATM   18  C   UNL     1     -11.446  13.734  64.619  1.00  0.00    -0.371 A  
HETATM   19  C   UNL     1     -11.440  15.130  64.522  1.00  0.00    -0.319 A  
HETATM   20 CL   UNL     1     -12.262  12.862  63.359  1.00  0.00    -0.613 Cl 
HETATM   21  C   UNL     1     -10.792  15.888  65.486  1.00  0.00    -0.325 A  
HETATM   22  C   UNL     1     -10.087  15.243  66.496  1.00  0.00    -0.280 A  
HETATM   23  C   UNL     1     -10.078  13.839  66.595  1.00  0.00    -0.277 A  
HETATM   24 CL   UNL     1      -9.177  13.224  67.938  1.00  0.00    -0.205 Cl 
ENDBRANCH  15  17
ENDBRANCH  14  15
ENDBRANCH   8   9
ENDBRANCH   6   8
ENDBRANCH   5   6
ENDBRANCH   4   5
TORSDOF 6
ENDMDL
MODEL      192
REMARK 921   NORMALIZED FREE ENERGY PREDICTED BY IDOCK:   -4.78 KCAL/MOL
REMARK 922        TOTAL FREE ENERGY PREDICTED BY IDOCK:   -7.42 KCAL/MOL
REMARK 923 INTER-LIGAND FREE ENERGY PREDICTED BY IDOCK:   -6.15 KCAL/MOL
REMARK 924 INTRA-LIGAND FREE ENERGY PREDICTED BY IDOCK:   -1.27 KCAL/MOL
REMARK 927      BINDING AFFINITY PREDICTED BY RF-SCORE:    0.00 PKD
ROOT
HETATM    1  O   UNL     1     -11.570   6.663  70.187  1.00  0.00    -0.382 OA 
HETATM    2  C   UNL     1     -10.989   7.830  70.559  1.00  0.00    -0.245 C  
HETATM    3  O   UNL     1     -10.725   8.080  71.724  1.00  0.00    -0.223 OA 
HETATM    4  C   UNL     1     -10.717   8.761  69.382  1.00  0.00    -0.169 C  
ENDROOT
BRANCH   4   5
HETATM    5  O   UNL     1     -10.167  10.004  69.838  1.00  0.00    -0.239 OA 
BRANCH   5   6
HETATM    6  C   UNL     1      -8.879  10.254  69.488  1.00  0.00    -0.148 C  
HETATM    7  O   UNL     1      -7.921   9.560  69.788  1.00  0.00    -0.101 OA 
BRANCH   6   8
HETATM    8  C   UNL     1      -8.798  11.530  68.669  1.00  0.00    -0.108 C  
BRANCH   8   9
HETATM    9  C   UNL     1      -9.347  11.398  67.268  1.00  0.00    -0.173 A  
HETATM   10  C   UNL     1      -8.434  11.076  66.243  1.00  0.00    -0.165 A  
HETATM   11  C   UNL     1      -8.856  10.905  64.927  1.00  0.00    -0.127 A  
HETATM   12  C   UNL     1     -10.204  11.012  64.616  1.00  0.00    -0.392 A  
HETATM   13  C   UNL     1     -11.118  11.355  65.613  1.00  0.00    -0.207 A  
HETATM   14  C   UNL     1     -10.704  11.605  66.929  1.00  0.00    -0.257 A  
BRANCH  14  15
HETATM   15  N   UNL     1     -11.636  12.123  67.856  1.00  0.00    -0.333 NA 
HETATM   16  H   UNL     1     -12.348  11.454  68.147  1.00  0.00     0.000 HD 
BRANCH  15  17
HETATM   17  C   UNL     1     -11.764  13.411  68.458  1.00  0.00    -0.357 A  
HETATM   18  C   UNL     1     -12.073  13.454  69.841  1.00  0.00    -0.322 A  
HETATM   19  C   UNL     1     -12.039  14.645  70.576  1.00  0.00    -0.388 A  
HETATM   20 CL   UNL     1     -12.510  12.012  70.702  1.00  0.00    -0.375 Cl 
HETATM   21  C   UNL     1     -11.714  15.838  69.947  1.00  0.00    -0.365 A  
HETATM   22  C   UNL     1     -11.502  15.844  68.572  1.00  0.00    -0.377 A  
HETATM   23  C   UNL     1     -11.545  14.653  67.824  1.00  0.00    -0.359 A  
HETATM   24 CL   UNL     1     -11.221  14.859  66.137  1.00  0.00    -0.336 Cl 
ENDBRANCH  15  17
ENDBRANCH  14  15
ENDBRANCH   8   9
ENDBRANCH   6   8
ENDBRANCH   5   6
ENDBRANCH   4   5
TORSDOF 6
ENDMDL
MODEL      193
REMARK 921   NORMALIZED FREE ENERGY PREDICTED BY IDOCK:   -4.77 KCAL/MOL
REMARK 922        TOTAL FREE ENERGY PREDICTED BY IDOCK:   -7.41 KCAL/MOL
REMARK 923 INTER-LIGAND FREE ENERGY PREDICTED BY IDOCK:   -6.31 KCAL/MOL
REMARK 924 INTRA-LIGAND FREE ENERGY PREDICTED BY IDOCK:   -1.10 KCAL/MOL
REMARK 927      BINDING AFFINITY PREDICTED BY RF-SCORE:    0.00 PKD
ROOT
HETATM    1  O   UNL     1     -10.798   7.292  67.403  1.00  0.00    -0.274 OA 
HETATM    2  C   UNL     1     -10.101   8.314  67.957  1.00  0.00    -0.198 C  
HETATM    3  O   UNL     1      -9.065   8.131  68.576  1.00  0.00    -0.137 OA 
HETATM    4  C   UNL     1     -10.747   9.674  67.718  1.00  0.00    -0.257 C  
ENDROOT
BRANCH   4   5
HETATM    5  O   UNL     1     -10.008  10.708  68.382  1.00  0.00    -0.154 OA 
BRANCH   5   6
HETATM    6  C   UNL     1      -9.360  11.591  67.577  1.00  0.00    -0.166 C  
HETATM    7  O   UNL     1      -8.474  11.305  66.789  1.00  0.00    -0.150 OA 
BRANCH   6   8
HETATM    8  C   UNL     1      -9.893  12.994  67.805  1.00  0.00    -0.224 C  
BRANCH   8   9
HETATM    9  C   UNL     1     -10.627  13.573  66.618  1.00  0.00    -0.280 A  
HETATM   10  C   UNL     1     -11.822  12.937  66.224  1.00  0.00    -0.477 A  
HETATM   11  C   UNL     1     -12.580  13.420  65.160  1.00  0.00    -0.495 A  
HETATM   12  C   UNL     1     -12.182  14.571  64.496  1.00  0.00    -0.483 A  
HETATM   13  C   UNL     1     -10.988  15.199  64.857  1.00  0.00    -0.434 A  
HETATM   14  C   UNL     1     -10.172  14.686  65.876  1.00  0.00    -0.326 A  
BRANCH  14  15
HETATM   15  N   UNL     1      -8.893  15.250  66.080  1.00  0.00    -0.463 NA 
HETATM   16  H   UNL     1      -8.213  15.011  65.359  1.00  0.00     0.000 HD 
BRANCH  15  17
HETATM   17  C   UNL     1      -8.380  16.094  67.111  1.00  0.00    -0.197 A  
HETATM   18  C   UNL     1      -7.182  15.685  67.750  1.00  0.00    -0.155 A  
HETATM   19  C   UNL     1      -6.489  16.516  68.638  1.00  0.00    -0.142 A  
HETATM   20 CL   UNL     1      -6.507  14.113  67.455  1.00  0.00    -0.145 Cl 
HETATM   21  C   UNL     1      -6.982  17.778  68.932  1.00  0.00    -0.250 A  
HETATM   22  C   UNL     1      -8.204  18.171  68.398  1.00  0.00    -0.314 A  
HETATM   23  C   UNL     1      -8.914  17.338  67.513  1.00  0.00    -0.222 A  
HETATM   24 CL   UNL     1     -10.394  18.015  66.928  1.00  0.00    -0.368 Cl 
ENDBRANCH  15  17
ENDBRANCH  14  15
ENDBRANCH   8   9
ENDBRANCH   6   8
ENDBRANCH   5   6
ENDBRANCH   4   5
TORSDOF 6
ENDMDL
MODEL      194
REMARK 921   NORMALIZED FREE ENERGY PREDICTED BY IDOCK:   -4.77 KCAL/MOL
REMARK 922        TOTAL FREE ENERGY PREDICTED BY IDOCK:   -7.40 KCAL/MOL
REMARK 923 INTER-LIGAND FREE ENERGY PREDICTED BY IDOCK:   -6.42 KCAL/MOL
REMARK 924 INTRA-LIGAND FREE ENERGY PREDICTED BY IDOCK:   -0.98 KCAL/MOL
REMARK 927      BINDING AFFINITY PREDICTED BY RF-SCORE:    0.00 PKD
ROOT
HETATM    1  O   UNL     1     -11.874   8.183  72.934  1.00  0.00    -0.352 OA 
HETATM    2  C   UNL     1     -11.689   8.246  71.592  1.00  0.00    -0.292 C  
HETATM    3  O   UNL     1     -11.985   7.320  70.854  1.00  0.00    -0.316 OA 
HETATM    4  C   UNL     1     -11.084   9.569  71.136  1.00  0.00    -0.379 C  
ENDROOT
BRANCH   4   5
HETATM    5  O   UNL     1     -10.847   9.554  69.722  1.00  0.00    -0.231 OA 
BRANCH   5   6
HETATM    6  C   UNL     1     -10.988  10.743  69.079  1.00  0.00    -0.240 C  
HETATM    7  O   UNL     1     -11.999  11.425  69.074  1.00  0.00    -0.329 OA 
BRANCH   6   8
HETATM    8  C   UNL     1      -9.701  11.101  68.356  1.00  0.00    -0.191 C  
BRANCH   8   9
HETATM    9  C   UNL     1      -9.853  11.235  66.859  1.00  0.00    -0.220 A  
HETATM   10  C   UNL     1      -9.737  10.059  66.090  1.00  0.00    -0.286 A  
HETATM   11  C   UNL     1      -9.893  10.083  64.706  1.00  0.00    -0.325 A  
HETATM   12  C   UNL     1     -10.208  11.274  64.068  1.00  0.00    -0.403 A  
HETATM   13  C   UNL     1     -10.302  12.452  64.811  1.00  0.00    -0.324 A  
HETATM   14  C   UNL     1     -10.074  12.463  66.195  1.00  0.00    -0.248 A  
BRANCH  14  15
HETATM   15  N   UNL     1     -10.003  13.702  66.869  1.00  0.00    -0.254 NA 
HETATM   16  H   UNL     1     -10.775  13.870  67.514  1.00  0.00     0.000 HD 
BRANCH  15  17
HETATM   17  C   UNL     1      -9.048  14.762  66.813  1.00  0.00    -0.267 A  
HETATM   18  C   UNL     1      -9.405  15.921  66.077  1.00  0.00    -0.349 A  
HETATM   19  C   UNL     1      -8.634  17.089  66.106  1.00  0.00    -0.252 A  
HETATM   20 CL   UNL     1     -10.836  15.947  65.095  1.00  0.00    -0.443 Cl 
HETATM   21  C   UNL     1      -7.469  17.131  66.856  1.00  0.00    -0.239 A  
HETATM   22  C   UNL     1      -7.040  15.980  67.510  1.00  0.00    -0.199 A  
HETATM   23  C   UNL     1      -7.803  14.798  67.477  1.00  0.00    -0.188 A  
HETATM   24 CL   UNL     1      -7.124  13.487  68.378  1.00  0.00    -0.097 Cl 
ENDBRANCH  15  17
ENDBRANCH  14  15
ENDBRANCH   8   9
ENDBRANCH   6   8
ENDBRANCH   5   6
ENDBRANCH   4   5
TORSDOF 6
ENDMDL
MODEL      195
REMARK 921   NORMALIZED FREE ENERGY PREDICTED BY IDOCK:   -4.77 KCAL/MOL
REMARK 922        TOTAL FREE ENERGY PREDICTED BY IDOCK:   -7.40 KCAL/MOL
REMARK 923 INTER-LIGAND FREE ENERGY PREDICTED BY IDOCK:   -6.26 KCAL/MOL
REMARK 924 INTRA-LIGAND FREE ENERGY PREDICTED BY IDOCK:   -1.14 KCAL/MOL
REMARK 927      BINDING AFFINITY PREDICTED BY RF-SCORE:    0.00 PKD
ROOT
HETATM    1  O   UNL     1      -9.438   5.895  65.875  1.00  0.00    -0.118 OA 
HETATM    2  C   UNL     1     -10.119   6.755  66.672  1.00  0.00    -0.136 C  
HETATM    3  O   UNL     1     -11.025   6.383  67.401  1.00  0.00    -0.326 OA 
HETATM    4  C   UNL     1      -9.630   8.194  66.548  1.00  0.00    -0.234 C  
ENDROOT
BRANCH   4   5
HETATM    5  O   UNL     1     -10.427   9.068  67.358  1.00  0.00    -0.249 OA 
BRANCH   5   6
HETATM    6  C   UNL     1      -9.904  10.297  67.607  1.00  0.00    -0.171 C  
HETATM    7  O   UNL     1      -9.982  10.894  68.669  1.00  0.00    -0.174 OA 
BRANCH   6   8
HETATM    8  C   UNL     1      -9.209  10.830  66.366  1.00  0.00    -0.191 C  
BRANCH   8   9
HETATM    9  C   UNL     1     -10.036  11.816  65.574  1.00  0.00    -0.273 A  
HETATM   10  C   UNL     1     -10.586  11.366  64.355  1.00  0.00    -0.403 A  
HETATM   11  C   UNL     1     -11.385  12.197  63.574  1.00  0.00    -0.535 A  
HETATM   12  C   UNL     1     -11.684  13.478  64.014  1.00  0.00    -0.440 A  
HETATM   13  C   UNL     1     -11.128  13.948  65.204  1.00  0.00    -0.334 A  
HETATM   14  C   UNL     1     -10.260  13.154  65.968  1.00  0.00    -0.286 A  
BRANCH  14  15
HETATM   15  N   UNL     1      -9.583  13.735  67.064  1.00  0.00    -0.243 NA 
HETATM   16  H   UNL     1      -8.744  13.231  67.349  1.00  0.00     0.000 HD 
BRANCH  15  17
HETATM   17  C   UNL     1      -9.860  14.898  67.844  1.00  0.00    -0.214 A  
HETATM   18  C   UNL     1      -8.995  16.011  67.682  1.00  0.00    -0.190 A  
HETATM   19  C   UNL     1      -9.273  17.260  68.249  1.00  0.00    -0.265 A  
HETATM   20 CL   UNL     1      -7.533  15.875  66.758  1.00  0.00    -0.231 Cl 
HETATM   21  C   UNL     1     -10.417  17.433  69.015  1.00  0.00    -0.285 A  
HETATM   22  C   UNL     1     -11.233  16.337  69.274  1.00  0.00    -0.312 A  
HETATM   23  C   UNL     1     -10.955  15.075  68.717  1.00  0.00    -0.255 A  
HETATM   24 CL   UNL     1     -12.104  13.847  69.125  1.00  0.00    -0.393 Cl 
ENDBRANCH  15  17
ENDBRANCH  14  15
ENDBRANCH   8   9
ENDBRANCH   6   8
ENDBRANCH   5   6
ENDBRANCH   4   5
TORSDOF 6
ENDMDL
MODEL      196
REMARK 921   NORMALIZED FREE ENERGY PREDICTED BY IDOCK:   -4.76 KCAL/MOL
REMARK 922        TOTAL FREE ENERGY PREDICTED BY IDOCK:   -7.40 KCAL/MOL
REMARK 923 INTER-LIGAND FREE ENERGY PREDICTED BY IDOCK:   -6.93 KCAL/MOL
REMARK 924 INTRA-LIGAND FREE ENERGY PREDICTED BY IDOCK:   -0.47 KCAL/MOL
REMARK 927      BINDING AFFINITY PREDICTED BY RF-SCORE:    0.00 PKD
ROOT
HETATM    1  O   UNL     1     -14.094  13.448  72.805  1.00  0.00    -0.715 OA 
HETATM    2  C   UNL     1     -13.228  12.988  71.870  1.00  0.00    -0.430 C  
HETATM    3  O   UNL     1     -13.177  11.808  71.559  1.00  0.00    -0.361 OA 
HETATM    4  C   UNL     1     -12.354  14.087  71.275  1.00  0.00    -0.355 C  
ENDROOT
BRANCH   4   5
HETATM    5  O   UNL     1     -11.413  13.536  70.345  1.00  0.00    -0.080 OA 
BRANCH   5   6
HETATM    6  C   UNL     1     -11.455  14.036  69.082  1.00  0.00    -0.296 C  
HETATM    7  O   UNL     1     -11.101  15.158  68.758  1.00  0.00    -0.243 OA 
BRANCH   6   8
HETATM    8  C   UNL     1     -12.016  12.998  68.127  1.00  0.00    -0.322 C  
BRANCH   8   9
HETATM    9  C   UNL     1     -11.143  11.775  67.965  1.00  0.00    -0.297 A  
HETATM   10  C   UNL     1     -11.286  10.748  68.920  1.00  0.00    -0.328 A  
HETATM   11  C   UNL     1     -10.544   9.572  68.832  1.00  0.00    -0.239 A  
HETATM   12  C   UNL     1      -9.676   9.383  67.767  1.00  0.00    -0.182 A  
HETATM   13  C   UNL     1      -9.503  10.400  66.827  1.00  0.00    -0.198 A  
HETATM   14  C   UNL     1     -10.184  11.621  66.938  1.00  0.00    -0.214 A  
BRANCH  14  15
HETATM   15  N   UNL     1      -9.841  12.680  66.069  1.00  0.00    -0.259 NA 
HETATM   16  H   UNL     1      -8.860  12.689  65.791  1.00  0.00     0.000 HD 
BRANCH  15  17
HETATM   17  C   UNL     1     -10.616  13.740  65.510  1.00  0.00    -0.307 A  
HETATM   18  C   UNL     1     -10.107  15.058  65.640  1.00  0.00    -0.362 A  
HETATM   19  C   UNL     1     -10.680  16.148  64.975  1.00  0.00    -0.359 A  
HETATM   20 CL   UNL     1      -8.728  15.384  66.642  1.00  0.00    -0.312 Cl 
HETATM   21  C   UNL     1     -11.795  15.961  64.172  1.00  0.00     0.025 A  
HETATM   22  C   UNL     1     -12.377  14.700  64.101  1.00  0.00    -0.294 A  
HETATM   23  C   UNL     1     -11.814  13.600  64.776  1.00  0.00    -0.387 A  
HETATM   24 CL   UNL     1     -12.659  12.109  64.538  1.00  0.00    -0.416 Cl 
ENDBRANCH  15  17
ENDBRANCH  14  15
ENDBRANCH   8   9
ENDBRANCH   6   8
ENDBRANCH   5   6
ENDBRANCH   4   5
TORSDOF 6
ENDMDL
MODEL      197
REMARK 921   NORMALIZED FREE ENERGY PREDICTED BY IDOCK:   -4.74 KCAL/MOL
REMARK 922        TOTAL FREE ENERGY PREDICTED BY IDOCK:   -7.37 KCAL/MOL
REMARK 923 INTER-LIGAND FREE ENERGY PREDICTED BY IDOCK:   -6.36 KCAL/MOL
REMARK 924 INTRA-LIGAND FREE ENERGY PREDICTED BY IDOCK:   -1.01 KCAL/MOL
REMARK 927      BINDING AFFINITY PREDICTED BY RF-SCORE:    0.00 PKD
ROOT
HETATM    1  O   UNL     1      -6.031   8.278  64.675  1.00  0.00    -0.054 OA 
HETATM    2  C   UNL     1      -7.147   8.973  65.004  1.00  0.00    -0.087 C  
HETATM    3  O   UNL     1      -7.140  10.187  65.137  1.00  0.00    -0.130 OA 
HETATM    4  C   UNL     1      -8.372   8.082  65.182  1.00  0.00    -0.130 C  
ENDROOT
BRANCH   4   5
HETATM    5  O   UNL     1      -9.505   8.858  65.595  1.00  0.00    -0.229 OA 
BRANCH   5   6
HETATM    6  C   UNL     1     -10.006   8.578  66.827  1.00  0.00    -0.281 C  
HETATM    7  O   UNL     1     -10.813   7.697  67.075  1.00  0.00    -0.334 OA 
BRANCH   6   8
HETATM    8  C   UNL     1      -9.420   9.527  67.857  1.00  0.00    -0.149 C  
BRANCH   8   9
HETATM    9  C   UNL     1     -10.453  10.329  68.613  1.00  0.00    -0.215 A  
HETATM   10  C   UNL     1     -10.770   9.905  69.920  1.00  0.00    -0.318 A  
HETATM   11  C   UNL     1     -11.689  10.602  70.702  1.00  0.00    -0.454 A  
HETATM   12  C   UNL     1     -12.278  11.757  70.208  1.00  0.00    -0.381 A  
HETATM   13  C   UNL     1     -11.994  12.176  68.908  1.00  0.00    -0.296 A  
HETATM   14  C   UNL     1     -11.130  11.448  68.077  1.00  0.00    -0.257 A  
BRANCH  14  15
HETATM   15  N   UNL     1     -11.018  11.810  66.717  1.00  0.00    -0.274 NA 
HETATM   16  H   UNL     1     -11.064  11.022  66.071  1.00  0.00     0.000 HD 
BRANCH  15  17
HETATM   17  C   UNL     1     -10.850  13.077  66.081  1.00  0.00    -0.279 A  
HETATM   18  C   UNL     1     -11.758  13.409  65.043  1.00  0.00    -0.325 A  
HETATM   19  C   UNL     1     -11.809  14.689  64.478  1.00  0.00    -0.442 A  
HETATM   20 CL   UNL     1     -12.867  12.230  64.418  1.00  0.00    -0.427 Cl 
HETATM   21  C   UNL     1     -10.939  15.675  64.919  1.00  0.00    -0.447 A  
HETATM   22  C   UNL     1      -9.972  15.354  65.865  1.00  0.00    -0.374 A  
HETATM   23  C   UNL     1      -9.906  14.067  66.430  1.00  0.00    -0.296 A  
HETATM   24 CL   UNL     1      -8.659  13.871  67.613  1.00  0.00    -0.177 Cl 
ENDBRANCH  15  17
ENDBRANCH  14  15
ENDBRANCH   8   9
ENDBRANCH   6   8
ENDBRANCH   5   6
ENDBRANCH   4   5
TORSDOF 6
ENDMDL
MODEL      198
REMARK 921   NORMALIZED FREE ENERGY PREDICTED BY IDOCK:   -4.72 KCAL/MOL
REMARK 922        TOTAL FREE ENERGY PREDICTED BY IDOCK:   -7.33 KCAL/MOL
REMARK 923 INTER-LIGAND FREE ENERGY PREDICTED BY IDOCK:   -6.49 KCAL/MOL
REMARK 924 INTRA-LIGAND FREE ENERGY PREDICTED BY IDOCK:   -0.84 KCAL/MOL
REMARK 927      BINDING AFFINITY PREDICTED BY RF-SCORE:    0.00 PKD
ROOT
HETATM    1  O   UNL     1      -5.646   8.604  64.752  1.00  0.00    -0.046 OA 
HETATM    2  C   UNL     1      -6.619   9.492  65.073  1.00  0.00    -0.088 C  
HETATM    3  O   UNL     1      -6.363  10.605  65.505  1.00  0.00    -0.126 OA 
HETATM    4  C   UNL     1      -8.023   8.948  64.837  1.00  0.00    -0.129 C  
ENDROOT
BRANCH   4   5
HETATM    5  O   UNL     1      -9.010   9.900  65.256  1.00  0.00    -0.164 OA 
BRANCH   5   6
HETATM    6  C   UNL     1      -9.655   9.621  66.419  1.00  0.00    -0.210 C  
HETATM    7  O   UNL     1     -10.342   8.634  66.623  1.00  0.00    -0.289 OA 
BRANCH   6   8
HETATM    8  C   UNL     1      -9.404  10.723  67.432  1.00  0.00    -0.163 C  
BRANCH   8   9
HETATM    9  C   UNL     1     -10.304  10.661  68.645  1.00  0.00    -0.202 A  
HETATM   10  C   UNL     1      -9.911   9.811  69.699  1.00  0.00    -0.241 A  
HETATM   11  C   UNL     1     -10.663   9.714  70.867  1.00  0.00    -0.402 A  
HETATM   12  C   UNL     1     -11.800  10.494  71.022  1.00  0.00    -0.438 A  
HETATM   13  C   UNL     1     -12.218  11.321  69.978  1.00  0.00    -0.389 A  
HETATM   14  C   UNL     1     -11.517  11.377  68.765  1.00  0.00    -0.290 A  
BRANCH  14  15
HETATM   15  N   UNL     1     -12.077  12.088  67.680  1.00  0.00    -0.509 NA 
HETATM   16  H   UNL     1     -13.014  11.779  67.421  1.00  0.00     0.000 HD 
BRANCH  15  17
HETATM   17  C   UNL     1     -11.572  13.157  66.881  1.00  0.00    -0.368 A  
HETATM   18  C   UNL     1     -11.194  14.348  67.552  1.00  0.00    -0.315 A  
HETATM   19  C   UNL     1     -10.517  15.387  66.903  1.00  0.00    -0.295 A  
HETATM   20 CL   UNL     1     -11.555  14.576  69.234  1.00  0.00    -0.314 Cl 
HETATM   21  C   UNL     1     -10.213  15.278  65.554  1.00  0.00    -0.417 A  
HETATM   22  C   UNL     1     -10.656  14.167  64.845  1.00  0.00    -0.449 A  
HETATM   23  C   UNL     1     -11.347  13.122  65.488  1.00  0.00    -0.299 A  
HETATM   24 CL   UNL     1     -11.785  11.811  64.447  1.00  0.00    -0.341 Cl 
ENDBRANCH  15  17
ENDBRANCH  14  15
ENDBRANCH   8   9
ENDBRANCH   6   8
ENDBRANCH   5   6
ENDBRANCH   4   5
TORSDOF 6
ENDMDL
MODEL      199
REMARK 921   NORMALIZED FREE ENERGY PREDICTED BY IDOCK:   -4.71 KCAL/MOL
REMARK 922        TOTAL FREE ENERGY PREDICTED BY IDOCK:   -7.32 KCAL/MOL
REMARK 923 INTER-LIGAND FREE ENERGY PREDICTED BY IDOCK:   -6.60 KCAL/MOL
REMARK 924 INTRA-LIGAND FREE ENERGY PREDICTED BY IDOCK:   -0.73 KCAL/MOL
REMARK 927      BINDING AFFINITY PREDICTED BY RF-SCORE:    0.00 PKD
ROOT
HETATM    1  O   UNL     1     -11.243   8.552  72.242  1.00  0.00    -0.342 OA 
HETATM    2  C   UNL     1     -11.086   8.512  70.896  1.00  0.00    -0.255 C  
HETATM    3  O   UNL     1     -11.404   7.536  70.235  1.00  0.00    -0.268 OA 
HETATM    4  C   UNL     1     -10.483   9.793  70.329  1.00  0.00    -0.288 C  
ENDROOT
BRANCH   4   5
HETATM    5  O   UNL     1     -10.277   9.671  68.916  1.00  0.00    -0.186 OA 
BRANCH   5   6
HETATM    6  C   UNL     1     -10.732  10.699  68.153  1.00  0.00    -0.225 C  
HETATM    7  O   UNL     1     -11.901  11.033  68.048  1.00  0.00    -0.593 OA 
BRANCH   6   8
HETATM    8  C   UNL     1      -9.574  11.373  67.440  1.00  0.00    -0.185 C  
BRANCH   8   9
HETATM    9  C   UNL     1      -9.630  11.264  65.934  1.00  0.00    -0.249 A  
HETATM   10  C   UNL     1      -9.422   9.988  65.371  1.00  0.00    -0.310 A  
HETATM   11  C   UNL     1      -9.486   9.788  63.994  1.00  0.00    -0.131 A  
HETATM   12  C   UNL     1      -9.799  10.849  63.157  1.00  0.00    -0.392 A  
HETATM   13  C   UNL     1      -9.983  12.123  63.695  1.00  0.00    -0.347 A  
HETATM   14  C   UNL     1      -9.849  12.361  65.071  1.00  0.00    -0.114 A  
BRANCH  14  15
HETATM   15  N   UNL     1      -9.865  13.693  65.542  1.00  0.00    -0.499 NA 
HETATM   16  H   UNL     1      -9.478  14.371  64.886  1.00  0.00     0.000 HD 
BRANCH  15  17
HETATM   17  C   UNL     1     -10.324  14.262  66.768  1.00  0.00    -0.274 A  
HETATM   18  C   UNL     1     -11.715  14.198  67.035  1.00  0.00    -0.405 A  
HETATM   19  C   UNL     1     -12.254  14.552  68.277  1.00  0.00    -0.126 A  
HETATM   20 CL   UNL     1     -12.832  13.667  65.817  1.00  0.00    -0.469 Cl 
HETATM   21  C   UNL     1     -11.420  15.002  69.290  1.00  0.00    -0.326 A  
HETATM   22  C   UNL     1     -10.064  15.170  69.029  1.00  0.00    -0.244 A  
HETATM   23  C   UNL     1      -9.516  14.827  67.779  1.00  0.00    -0.204 A  
HETATM   24 CL   UNL     1      -7.808  15.073  67.658  1.00  0.00    -0.166 Cl 
ENDBRANCH  15  17
ENDBRANCH  14  15
ENDBRANCH   8   9
ENDBRANCH   6   8
ENDBRANCH   5   6
ENDBRANCH   4   5
TORSDOF 6
ENDMDL
MODEL      200
REMARK 921   NORMALIZED FREE ENERGY PREDICTED BY IDOCK:   -4.71 KCAL/MOL
REMARK 922        TOTAL FREE ENERGY PREDICTED BY IDOCK:   -7.32 KCAL/MOL
REMARK 923 INTER-LIGAND FREE ENERGY PREDICTED BY IDOCK:   -6.47 KCAL/MOL
REMARK 924 INTRA-LIGAND FREE ENERGY PREDICTED BY IDOCK:   -0.86 KCAL/MOL
REMARK 927      BINDING AFFINITY PREDICTED BY RF-SCORE:    0.00 PKD
ROOT
HETATM    1  O   UNL     1      -6.504   9.920  70.804  1.00  0.00    -0.132 OA 
HETATM    2  C   UNL     1      -7.716   9.409  70.477  1.00  0.00    -0.161 C  
HETATM    3  O   UNL     1      -8.037   8.266  70.765  1.00  0.00    -0.098 OA 
HETATM    4  C   UNL     1      -8.600  10.403  69.731  1.00  0.00     0.042 C  
ENDROOT
BRANCH   4   5
HETATM    5  O   UNL     1      -9.839   9.790  69.351  1.00  0.00    -0.181 OA 
BRANCH   5   6
HETATM    6  C   UNL     1     -10.931  10.148  70.076  1.00  0.00    -0.307 C  
HETATM    7  O   UNL     1     -11.046  10.021  71.284  1.00  0.00    -0.309 OA 
BRANCH   6   8
HETATM    8  C   UNL     1     -11.998  10.725  69.163  1.00  0.00    -0.302 C  
BRANCH   8   9
HETATM    9  C   UNL     1     -11.780  12.176  68.801  1.00  0.00    -0.374 A  
HETATM   10  C   UNL     1     -11.737  13.106  69.860  1.00  0.00    -0.327 A  
HETATM   11  C   UNL     1     -11.510  14.460  69.623  1.00  0.00    -0.331 A  
HETATM   12  C   UNL     1     -11.281  14.904  68.329  1.00  0.00    -0.306 A  
HETATM   13  C   UNL     1     -11.345  14.001  67.267  1.00  0.00    -0.350 A  
HETATM   14  C   UNL     1     -11.646  12.647  67.476  1.00  0.00    -0.359 A  
BRANCH  14  15
HETATM   15  N   UNL     1     -11.877  11.815  66.358  1.00  0.00    -0.494 NA 
HETATM   16  H   UNL     1     -12.819  11.425  66.317  1.00  0.00     0.000 HD 
BRANCH  15  17
HETATM   17  C   UNL     1     -11.033  11.419  65.277  1.00  0.00    -0.184 A  
HETATM   18  C   UNL     1     -10.975  12.277  64.149  1.00  0.00    -0.363 A  
HETATM   19  C   UNL     1     -10.049  12.090  63.117  1.00  0.00    -0.267 A  
HETATM   20 CL   UNL     1     -12.064  13.620  63.994  1.00  0.00    -0.495 Cl 
HETATM   21  C   UNL     1      -9.161  11.025  63.168  1.00  0.00    -0.262 A  
HETATM   22  C   UNL     1      -9.257  10.110  64.211  1.00  0.00    -0.312 A  
HETATM   23  C   UNL     1     -10.193  10.284  65.247  1.00  0.00    -0.238 A  
HETATM   24 CL   UNL     1     -10.137   9.062  66.471  1.00  0.00    -0.358 Cl 
ENDBRANCH  15  17
ENDBRANCH  14  15
ENDBRANCH   8   9
ENDBRANCH   6   8
ENDBRANCH   5   6
ENDBRANCH   4   5
TORSDOF 6
ENDMDL
MODEL      201
REMARK 921   NORMALIZED FREE ENERGY PREDICTED BY IDOCK:   -4.70 KCAL/MOL
REMARK 922        TOTAL FREE ENERGY PREDICTED BY IDOCK:   -7.31 KCAL/MOL
REMARK 923 INTER-LIGAND FREE ENERGY PREDICTED BY IDOCK:   -6.38 KCAL/MOL
REMARK 924 INTRA-LIGAND FREE ENERGY PREDICTED BY IDOCK:   -0.93 KCAL/MOL
REMARK 927      BINDING AFFINITY PREDICTED BY RF-SCORE:    0.00 PKD
ROOT
HETATM    1  O   UNL     1     -10.161   9.926  65.913  1.00  0.00    -0.271 OA 
HETATM    2  C   UNL     1     -10.527  10.045  67.213  1.00  0.00    -0.254 C  
HETATM    3  O   UNL     1     -11.529  10.657  67.550  1.00  0.00    -0.460 OA 
HETATM    4  C   UNL     1      -9.568   9.344  68.169  1.00  0.00    -0.142 C  
ENDROOT
BRANCH   4   5
HETATM    5  O   UNL     1      -9.965   9.559  69.530  1.00  0.00    -0.174 OA 
BRANCH   5   6
HETATM    6  C   UNL     1      -9.313   8.822  70.467  1.00  0.00    -0.187 C  
HETATM    7  O   UNL     1      -8.305   8.165  70.269  1.00  0.00    -0.119 OA 
BRANCH   6   8
HETATM    8  C   UNL     1     -10.026   8.929  71.803  1.00  0.00    -0.397 C  
BRANCH   8   9
HETATM    9  C   UNL     1     -11.507   8.637  71.736  1.00  0.00    -0.394 A  
HETATM   10  C   UNL     1     -12.383   9.742  71.697  1.00  0.00    -0.495 A  
HETATM   11  C   UNL     1     -13.761   9.568  71.604  1.00  0.00    -0.365 A  
HETATM   12  C   UNL     1     -14.289   8.288  71.507  1.00  0.00    -0.525 A  
HETATM   13  C   UNL     1     -13.439   7.183  71.570  1.00  0.00    -0.411 A  
HETATM   14  C   UNL     1     -12.056   7.334  71.739  1.00  0.00    -0.319 A  
BRANCH  14  15
HETATM   15  N   UNL     1     -11.264   6.189  71.977  1.00  0.00    -0.272 NA 
HETATM   16  H   UNL     1     -11.388   5.783  72.904  1.00  0.00     0.000 HD 
BRANCH  15  17
HETATM   17  C   UNL     1     -10.322   5.497  71.157  1.00  0.00    -0.234 A  
HETATM   18  C   UNL     1      -9.319   4.741  71.816  1.00  0.00    -0.141 A  
HETATM   19  C   UNL     1      -8.462   3.877  71.124  1.00  0.00    -0.099 A  
HETATM   20 CL   UNL     1      -9.107   4.849  73.535  1.00  0.00    -0.120 Cl 
HETATM   21  C   UNL     1      -8.565   3.756  69.747  1.00  0.00    -0.106 A  
HETATM   22  C   UNL     1      -9.471   4.557  69.060  1.00  0.00    -0.229 A  
HETATM   23  C   UNL     1     -10.330   5.437  69.747  1.00  0.00    -0.305 A  
HETATM   24 CL   UNL     1     -11.409   6.322  68.725  1.00  0.00    -0.361 Cl 
ENDBRANCH  15  17
ENDBRANCH  14  15
ENDBRANCH   8   9
ENDBRANCH   6   8
ENDBRANCH   5   6
ENDBRANCH   4   5
TORSDOF 6
ENDMDL
MODEL      202
REMARK 921   NORMALIZED FREE ENERGY PREDICTED BY IDOCK:   -4.70 KCAL/MOL
REMARK 922        TOTAL FREE ENERGY PREDICTED BY IDOCK:   -7.31 KCAL/MOL
REMARK 923 INTER-LIGAND FREE ENERGY PREDICTED BY IDOCK:   -6.19 KCAL/MOL
REMARK 924 INTRA-LIGAND FREE ENERGY PREDICTED BY IDOCK:   -1.12 KCAL/MOL
REMARK 927      BINDING AFFINITY PREDICTED BY RF-SCORE:    0.00 PKD
ROOT
HETATM    1  O   UNL     1     -10.994  17.199  68.083  1.00  0.00    -0.361 OA 
HETATM    2  C   UNL     1     -11.389  16.070  68.721  1.00  0.00    -0.380 C  
HETATM    3  O   UNL     1     -11.505  16.018  69.935  1.00  0.00    -0.323 OA 
HETATM    4  C   UNL     1     -11.661  14.912  67.767  1.00  0.00    -0.339 C  
ENDROOT
BRANCH   4   5
HETATM    5  O   UNL     1     -12.008  13.728  68.496  1.00  0.00    -0.356 OA 
BRANCH   5   6
HETATM    6  C   UNL     1     -11.079  12.737  68.507  1.00  0.00    -0.266 C  
HETATM    7  O   UNL     1      -9.872  12.904  68.576  1.00  0.00    -0.214 OA 
BRANCH   6   8
HETATM    8  C   UNL     1     -11.759  11.382  68.413  1.00  0.00    -0.373 C  
BRANCH   8   9
HETATM    9  C   UNL     1     -11.676  10.563  69.681  1.00  0.00    -0.328 A  
HETATM   10  C   UNL     1     -12.785  10.607  70.551  1.00  0.00    -0.395 A  
HETATM   11  C   UNL     1     -12.809   9.860  71.727  1.00  0.00    -0.540 A  
HETATM   12  C   UNL     1     -11.745   9.025  72.035  1.00  0.00    -0.417 A  
HETATM   13  C   UNL     1     -10.629   8.990  71.198  1.00  0.00    -0.361 A  
HETATM   14  C   UNL     1     -10.552   9.790  70.049  1.00  0.00    -0.276 A  
BRANCH  14  15
HETATM   15  N   UNL     1      -9.334   9.853  69.336  1.00  0.00    -0.200 NA 
HETATM   16  H   UNL     1      -8.851  10.748  69.417  1.00  0.00     0.000 HD 
BRANCH  15  17
HETATM   17  C   UNL     1      -8.656   8.895  68.524  1.00  0.00    -0.133 A  
HETATM   18  C   UNL     1      -7.675   8.087  69.153  1.00  0.00    -0.099 A  
HETATM   19  C   UNL     1      -7.082   6.996  68.507  1.00  0.00    -0.089 A  
HETATM   20 CL   UNL     1      -7.156   8.416  70.776  1.00  0.00    -0.046 Cl 
HETATM   21  C   UNL     1      -7.438   6.687  67.203  1.00  0.00    -0.088 A  
HETATM   22  C   UNL     1      -8.324   7.517  66.525  1.00  0.00    -0.126 A  
HETATM   23  C   UNL     1      -8.916   8.624  67.163  1.00  0.00    -0.132 A  
HETATM   24 CL   UNL     1     -10.016   9.515  66.169  1.00  0.00    -0.345 Cl 
ENDBRANCH  15  17
ENDBRANCH  14  15
ENDBRANCH   8   9
ENDBRANCH   6   8
ENDBRANCH   5   6
ENDBRANCH   4   5
TORSDOF 6
ENDMDL
MODEL      203
REMARK 921   NORMALIZED FREE ENERGY PREDICTED BY IDOCK:   -4.70 KCAL/MOL
REMARK 922        TOTAL FREE ENERGY PREDICTED BY IDOCK:   -7.31 KCAL/MOL
REMARK 923 INTER-LIGAND FREE ENERGY PREDICTED BY IDOCK:   -6.75 KCAL/MOL
REMARK 924 INTRA-LIGAND FREE ENERGY PREDICTED BY IDOCK:   -0.56 KCAL/MOL
REMARK 927      BINDING AFFINITY PREDICTED BY RF-SCORE:    0.00 PKD
ROOT
HETATM    1  O   UNL     1      -7.398   6.068  65.714  1.00  0.00    -0.073 OA 
HETATM    2  C   UNL     1      -8.496   6.846  65.876  1.00  0.00    -0.144 C  
HETATM    3  O   UNL     1      -9.571   6.386  66.227  1.00  0.00    -0.146 OA 
HETATM    4  C   UNL     1      -8.231   8.318  65.576  1.00  0.00    -0.138 C  
ENDROOT
BRANCH   4   5
HETATM    5  O   UNL     1      -9.438   9.082  65.696  1.00  0.00    -0.244 OA 
BRANCH   5   6
HETATM    6  C   UNL     1      -9.550  10.158  64.873  1.00  0.00    -0.306 C  
HETATM    7  O   UNL     1      -9.797  10.108  63.679  1.00  0.00    -0.232 OA 
BRANCH   6   8
HETATM    8  C   UNL     1      -9.316  11.439  65.654  1.00  0.00    -0.242 C  
BRANCH   8   9
HETATM    9  C   UNL     1     -10.491  12.390  65.642  1.00  0.00    -0.290 A  
HETATM   10  C   UNL     1     -10.950  12.833  64.385  1.00  0.00    -0.393 A  
HETATM   11  C   UNL     1     -12.045  13.687  64.276  1.00  0.00    -0.480 A  
HETATM   12  C   UNL     1     -12.728  14.081  65.418  1.00  0.00    -0.499 A  
HETATM   13  C   UNL     1     -12.271  13.672  66.672  1.00  0.00    -0.437 A  
HETATM   14  C   UNL     1     -11.126  12.874  66.808  1.00  0.00    -0.281 A  
BRANCH  14  15
HETATM   15  N   UNL     1     -10.603  12.638  68.099  1.00  0.00    -0.221 NA 
HETATM   16  H   UNL     1      -9.650  12.978  68.230  1.00  0.00     0.000 HD 
BRANCH  15  17
HETATM   17  C   UNL     1     -11.163  12.011  69.252  1.00  0.00    -0.229 A  
HETATM   18  C   UNL     1     -11.881  12.834  70.156  1.00  0.00    -0.251 A  
HETATM   19  C   UNL     1     -12.627  12.304  71.216  1.00  0.00    -0.336 A  
HETATM   20 CL   UNL     1     -11.870  14.562  69.989  1.00  0.00    -0.347 Cl 
HETATM   21  C   UNL     1     -12.664  10.933  71.418  1.00  0.00    -0.539 A  
HETATM   22  C   UNL     1     -11.893  10.106  70.609  1.00  0.00    -0.431 A  
HETATM   23  C   UNL     1     -11.131  10.631  69.549  1.00  0.00    -0.274 A  
HETATM   24 CL   UNL     1     -10.268   9.442  68.634  1.00  0.00    -0.212 Cl 
ENDBRANCH  15  17
ENDBRANCH  14  15
ENDBRANCH   8   9
ENDBRANCH   6   8
ENDBRANCH   5   6
ENDBRANCH   4   5
TORSDOF 6
ENDMDL
MODEL      204
REMARK 921   NORMALIZED FREE ENERGY PREDICTED BY IDOCK:   -4.69 KCAL/MOL
REMARK 922        TOTAL FREE ENERGY PREDICTED BY IDOCK:   -7.30 KCAL/MOL
REMARK 923 INTER-LIGAND FREE ENERGY PREDICTED BY IDOCK:   -6.17 KCAL/MOL
REMARK 924 INTRA-LIGAND FREE ENERGY PREDICTED BY IDOCK:   -1.12 KCAL/MOL
REMARK 927      BINDING AFFINITY PREDICTED BY RF-SCORE:    0.00 PKD
ROOT
HETATM    1  O   UNL     1      -7.357  19.589  68.015  1.00  0.00    -0.265 OA 
HETATM    2  C   UNL     1      -8.052  19.028  66.996  1.00  0.00    -0.265 C  
HETATM    3  O   UNL     1      -7.732  19.187  65.828  1.00  0.00    -0.443 OA 
HETATM    4  C   UNL     1      -9.242  18.201  67.471  1.00  0.00    -0.257 C  
ENDROOT
BRANCH   4   5
HETATM    5  O   UNL     1      -9.979  17.688  66.353  1.00  0.00    -0.309 OA 
BRANCH   5   6
HETATM    6  C   UNL     1      -9.814  16.367  66.082  1.00  0.00    -0.338 C  
HETATM    7  O   UNL     1      -9.743  15.881  64.965  1.00  0.00    -0.270 OA 
BRANCH   6   8
HETATM    8  C   UNL     1      -9.737  15.575  67.375  1.00  0.00    -0.218 C  
BRANCH   8   9
HETATM    9  C   UNL     1      -8.635  14.542  67.399  1.00  0.00    -0.213 A  
HETATM   10  C   UNL     1      -7.307  15.015  67.445  1.00  0.00    -0.231 A  
HETATM   11  C   UNL     1      -6.229  14.134  67.501  1.00  0.00     0.007 A  
HETATM   12  C   UNL     1      -6.457  12.767  67.552  1.00  0.00    -0.161 A  
HETATM   13  C   UNL     1      -7.764  12.281  67.482  1.00  0.00    -0.158 A  
HETATM   14  C   UNL     1      -8.859  13.147  67.350  1.00  0.00    -0.204 A  
BRANCH  14  15
HETATM   15  N   UNL     1     -10.139  12.603  67.102  1.00  0.00    -0.221 NA 
HETATM   16  H   UNL     1     -10.690  12.437  67.944  1.00  0.00     0.000 HD 
BRANCH  15  17
HETATM   17  C   UNL     1     -10.800  12.242  65.890  1.00  0.00    -0.271 A  
HETATM   18  C   UNL     1     -11.932  13.009  65.514  1.00  0.00    -0.424 A  
HETATM   19  C   UNL     1     -12.545  12.870  64.263  1.00  0.00    -0.363 A  
HETATM   20 CL   UNL     1     -12.620  14.174  66.600  1.00  0.00    -0.262 Cl 
HETATM   21  C   UNL     1     -12.057  11.944  63.352  1.00  0.00    -0.539 A  
HETATM   22  C   UNL     1     -11.010  11.109  63.728  1.00  0.00    -0.256 A  
HETATM   23  C   UNL     1     -10.396  11.234  64.988  1.00  0.00    -0.301 A  
HETATM   24 CL   UNL     1      -9.090  10.131  65.257  1.00  0.00    -0.211 Cl 
ENDBRANCH  15  17
ENDBRANCH  14  15
ENDBRANCH   8   9
ENDBRANCH   6   8
ENDBRANCH   5   6
ENDBRANCH   4   5
TORSDOF 6
ENDMDL
MODEL      205
REMARK 921   NORMALIZED FREE ENERGY PREDICTED BY IDOCK:   -4.69 KCAL/MOL
REMARK 922        TOTAL FREE ENERGY PREDICTED BY IDOCK:   -7.30 KCAL/MOL
REMARK 923 INTER-LIGAND FREE ENERGY PREDICTED BY IDOCK:   -5.91 KCAL/MOL
REMARK 924 INTRA-LIGAND FREE ENERGY PREDICTED BY IDOCK:   -1.39 KCAL/MOL
REMARK 927      BINDING AFFINITY PREDICTED BY RF-SCORE:    0.00 PKD
ROOT
HETATM    1  O   UNL     1      -7.134  12.120  69.072  1.00  0.00    -0.104 OA 
HETATM    2  C   UNL     1      -7.547  10.920  68.596  1.00  0.00    -0.114 C  
HETATM    3  O   UNL     1      -7.623   9.932  69.309  1.00  0.00    -0.083 OA 
HETATM    4  C   UNL     1      -7.892  10.956  67.111  1.00  0.00    -0.127 C  
ENDROOT
BRANCH   4   5
HETATM    5  O   UNL     1      -8.256   9.649  66.646  1.00  0.00    -0.118 OA 
BRANCH   5   6
HETATM    6  C   UNL     1      -9.460   9.548  66.026  1.00  0.00    -0.233 C  
HETATM    7  O   UNL     1      -9.659   9.746  64.839  1.00  0.00    -0.290 OA 
BRANCH   6   8
HETATM    8  C   UNL     1     -10.533   9.158  67.028  1.00  0.00    -0.311 C  
BRANCH   8   9
HETATM    9  C   UNL     1     -10.368   7.768  67.595  1.00  0.00    -0.305 A  
HETATM   10  C   UNL     1     -10.521   6.684  66.706  1.00  0.00    -0.298 A  
HETATM   11  C   UNL     1     -10.357   5.369  67.135  1.00  0.00    -0.288 A  
HETATM   12  C   UNL     1      -9.997   5.113  68.450  1.00  0.00    -0.214 A  
HETATM   13  C   UNL     1      -9.867   6.172  69.350  1.00  0.00    -0.191 A  
HETATM   14  C   UNL     1     -10.102   7.498  68.957  1.00  0.00    -0.192 A  
BRANCH  14  15
HETATM   15  N   UNL     1     -10.134   8.510  69.941  1.00  0.00    -0.190 NA 
HETATM   16  H   UNL     1      -9.249   9.001  70.063  1.00  0.00     0.000 HD 
BRANCH  15  17
HETATM   17  C   UNL     1     -11.179   8.971  70.797  1.00  0.00    -0.275 A  
HETATM   18  C   UNL     1     -11.725  10.251  70.527  1.00  0.00    -0.331 A  
HETATM   19  C   UNL     1     -12.870  10.727  71.176  1.00  0.00    -0.513 A  
HETATM   20 CL   UNL     1     -10.990  11.304  69.359  1.00  0.00    -0.290 Cl 
HETATM   21  C   UNL     1     -13.498   9.944  72.134  1.00  0.00    -0.454 A  
HETATM   22  C   UNL     1     -12.931   8.725  72.493  1.00  0.00    -0.382 A  
HETATM   23  C   UNL     1     -11.774   8.245  71.853  1.00  0.00    -0.322 A  
HETATM   24 CL   UNL     1     -11.242   6.696  72.411  1.00  0.00    -0.286 Cl 
ENDBRANCH  15  17
ENDBRANCH  14  15
ENDBRANCH   8   9
ENDBRANCH   6   8
ENDBRANCH   5   6
ENDBRANCH   4   5
TORSDOF 6
ENDMDL
MODEL      206
REMARK 921   NORMALIZED FREE ENERGY PREDICTED BY IDOCK:   -4.68 KCAL/MOL
REMARK 922        TOTAL FREE ENERGY PREDICTED BY IDOCK:   -7.29 KCAL/MOL
REMARK 923 INTER-LIGAND FREE ENERGY PREDICTED BY IDOCK:   -6.61 KCAL/MOL
REMARK 924 INTRA-LIGAND FREE ENERGY PREDICTED BY IDOCK:   -0.68 KCAL/MOL
REMARK 927      BINDING AFFINITY PREDICTED BY RF-SCORE:    0.00 PKD
ROOT
HETATM    1  O   UNL     1     -12.793  14.233  71.092  1.00  0.00    -0.324 OA 
HETATM    2  C   UNL     1     -13.308  13.140  71.706  1.00  0.00    -0.389 C  
HETATM    3  O   UNL     1     -14.126  13.229  72.608  1.00  0.00    -0.744 OA 
HETATM    4  C   UNL     1     -12.759  11.831  71.150  1.00  0.00    -0.305 C  
ENDROOT
BRANCH   4   5
HETATM    5  O   UNL     1     -13.284  10.713  71.879  1.00  0.00    -0.461 OA 
BRANCH   5   6
HETATM    6  C   UNL     1     -12.591   9.550  71.772  1.00  0.00    -0.405 C  
HETATM    7  O   UNL     1     -13.016   8.447  72.073  1.00  0.00    -0.335 OA 
BRANCH   6   8
HETATM    8  C   UNL     1     -11.200   9.819  71.227  1.00  0.00    -0.417 C  
BRANCH   8   9
HETATM    9  C   UNL     1     -10.928   9.175  69.887  1.00  0.00    -0.218 A  
HETATM   10  C   UNL     1     -10.944  10.012  68.752  1.00  0.00    -0.242 A  
HETATM   11  C   UNL     1     -10.675   9.510  67.481  1.00  0.00    -0.311 A  
HETATM   12  C   UNL     1     -10.345   8.172  67.324  1.00  0.00    -0.373 A  
HETATM   13  C   UNL     1     -10.349   7.324  68.433  1.00  0.00    -0.213 A  
HETATM   14  C   UNL     1     -10.691   7.793  69.710  1.00  0.00    -0.236 A  
BRANCH  14  15
HETATM   15  N   UNL     1     -10.856   6.863  70.761  1.00  0.00    -0.236 NA 
HETATM   16  H   UNL     1     -11.806   6.816  71.128  1.00  0.00     0.000 HD 
BRANCH  15  17
HETATM   17  C   UNL     1      -9.937   5.980  71.402  1.00  0.00    -0.186 A  
HETATM   18  C   UNL     1      -9.484   6.340  72.697  1.00  0.00    -0.148 A  
HETATM   19  C   UNL     1      -8.734   5.468  73.494  1.00  0.00    -0.117 A  
HETATM   20 CL   UNL     1      -9.847   7.900  73.365  1.00  0.00    -0.352 Cl 
HETATM   21  C   UNL     1      -8.394   4.211  73.015  1.00  0.00    -0.094 A  
HETATM   22  C   UNL     1      -8.738   3.865  71.712  1.00  0.00    -0.126 A  
HETATM   23  C   UNL     1      -9.483   4.741  70.900  1.00  0.00    -0.165 A  
HETATM   24 CL   UNL     1      -9.844   4.119  69.326  1.00  0.00    -0.212 Cl 
ENDBRANCH  15  17
ENDBRANCH  14  15
ENDBRANCH   8   9
ENDBRANCH   6   8
ENDBRANCH   5   6
ENDBRANCH   4   5
TORSDOF 6
ENDMDL
MODEL      207
REMARK 921   NORMALIZED FREE ENERGY PREDICTED BY IDOCK:   -4.68 KCAL/MOL
REMARK 922        TOTAL FREE ENERGY PREDICTED BY IDOCK:   -7.28 KCAL/MOL
REMARK 923 INTER-LIGAND FREE ENERGY PREDICTED BY IDOCK:   -7.43 KCAL/MOL
REMARK 924 INTRA-LIGAND FREE ENERGY PREDICTED BY IDOCK:    0.15 KCAL/MOL
REMARK 927      BINDING AFFINITY PREDICTED BY RF-SCORE:    0.00 PKD
ROOT
HETATM    1  O   UNL     1      -8.554  16.515  65.954  1.00  0.00    -0.441 OA 
HETATM    2  C   UNL     1      -9.852  16.344  66.305  1.00  0.00    -0.314 C  
HETATM    3  O   UNL     1     -10.765  16.512  65.512  1.00  0.00    -0.359 OA 
HETATM    4  C   UNL     1     -10.025  15.930  67.763  1.00  0.00    -0.229 C  
ENDROOT
BRANCH   4   5
HETATM    5  O   UNL     1     -11.415  15.830  68.097  1.00  0.00    -0.352 OA 
BRANCH   5   6
HETATM    6  C   UNL     1     -11.701  15.293  69.312  1.00  0.00    -0.338 C  
HETATM    7  O   UNL     1     -12.303  15.861  70.208  1.00  0.00    -0.351 OA 
BRANCH   6   8
HETATM    8  C   UNL     1     -11.157  13.878  69.399  1.00  0.00    -0.226 C  
BRANCH   8   9
HETATM    9  C   UNL     1     -11.930  12.978  70.335  1.00  0.00    -0.337 A  
HETATM   10  C   UNL     1     -12.858  13.591  71.202  1.00  0.00    -0.387 A  
HETATM   11  C   UNL     1     -13.636  12.836  72.077  1.00  0.00    -0.460 A  
HETATM   12  C   UNL     1     -13.532  11.453  72.073  1.00  0.00    -0.289 A  
HETATM   13  C   UNL     1     -12.601  10.832  71.239  1.00  0.00    -0.532 A  
HETATM   14  C   UNL     1     -11.755  11.577  70.405  1.00  0.00    -0.234 A  
BRANCH  14  15
HETATM   15  N   UNL     1     -10.712  10.917  69.719  1.00  0.00    -0.434 NA 
HETATM   16  H   UNL     1      -9.839  11.443  69.684  1.00  0.00     0.000 HD 
BRANCH  15  17
HETATM   17  C   UNL     1     -10.657   9.650  69.065  1.00  0.00    -0.218 A  
HETATM   18  C   UNL     1     -10.649   9.650  67.647  1.00  0.00    -0.275 A  
HETATM   19  C   UNL     1     -10.410   8.488  66.902  1.00  0.00    -0.367 A  
HETATM   20 CL   UNL     1     -10.935  11.110  66.754  1.00  0.00    -0.324 Cl 
HETATM   21  C   UNL     1     -10.191   7.283  67.552  1.00  0.00    -0.284 A  
HETATM   22  C   UNL     1     -10.290   7.230  68.938  1.00  0.00    -0.207 A  
HETATM   23  C   UNL     1     -10.540   8.391  69.694  1.00  0.00    -0.219 A  
HETATM   24 CL   UNL     1     -10.592   8.131  71.404  1.00  0.00    -0.257 Cl 
ENDBRANCH  15  17
ENDBRANCH  14  15
ENDBRANCH   8   9
ENDBRANCH   6   8
ENDBRANCH   5   6
ENDBRANCH   4   5
TORSDOF 6
ENDMDL
MODEL      208
REMARK 921   NORMALIZED FREE ENERGY PREDICTED BY IDOCK:   -4.68 KCAL/MOL
REMARK 922        TOTAL FREE ENERGY PREDICTED BY IDOCK:   -7.28 KCAL/MOL
REMARK 923 INTER-LIGAND FREE ENERGY PREDICTED BY IDOCK:   -6.10 KCAL/MOL
REMARK 924 INTRA-LIGAND FREE ENERGY PREDICTED BY IDOCK:   -1.17 KCAL/MOL
REMARK 927      BINDING AFFINITY PREDICTED BY RF-SCORE:    0.00 PKD
ROOT
HETATM    1  O   UNL     1      -9.544   5.474  65.930  1.00  0.00    -0.144 OA 
HETATM    2  C   UNL     1      -8.762   6.580  65.978  1.00  0.00    -0.148 C  
HETATM    3  O   UNL     1      -7.863   6.773  65.175  1.00  0.00    -0.105 OA 
HETATM    4  C   UNL     1      -9.131   7.521  67.120  1.00  0.00    -0.127 C  
ENDROOT
BRANCH   4   5
HETATM    5  O   UNL     1      -8.231   8.636  67.165  1.00  0.00    -0.106 OA 
BRANCH   5   6
HETATM    6  C   UNL     1      -7.709   8.935  68.383  1.00  0.00    -0.099 C  
HETATM    7  O   UNL     1      -7.049   8.174  69.072  1.00  0.00    -0.059 OA 
BRANCH   6   8
HETATM    8  C   UNL     1      -8.070  10.358  68.771  1.00  0.00    -0.125 C  
BRANCH   8   9
HETATM    9  C   UNL     1      -9.548  10.578  68.999  1.00  0.00    -0.213 A  
HETATM   10  C   UNL     1     -10.157   9.848  70.040  1.00  0.00    -0.308 A  
HETATM   11  C   UNL     1     -11.507  10.010  70.341  1.00  0.00    -0.389 A  
HETATM   12  C   UNL     1     -12.265  10.933  69.635  1.00  0.00    -0.354 A  
HETATM   13  C   UNL     1     -11.684  11.644  68.584  1.00  0.00    -0.386 A  
HETATM   14  C   UNL     1     -10.346  11.442  68.216  1.00  0.00    -0.194 A  
BRANCH  14  15
HETATM   15  N   UNL     1      -9.859  12.050  67.038  1.00  0.00    -0.193 NA 
HETATM   16  H   UNL     1      -8.842  12.111  66.991  1.00  0.00     0.000 HD 
BRANCH  15  17
HETATM   17  C   UNL     1     -10.529  12.595  65.902  1.00  0.00    -0.274 A  
HETATM   18  C   UNL     1     -10.654  11.765  64.759  1.00  0.00    -0.301 A  
HETATM   19  C   UNL     1     -11.447  12.119  63.662  1.00  0.00    -0.566 A  
HETATM   20 CL   UNL     1      -9.819  10.246  64.667  1.00  0.00    -0.396 Cl 
HETATM   21  C   UNL     1     -12.128  13.328  63.662  1.00  0.00    -0.551 A  
HETATM   22  C   UNL     1     -11.949  14.208  64.723  1.00  0.00    -0.441 A  
HETATM   23  C   UNL     1     -11.144  13.864  65.826  1.00  0.00    -0.294 A  
HETATM   24 CL   UNL     1     -11.073  15.073  67.061  1.00  0.00    -0.330 Cl 
ENDBRANCH  15  17
ENDBRANCH  14  15
ENDBRANCH   8   9
ENDBRANCH   6   8
ENDBRANCH   5   6
ENDBRANCH   4   5
TORSDOF 6
ENDMDL
MODEL      209
REMARK 921   NORMALIZED FREE ENERGY PREDICTED BY IDOCK:   -4.67 KCAL/MOL
REMARK 922        TOTAL FREE ENERGY PREDICTED BY IDOCK:   -7.27 KCAL/MOL
REMARK 923 INTER-LIGAND FREE ENERGY PREDICTED BY IDOCK:   -6.39 KCAL/MOL
REMARK 924 INTRA-LIGAND FREE ENERGY PREDICTED BY IDOCK:   -0.89 KCAL/MOL
REMARK 927      BINDING AFFINITY PREDICTED BY RF-SCORE:    0.00 PKD
ROOT
HETATM    1  O   UNL     1     -12.731  14.194  71.058  1.00  0.00    -0.324 OA 
HETATM    2  C   UNL     1     -13.314  13.211  71.787  1.00  0.00    -0.389 C  
HETATM    3  O   UNL     1     -14.093  13.454  72.695  1.00  0.00    -0.767 OA 
HETATM    4  C   UNL     1     -12.890  11.814  71.349  1.00  0.00    -0.335 C  
ENDROOT
BRANCH   4   5
HETATM    5  O   UNL     1     -13.482  10.819  72.195  1.00  0.00    -0.379 OA 
BRANCH   5   6
HETATM    6  C   UNL     1     -13.183   9.527  71.899  1.00  0.00    -0.439 C  
HETATM    7  O   UNL     1     -13.995   8.620  71.811  1.00  0.00    -0.399 OA 
BRANCH   6   8
HETATM    8  C   UNL     1     -11.687   9.369  71.698  1.00  0.00    -0.468 C  
BRANCH   8   9
HETATM    9  C   UNL     1     -11.303   8.194  70.828  1.00  0.00    -0.283 A  
HETATM   10  C   UNL     1     -11.426   6.907  71.391  1.00  0.00    -0.321 A  
HETATM   11  C   UNL     1     -11.124   5.765  70.653  1.00  0.00    -0.272 A  
HETATM   12  C   UNL     1     -10.732   5.884  69.327  1.00  0.00    -0.401 A  
HETATM   13  C   UNL     1     -10.581   7.152  68.763  1.00  0.00    -0.219 A  
HETATM   14  C   UNL     1     -10.807   8.316  69.511  1.00  0.00    -0.116 A  
BRANCH  14  15
HETATM   15  N   UNL     1     -10.468   9.568  68.951  1.00  0.00    -0.211 NA 
HETATM   16  H   UNL     1     -11.233  10.242  68.944  1.00  0.00     0.000 HD 
BRANCH  15  17
HETATM   17  C   UNL     1      -9.250  10.062  68.395  1.00  0.00    -0.131 A  
HETATM   18  C   UNL     1      -9.294  10.553  67.065  1.00  0.00    -0.155 A  
HETATM   19  C   UNL     1      -8.215  11.229  66.483  1.00  0.00    -0.165 A  
HETATM   20 CL   UNL     1     -10.710  10.341  66.084  1.00  0.00    -0.116 Cl 
HETATM   21  C   UNL     1      -7.046  11.418  67.205  1.00  0.00    -0.134 A  
HETATM   22  C   UNL     1      -6.935  10.862  68.475  1.00  0.00    -0.072 A  
HETATM   23  C   UNL     1      -8.011  10.172  69.064  1.00  0.00    -0.115 A  
HETATM   24 CL   UNL     1      -7.694   9.586  70.660  1.00  0.00    -0.173 Cl 
ENDBRANCH  15  17
ENDBRANCH  14  15
ENDBRANCH   8   9
ENDBRANCH   6   8
ENDBRANCH   5   6
ENDBRANCH   4   5
TORSDOF 6
ENDMDL
MODEL      210
REMARK 921   NORMALIZED FREE ENERGY PREDICTED BY IDOCK:   -4.66 KCAL/MOL
REMARK 922        TOTAL FREE ENERGY PREDICTED BY IDOCK:   -7.26 KCAL/MOL
REMARK 923 INTER-LIGAND FREE ENERGY PREDICTED BY IDOCK:   -6.53 KCAL/MOL
REMARK 924 INTRA-LIGAND FREE ENERGY PREDICTED BY IDOCK:   -0.73 KCAL/MOL
REMARK 927      BINDING AFFINITY PREDICTED BY RF-SCORE:    0.00 PKD
ROOT
HETATM    1  O   UNL     1      -6.418   6.930  73.454  1.00  0.00    -0.066 OA 
HETATM    2  C   UNL     1      -7.626   7.475  73.167  1.00  0.00    -0.096 C  
HETATM    3  O   UNL     1      -8.586   7.349  73.910  1.00  0.00    -0.164 OA 
HETATM    4  C   UNL     1      -7.636   8.238  71.847  1.00  0.00    -0.108 C  
ENDROOT
BRANCH   4   5
HETATM    5  O   UNL     1      -8.951   8.734  71.561  1.00  0.00    -0.205 OA 
BRANCH   5   6
HETATM    6  C   UNL     1      -9.698   7.990  70.704  1.00  0.00    -0.173 C  
HETATM    7  O   UNL     1      -9.790   6.774  70.724  1.00  0.00    -0.182 OA 
BRANCH   6   8
HETATM    8  C   UNL     1     -10.401   8.893  69.706  1.00  0.00    -0.213 C  
BRANCH   8   9
HETATM    9  C   UNL     1     -11.426   9.815  70.326  1.00  0.00    -0.317 A  
HETATM   10  C   UNL     1     -12.347   9.244  71.228  1.00  0.00    -0.403 A  
HETATM   11  C   UNL     1     -13.307  10.023  71.869  1.00  0.00    -0.516 A  
HETATM   12  C   UNL     1     -13.340  11.393  71.653  1.00  0.00    -0.288 A  
HETATM   13  C   UNL     1     -12.452  11.970  70.743  1.00  0.00    -0.372 A  
HETATM   14  C   UNL     1     -11.528  11.193  70.031  1.00  0.00    -0.292 A  
BRANCH  14  15
HETATM   15  N   UNL     1     -10.779  11.795  68.995  1.00  0.00    -0.327 NA 
HETATM   16  H   UNL     1      -9.770  11.685  69.093  1.00  0.00     0.000 HD 
BRANCH  15  17
HETATM   17  C   UNL     1     -11.177  12.528  67.837  1.00  0.00    -0.264 A  
HETATM   18  C   UNL     1     -11.072  11.872  66.584  1.00  0.00    -0.310 A  
HETATM   19  C   UNL     1     -11.602  12.418  65.409  1.00  0.00    -0.426 A  
HETATM   20 CL   UNL     1     -10.272  10.338  66.446  1.00  0.00    -0.294 Cl 
HETATM   21  C   UNL     1     -12.239  13.650  65.445  1.00  0.00    -0.474 A  
HETATM   22  C   UNL     1     -12.271  14.363  66.638  1.00  0.00    -0.340 A  
HETATM   23  C   UNL     1     -11.731  13.827  67.822  1.00  0.00    -0.358 A  
HETATM   24 CL   UNL     1     -11.898  14.847  69.209  1.00  0.00    -0.342 Cl 
ENDBRANCH  15  17
ENDBRANCH  14  15
ENDBRANCH   8   9
ENDBRANCH   6   8
ENDBRANCH   5   6
ENDBRANCH   4   5
TORSDOF 6
ENDMDL
MODEL      211
REMARK 921   NORMALIZED FREE ENERGY PREDICTED BY IDOCK:   -4.65 KCAL/MOL
REMARK 922        TOTAL FREE ENERGY PREDICTED BY IDOCK:   -7.25 KCAL/MOL
REMARK 923 INTER-LIGAND FREE ENERGY PREDICTED BY IDOCK:   -6.49 KCAL/MOL
REMARK 924 INTRA-LIGAND FREE ENERGY PREDICTED BY IDOCK:   -0.76 KCAL/MOL
REMARK 927      BINDING AFFINITY PREDICTED BY RF-SCORE:    0.00 PKD
ROOT
HETATM    1  O   UNL     1      -7.839  15.573  66.624  1.00  0.00    -0.194 OA 
HETATM    2  C   UNL     1      -8.616  14.680  67.284  1.00  0.00    -0.214 C  
HETATM    3  O   UNL     1      -8.149  13.692  67.828  1.00  0.00    -0.144 OA 
HETATM    4  C   UNL     1     -10.095  15.050  67.265  1.00  0.00    -0.235 C  
ENDROOT
BRANCH   4   5
HETATM    5  O   UNL     1     -10.877  14.040  67.917  1.00  0.00    -0.240 OA 
BRANCH   5   6
HETATM    6  C   UNL     1     -11.734  13.343  67.126  1.00  0.00    -0.379 C  
HETATM    7  O   UNL     1     -12.406  13.819  66.226  1.00  0.00    -0.444 OA 
BRANCH   6   8
HETATM    8  C   UNL     1     -11.744  11.880  67.529  1.00  0.00    -0.335 C  
BRANCH   8   9
HETATM    9  C   UNL     1     -10.799  11.014  66.727  1.00  0.00    -0.307 A  
HETATM   10  C   UNL     1     -10.312  11.542  65.514  1.00  0.00    -0.322 A  
HETATM   11  C   UNL     1      -9.413  10.828  64.725  1.00  0.00    -0.292 A  
HETATM   12  C   UNL     1      -8.953   9.591  65.152  1.00  0.00    -0.253 A  
HETATM   13  C   UNL     1      -9.444   9.043  66.338  1.00  0.00    -0.288 A  
HETATM   14  C   UNL     1     -10.406   9.712  67.109  1.00  0.00    -0.254 A  
BRANCH  14  15
HETATM   15  N   UNL     1     -11.002   9.039  68.199  1.00  0.00    -0.482 NA 
HETATM   16  H   UNL     1     -11.852   9.481  68.546  1.00  0.00     0.000 HD 
BRANCH  15  17
HETATM   17  C   UNL     1     -10.631   7.854  68.902  1.00  0.00    -0.145 A  
HETATM   18  C   UNL     1     -10.222   8.000  70.253  1.00  0.00    -0.200 A  
HETATM   19  C   UNL     1     -10.016   6.899  71.093  1.00  0.00    -0.187 A  
HETATM   20 CL   UNL     1      -9.957   9.572  70.938  1.00  0.00    -0.346 Cl 
HETATM   21  C   UNL     1     -10.193   5.613  70.604  1.00  0.00    -0.292 A  
HETATM   22  C   UNL     1     -10.498   5.433  69.259  1.00  0.00    -0.309 A  
HETATM   23  C   UNL     1     -10.695   6.534  68.405  1.00  0.00    -0.279 A  
HETATM   24 CL   UNL     1     -11.101   6.109  66.777  1.00  0.00    -0.346 Cl 
ENDBRANCH  15  17
ENDBRANCH  14  15
ENDBRANCH   8   9
ENDBRANCH   6   8
ENDBRANCH   5   6
ENDBRANCH   4   5
TORSDOF 6
ENDMDL
MODEL      212
REMARK 921   NORMALIZED FREE ENERGY PREDICTED BY IDOCK:   -4.65 KCAL/MOL
REMARK 922        TOTAL FREE ENERGY PREDICTED BY IDOCK:   -7.24 KCAL/MOL
REMARK 923 INTER-LIGAND FREE ENERGY PREDICTED BY IDOCK:   -6.31 KCAL/MOL
REMARK 924 INTRA-LIGAND FREE ENERGY PREDICTED BY IDOCK:   -0.93 KCAL/MOL
REMARK 927      BINDING AFFINITY PREDICTED BY RF-SCORE:    0.00 PKD
ROOT
HETATM    1  O   UNL     1     -11.729  15.941  68.675  1.00  0.00    -0.387 OA 
HETATM    2  C   UNL     1     -12.153  15.104  69.653  1.00  0.00    -0.304 C  
HETATM    3  O   UNL     1     -12.597  15.518  70.712  1.00  0.00    -0.409 OA 
HETATM    4  C   UNL     1     -12.011  13.632  69.280  1.00  0.00    -0.336 C  
ENDROOT
BRANCH   4   5
HETATM    5  O   UNL     1     -12.408  12.794  70.373  1.00  0.00    -0.318 OA 
BRANCH   5   6
HETATM    6  C   UNL     1     -12.192  11.462  70.215  1.00  0.00    -0.349 C  
HETATM    7  O   UNL     1     -12.980  10.581  70.517  1.00  0.00    -0.345 OA 
BRANCH   6   8
HETATM    8  C   UNL     1     -10.819  11.224  69.613  1.00  0.00    -0.155 C  
BRANCH   8   9
HETATM    9  C   UNL     1     -10.686   9.905  68.886  1.00  0.00    -0.244 A  
HETATM   10  C   UNL     1     -10.669   9.944  67.476  1.00  0.00    -0.333 A  
HETATM   11  C   UNL     1     -10.520   8.781  66.724  1.00  0.00    -0.283 A  
HETATM   12  C   UNL     1     -10.344   7.563  67.366  1.00  0.00    -0.346 A  
HETATM   13  C   UNL     1     -10.384   7.504  68.759  1.00  0.00    -0.212 A  
HETATM   14  C   UNL     1     -10.609   8.651  69.533  1.00  0.00    -0.213 A  
BRANCH  14  15
HETATM   15  N   UNL     1     -10.820   8.512  70.923  1.00  0.00    -0.225 NA 
HETATM   16  H   UNL     1     -11.117   9.370  71.387  1.00  0.00     0.000 HD 
BRANCH  15  17
HETATM   17  C   UNL     1     -10.693   7.390  71.796  1.00  0.00    -0.214 A  
HETATM   18  C   UNL     1     -11.868   6.649  72.079  1.00  0.00    -0.324 A  
HETATM   19  C   UNL     1     -11.834   5.430  72.766  1.00  0.00    -0.162 A  
HETATM   20 CL   UNL     1     -13.427   7.225  71.577  1.00  0.00    -0.456 Cl 
HETATM   21  C   UNL     1     -10.624   4.920  73.212  1.00  0.00    -0.289 A  
HETATM   22  C   UNL     1      -9.466   5.670  73.037  1.00  0.00    -0.155 A  
HETATM   23  C   UNL     1      -9.492   6.902  72.357  1.00  0.00    -0.139 A  
HETATM   24 CL   UNL     1      -7.948   7.668  72.210  1.00  0.00    -0.114 Cl 
ENDBRANCH  15  17
ENDBRANCH  14  15
ENDBRANCH   8   9
ENDBRANCH   6   8
ENDBRANCH   5   6
ENDBRANCH   4   5
TORSDOF 6
ENDMDL
MODEL      213
REMARK 921   NORMALIZED FREE ENERGY PREDICTED BY IDOCK:   -4.64 KCAL/MOL
REMARK 922        TOTAL FREE ENERGY PREDICTED BY IDOCK:   -7.23 KCAL/MOL
REMARK 923 INTER-LIGAND FREE ENERGY PREDICTED BY IDOCK:   -6.33 KCAL/MOL
REMARK 924 INTRA-LIGAND FREE ENERGY PREDICTED BY IDOCK:   -0.91 KCAL/MOL
REMARK 927      BINDING AFFINITY PREDICTED BY RF-SCORE:    0.00 PKD
ROOT
HETATM    1  O   UNL     1     -10.935  15.856  64.944  1.00  0.00    -0.443 OA 
HETATM    2  C   UNL     1     -11.630  14.787  65.403  1.00  0.00    -0.316 C  
HETATM    3  O   UNL     1     -12.494  14.240  64.735  1.00  0.00    -0.541 OA 
HETATM    4  C   UNL     1     -11.216  14.366  66.809  1.00  0.00    -0.337 C  
ENDROOT
BRANCH   4   5
HETATM    5  O   UNL     1     -12.028  13.278  67.270  1.00  0.00    -0.367 OA 
BRANCH   5   6
HETATM    6  C   UNL     1     -11.621  12.671  68.415  1.00  0.00    -0.328 C  
HETATM    7  O   UNL     1     -11.109  13.237  69.368  1.00  0.00    -0.197 OA 
BRANCH   6   8
HETATM    8  C   UNL     1     -11.891  11.179  68.340  1.00  0.00    -0.302 C  
BRANCH   8   9
HETATM    9  C   UNL     1     -11.894  10.486  69.683  1.00  0.00    -0.306 A  
HETATM   10  C   UNL     1     -13.006  10.705  70.522  1.00  0.00    -0.277 A  
HETATM   11  C   UNL     1     -13.107  10.083  71.764  1.00  0.00    -0.562 A  
HETATM   12  C   UNL     1     -12.120   9.199  72.175  1.00  0.00    -0.389 A  
HETATM   13  C   UNL     1     -11.001   8.990  71.368  1.00  0.00    -0.394 A  
HETATM   14  C   UNL     1     -10.843   9.664  70.148  1.00  0.00    -0.280 A  
BRANCH  14  15
HETATM   15  N   UNL     1      -9.614   9.557  69.459  1.00  0.00    -0.177 NA 
HETATM   16  H   UNL     1      -9.235  10.449  69.144  1.00  0.00     0.000 HD 
BRANCH  15  17
HETATM   17  C   UNL     1      -8.808   8.428  69.122  1.00  0.00    -0.142 A  
HETATM   18  C   UNL     1      -9.037   7.819  67.862  1.00  0.00    -0.131 A  
HETATM   19  C   UNL     1      -8.189   6.830  67.347  1.00  0.00    -0.122 A  
HETATM   20 CL   UNL     1     -10.394   8.278  66.883  1.00  0.00    -0.391 Cl 
HETATM   21  C   UNL     1      -7.095   6.403  68.085  1.00  0.00    -0.083 A  
HETATM   22  C   UNL     1      -6.900   6.910  69.365  1.00  0.00    -0.054 A  
HETATM   23  C   UNL     1      -7.754   7.896  69.895  1.00  0.00    -0.098 A  
HETATM   24 CL   UNL     1      -7.329   8.426  71.486  1.00  0.00    -0.090 Cl 
ENDBRANCH  15  17
ENDBRANCH  14  15
ENDBRANCH   8   9
ENDBRANCH   6   8
ENDBRANCH   5   6
ENDBRANCH   4   5
TORSDOF 6
ENDMDL
MODEL      214
REMARK 921   NORMALIZED FREE ENERGY PREDICTED BY IDOCK:   -4.64 KCAL/MOL
REMARK 922        TOTAL FREE ENERGY PREDICTED BY IDOCK:   -7.23 KCAL/MOL
REMARK 923 INTER-LIGAND FREE ENERGY PREDICTED BY IDOCK:   -5.86 KCAL/MOL
REMARK 924 INTRA-LIGAND FREE ENERGY PREDICTED BY IDOCK:   -1.37 KCAL/MOL
REMARK 927      BINDING AFFINITY PREDICTED BY RF-SCORE:    0.00 PKD
ROOT
HETATM    1  O   UNL     1     -10.628  11.176  62.967  1.00  0.00    -0.219 OA 
HETATM    2  C   UNL     1     -10.769  11.298  64.310  1.00  0.00    -0.349 C  
HETATM    3  O   UNL     1     -10.009  10.750  65.093  1.00  0.00    -0.250 OA 
HETATM    4  C   UNL     1     -11.951  12.175  64.707  1.00  0.00    -0.307 C  
ENDROOT
BRANCH   4   5
HETATM    5  O   UNL     1     -12.094  12.213  66.134  1.00  0.00    -0.621 OA 
BRANCH   5   6
HETATM    6  C   UNL     1     -11.833  13.406  66.729  1.00  0.00    -0.403 C  
HETATM    7  O   UNL     1     -12.330  14.475  66.413  1.00  0.00    -0.350 OA 
BRANCH   6   8
HETATM    8  C   UNL     1     -10.822  13.221  67.847  1.00  0.00    -0.260 C  
BRANCH   8   9
HETATM    9  C   UNL     1     -11.266  12.259  68.925  1.00  0.00    -0.323 A  
HETATM   10  C   UNL     1     -11.977  12.797  70.018  1.00  0.00    -0.371 A  
HETATM   11  C   UNL     1     -12.451  11.981  71.042  1.00  0.00    -0.376 A  
HETATM   12  C   UNL     1     -12.260  10.608  70.975  1.00  0.00    -0.498 A  
HETATM   13  C   UNL     1     -11.536  10.063  69.913  1.00  0.00    -0.274 A  
HETATM   14  C   UNL     1     -10.985  10.874  68.911  1.00  0.00    -0.229 A  
BRANCH  14  15
HETATM   15  N   UNL     1     -10.113  10.297  67.962  1.00  0.00    -0.156 NA 
HETATM   16  H   UNL     1     -10.352  10.510  66.993  1.00  0.00     0.000 HD 
BRANCH  15  17
HETATM   17  C   UNL     1      -8.960   9.469  68.110  1.00  0.00    -0.123 A  
HETATM   18  C   UNL     1      -9.154   8.066  68.055  1.00  0.00    -0.129 A  
HETATM   19  C   UNL     1      -8.084   7.166  68.001  1.00  0.00    -0.120 A  
HETATM   20 CL   UNL     1     -10.752   7.387  68.046  1.00  0.00    -0.225 Cl 
HETATM   21  C   UNL     1      -6.780   7.639  68.022  1.00  0.00    -0.063 A  
HETATM   22  C   UNL     1      -6.555   9.003  68.175  1.00  0.00    -0.060 A  
HETATM   23  C   UNL     1      -7.626   9.914  68.241  1.00  0.00    -0.080 A  
HETATM   24 CL   UNL     1      -7.145  11.568  68.397  1.00  0.00    -0.076 Cl 
ENDBRANCH  15  17
ENDBRANCH  14  15
ENDBRANCH   8   9
ENDBRANCH   6   8
ENDBRANCH   5   6
ENDBRANCH   4   5
TORSDOF 6
ENDMDL
MODEL      215
REMARK 921   NORMALIZED FREE ENERGY PREDICTED BY IDOCK:   -4.64 KCAL/MOL
REMARK 922        TOTAL FREE ENERGY PREDICTED BY IDOCK:   -7.23 KCAL/MOL
REMARK 923 INTER-LIGAND FREE ENERGY PREDICTED BY IDOCK:   -6.43 KCAL/MOL
REMARK 924 INTRA-LIGAND FREE ENERGY PREDICTED BY IDOCK:   -0.80 KCAL/MOL
REMARK 927      BINDING AFFINITY PREDICTED BY RF-SCORE:    0.00 PKD
ROOT
HETATM    1  O   UNL     1     -10.264   4.998  69.227  1.00  0.00    -0.216 OA 
HETATM    2  C   UNL     1     -10.714   6.244  69.515  1.00  0.00    -0.303 C  
HETATM    3  O   UNL     1     -11.501   6.454  70.424  1.00  0.00    -0.361 OA 
HETATM    4  C   UNL     1     -10.135   7.313  68.595  1.00  0.00    -0.176 C  
ENDROOT
BRANCH   4   5
HETATM    5  O   UNL     1     -10.695   8.598  68.899  1.00  0.00    -0.187 OA 
BRANCH   5   6
HETATM    6  C   UNL     1      -9.818   9.632  68.969  1.00  0.00    -0.182 C  
HETATM    7  O   UNL     1      -8.736   9.601  69.533  1.00  0.00    -0.155 OA 
BRANCH   6   8
HETATM    8  C   UNL     1     -10.380  10.844  68.248  1.00  0.00    -0.194 C  
BRANCH   8   9
HETATM    9  C   UNL     1     -11.150  11.789  69.140  1.00  0.00    -0.294 A  
HETATM   10  C   UNL     1     -12.018  11.216  70.093  1.00  0.00    -0.449 A  
HETATM   11  C   UNL     1     -12.745  12.010  70.977  1.00  0.00    -0.337 A  
HETATM   12  C   UNL     1     -12.588  13.388  70.954  1.00  0.00    -0.406 A  
HETATM   13  C   UNL     1     -11.753  13.973  70.001  1.00  0.00    -0.349 A  
HETATM   14  C   UNL     1     -11.071  13.198  69.053  1.00  0.00    -0.234 A  
BRANCH  14  15
HETATM   15  N   UNL     1     -10.385  13.845  68.002  1.00  0.00    -0.239 NA 
HETATM   16  H   UNL     1      -9.369  13.761  68.053  1.00  0.00     0.000 HD 
BRANCH  15  17
HETATM   17  C   UNL     1     -10.852  14.596  66.881  1.00  0.00    -0.305 A  
HETATM   18  C   UNL     1     -10.662  16.001  66.914  1.00  0.00    -0.262 A  
HETATM   19  C   UNL     1     -10.908  16.813  65.801  1.00  0.00    -0.088 A  
HETATM   20 CL   UNL     1     -10.104  16.791  68.355  1.00  0.00    -0.270 Cl 
HETATM   21  C   UNL     1     -11.372  16.249  64.622  1.00  0.00    -0.237 A  
HETATM   22  C   UNL     1     -11.663  14.889  64.588  1.00  0.00    -0.406 A  
HETATM   23  C   UNL     1     -11.429  14.067  65.706  1.00  0.00    -0.318 A  
HETATM   24 CL   UNL     1     -11.819  12.400  65.459  1.00  0.00    -0.465 Cl 
ENDBRANCH  15  17
ENDBRANCH  14  15
ENDBRANCH   8   9
ENDBRANCH   6   8
ENDBRANCH   5   6
ENDBRANCH   4   5
TORSDOF 6
ENDMDL
MODEL      216
REMARK 921   NORMALIZED FREE ENERGY PREDICTED BY IDOCK:   -4.64 KCAL/MOL
REMARK 922        TOTAL FREE ENERGY PREDICTED BY IDOCK:   -7.22 KCAL/MOL
REMARK 923 INTER-LIGAND FREE ENERGY PREDICTED BY IDOCK:   -6.55 KCAL/MOL
REMARK 924 INTRA-LIGAND FREE ENERGY PREDICTED BY IDOCK:   -0.67 KCAL/MOL
REMARK 927      BINDING AFFINITY PREDICTED BY RF-SCORE:    0.00 PKD
ROOT
HETATM    1  O   UNL     1     -12.901  15.664  71.366  1.00  0.00    -0.439 OA 
HETATM    2  C   UNL     1     -13.378  14.479  71.820  1.00  0.00    -0.363 C  
HETATM    3  O   UNL     1     -14.287  14.415  72.632  1.00  0.00    -0.480 OA 
HETATM    4  C   UNL     1     -12.664  13.277  71.211  1.00  0.00    -0.323 C  
ENDROOT
BRANCH   4   5
HETATM    5  O   UNL     1     -13.161  12.056  71.775  1.00  0.00    -0.445 OA 
BRANCH   5   6
HETATM    6  C   UNL     1     -12.654  10.907  71.256  1.00  0.00    -0.421 C  
HETATM    7  O   UNL     1     -12.327   9.927  71.904  1.00  0.00    -0.380 OA 
BRANCH   6   8
HETATM    8  C   UNL     1     -12.547  11.019  69.746  1.00  0.00    -0.151 C  
BRANCH   8   9
HETATM    9  C   UNL     1     -11.150  10.804  69.211  1.00  0.00    -0.312 A  
HETATM   10  C   UNL     1     -10.531  11.893  68.564  1.00  0.00    -0.240 A  
HETATM   11  C   UNL     1      -9.234  11.795  68.067  1.00  0.00    -0.181 A  
HETATM   12  C   UNL     1      -8.516  10.621  68.241  1.00  0.00    -0.127 A  
HETATM   13  C   UNL     1      -9.123   9.525  68.856  1.00  0.00    -0.141 A  
HETATM   14  C   UNL     1     -10.453   9.578  69.297  1.00  0.00    -0.212 A  
BRANCH  14  15
HETATM   15  N   UNL     1     -11.075   8.392  69.746  1.00  0.00    -0.433 NA 
HETATM   16  H   UNL     1     -12.044   8.516  70.040  1.00  0.00     0.000 HD 
BRANCH  15  17
HETATM   17  C   UNL     1     -10.597   7.052  69.862  1.00  0.00    -0.229 A  
HETATM   18  C   UNL     1     -10.425   6.535  71.172  1.00  0.00    -0.220 A  
HETATM   19  C   UNL     1     -10.142   5.185  71.409  1.00  0.00    -0.265 A  
HETATM   20 CL   UNL     1     -10.561   7.565  72.562  1.00  0.00    -0.291 Cl 
HETATM   21  C   UNL     1     -10.002   4.309  70.342  1.00  0.00    -0.213 A  
HETATM   22  C   UNL     1     -10.068   4.804  69.044  1.00  0.00    -0.171 A  
HETATM   23  C   UNL     1     -10.340   6.163  68.796  1.00  0.00    -0.209 A  
HETATM   24 CL   UNL     1     -10.417   6.580  67.119  1.00  0.00    -0.310 Cl 
ENDBRANCH  15  17
ENDBRANCH  14  15
ENDBRANCH   8   9
ENDBRANCH   6   8
ENDBRANCH   5   6
ENDBRANCH   4   5
TORSDOF 6
ENDMDL
MODEL      217
REMARK 921   NORMALIZED FREE ENERGY PREDICTED BY IDOCK:   -4.63 KCAL/MOL
REMARK 922        TOTAL FREE ENERGY PREDICTED BY IDOCK:   -7.22 KCAL/MOL
REMARK 923 INTER-LIGAND FREE ENERGY PREDICTED BY IDOCK:   -6.58 KCAL/MOL
REMARK 924 INTRA-LIGAND FREE ENERGY PREDICTED BY IDOCK:   -0.64 KCAL/MOL
REMARK 927      BINDING AFFINITY PREDICTED BY RF-SCORE:    0.00 PKD
ROOT
HETATM    1  O   UNL     1     -14.159   7.846  71.454  1.00  0.00    -0.371 OA 
HETATM    2  C   UNL     1     -12.803   7.867  71.452  1.00  0.00    -0.280 C  
HETATM    3  O   UNL     1     -12.140   6.871  71.212  1.00  0.00    -0.335 OA 
HETATM    4  C   UNL     1     -12.229   9.242  71.776  1.00  0.00    -0.385 C  
ENDROOT
BRANCH   4   5
HETATM    5  O   UNL     1     -10.797   9.192  71.827  1.00  0.00    -0.351 OA 
BRANCH   5   6
HETATM    6  C   UNL     1     -10.145   9.506  70.677  1.00  0.00    -0.286 C  
HETATM    7  O   UNL     1      -8.988   9.216  70.423  1.00  0.00    -0.187 OA 
BRANCH   6   8
HETATM    8  C   UNL     1     -11.066  10.278  69.750  1.00  0.00    -0.340 C  
BRANCH   8   9
HETATM    9  C   UNL     1     -10.518  10.465  68.353  1.00  0.00    -0.216 A  
HETATM   10  C   UNL     1     -10.571   9.355  67.485  1.00  0.00    -0.333 A  
HETATM   11  C   UNL     1     -10.117   9.444  66.171  1.00  0.00    -0.324 A  
HETATM   12  C   UNL     1      -9.639  10.654  65.688  1.00  0.00    -0.268 A  
HETATM   13  C   UNL     1      -9.555  11.755  66.541  1.00  0.00    -0.225 A  
HETATM   14  C   UNL     1      -9.937  11.666  67.888  1.00  0.00    -0.182 A  
BRANCH  14  15
HETATM   15  N   UNL     1      -9.666  12.751  68.751  1.00  0.00    -0.416 NA 
HETATM   16  H   UNL     1      -9.039  12.521  69.523  1.00  0.00     0.000 HD 
BRANCH  15  17
HETATM   17  C   UNL     1     -10.108  14.108  68.741  1.00  0.00    -0.198 A  
HETATM   18  C   UNL     1     -11.148  14.459  69.639  1.00  0.00    -0.202 A  
HETATM   19  C   UNL     1     -11.534  15.788  69.850  1.00  0.00    -0.347 A  
HETATM   20 CL   UNL     1     -12.004  13.242  70.532  1.00  0.00    -0.371 Cl 
HETATM   21  C   UNL     1     -10.904  16.810  69.156  1.00  0.00    -0.287 A  
HETATM   22  C   UNL     1      -9.948  16.491  68.197  1.00  0.00    -0.248 A  
HETATM   23  C   UNL     1      -9.563  15.157  67.970  1.00  0.00    -0.204 A  
HETATM   24 CL   UNL     1      -8.336  14.964  66.765  1.00  0.00    -0.223 Cl 
ENDBRANCH  15  17
ENDBRANCH  14  15
ENDBRANCH   8   9
ENDBRANCH   6   8
ENDBRANCH   5   6
ENDBRANCH   4   5
TORSDOF 6
ENDMDL
MODEL      218
REMARK 921   NORMALIZED FREE ENERGY PREDICTED BY IDOCK:   -4.63 KCAL/MOL
REMARK 922        TOTAL FREE ENERGY PREDICTED BY IDOCK:   -7.22 KCAL/MOL
REMARK 923 INTER-LIGAND FREE ENERGY PREDICTED BY IDOCK:   -6.22 KCAL/MOL
REMARK 924 INTRA-LIGAND FREE ENERGY PREDICTED BY IDOCK:   -0.99 KCAL/MOL
REMARK 927      BINDING AFFINITY PREDICTED BY RF-SCORE:    0.00 PKD
ROOT
HETATM    1  O   UNL     1     -10.656   5.185  70.283  1.00  0.00    -0.262 OA 
HETATM    2  C   UNL     1     -11.004   6.231  69.494  1.00  0.00    -0.379 C  
HETATM    3  O   UNL     1     -11.502   7.248  69.950  1.00  0.00    -0.175 OA 
HETATM    4  C   UNL     1     -10.709   5.988  68.018  1.00  0.00    -0.282 C  
ENDROOT
BRANCH   4   5
HETATM    5  O   UNL     1     -11.159   7.094  67.225  1.00  0.00    -0.288 OA 
BRANCH   5   6
HETATM    6  C   UNL     1     -10.190   7.842  66.636  1.00  0.00    -0.233 C  
HETATM    7  O   UNL     1      -9.253   7.399  65.991  1.00  0.00    -0.140 OA 
BRANCH   6   8
HETATM    8  C   UNL     1     -10.435   9.317  66.900  1.00  0.00    -0.284 C  
BRANCH   8   9
HETATM    9  C   UNL     1      -9.342   9.989  67.699  1.00  0.00    -0.159 A  
HETATM   10  C   UNL     1      -9.109   9.510  69.005  1.00  0.00    -0.144 A  
HETATM   11  C   UNL     1      -8.102  10.049  69.802  1.00  0.00    -0.188 A  
HETATM   12  C   UNL     1      -7.283  11.048  69.296  1.00  0.00    -0.124 A  
HETATM   13  C   UNL     1      -7.517  11.551  68.016  1.00  0.00    -0.098 A  
HETATM   14  C   UNL     1      -8.572  11.075  67.225  1.00  0.00    -0.130 A  
BRANCH  14  15
HETATM   15  N   UNL     1      -8.877  11.738  66.015  1.00  0.00    -0.377 NA 
HETATM   16  H   UNL     1      -8.062  11.950  65.440  1.00  0.00     0.000 HD 
BRANCH  15  17
HETATM   17  C   UNL     1     -10.117  12.164  65.452  1.00  0.00    -0.255 A  
HETATM   18  C   UNL     1     -10.339  11.882  64.080  1.00  0.00    -0.364 A  
HETATM   19  C   UNL     1     -11.582  12.084  63.468  1.00  0.00    -0.553 A  
HETATM   20 CL   UNL     1      -9.063  11.262  63.080  1.00  0.00    -0.274 Cl 
HETATM   21  C   UNL     1     -12.641  12.594  64.205  1.00  0.00    -0.442 A  
HETATM   22  C   UNL     1     -12.429  12.973  65.526  1.00  0.00    -0.496 A  
HETATM   23  C   UNL     1     -11.180  12.784  66.145  1.00  0.00    -0.298 A  
HETATM   24 CL   UNL     1     -11.122  13.284  67.801  1.00  0.00    -0.277 Cl 
ENDBRANCH  15  17
ENDBRANCH  14  15
ENDBRANCH   8   9
ENDBRANCH   6   8
ENDBRANCH   5   6
ENDBRANCH   4   5
TORSDOF 6
ENDMDL
MODEL      219
REMARK 921   NORMALIZED FREE ENERGY PREDICTED BY IDOCK:   -4.62 KCAL/MOL
REMARK 922        TOTAL FREE ENERGY PREDICTED BY IDOCK:   -7.20 KCAL/MOL
REMARK 923 INTER-LIGAND FREE ENERGY PREDICTED BY IDOCK:   -6.73 KCAL/MOL
REMARK 924 INTRA-LIGAND FREE ENERGY PREDICTED BY IDOCK:   -0.47 KCAL/MOL
REMARK 927      BINDING AFFINITY PREDICTED BY RF-SCORE:    0.00 PKD
ROOT
HETATM    1  O   UNL     1      -9.551  18.934  66.117  1.00  0.00    -0.413 OA 
HETATM    2  C   UNL     1     -10.322  17.886  65.738  1.00  0.00    -0.180 C  
HETATM    3  O   UNL     1     -11.142  17.977  64.838  1.00  0.00    -0.738 OA 
HETATM    4  C   UNL     1     -10.049  16.623  66.547  1.00  0.00    -0.305 C  
ENDROOT
BRANCH   4   5
HETATM    5  O   UNL     1     -10.937  15.569  66.151  1.00  0.00    -0.316 OA 
BRANCH   5   6
HETATM    6  C   UNL     1     -10.750  14.368  66.759  1.00  0.00    -0.292 C  
HETATM    7  O   UNL     1      -9.666  13.875  67.025  1.00  0.00    -0.236 OA 
BRANCH   6   8
HETATM    8  C   UNL     1     -12.090  13.720  67.058  1.00  0.00    -0.436 C  
BRANCH   8   9
HETATM    9  C   UNL     1     -12.232  13.225  68.479  1.00  0.00    -0.104 A  
HETATM   10  C   UNL     1     -12.384  14.197  69.489  1.00  0.00    -0.275 A  
HETATM   11  C   UNL     1     -12.552  13.831  70.823  1.00  0.00    -0.410 A  
HETATM   12  C   UNL     1     -12.611  12.489  71.168  1.00  0.00    -0.349 A  
HETATM   13  C   UNL     1     -12.436  11.515  70.184  1.00  0.00    -0.239 A  
HETATM   14  C   UNL     1     -12.192  11.861  68.847  1.00  0.00    -0.006 A  
BRANCH  14  15
HETATM   15  N   UNL     1     -11.844  10.847  67.927  1.00  0.00    -0.735 NA 
HETATM   16  H   UNL     1     -12.644  10.382  67.499  1.00  0.00     0.000 HD 
BRANCH  15  17
HETATM   17  C   UNL     1     -10.578  10.355  67.489  1.00  0.00    -0.262 A  
HETATM   18  C   UNL     1      -9.785   9.661  68.439  1.00  0.00    -0.150 A  
HETATM   19  C   UNL     1      -8.619   8.976  68.079  1.00  0.00    -0.129 A  
HETATM   20 CL   UNL     1     -10.232   9.625  70.116  1.00  0.00    -0.288 Cl 
HETATM   21  C   UNL     1      -8.194   8.979  66.758  1.00  0.00    -0.115 A  
HETATM   22  C   UNL     1      -8.895   9.731  65.821  1.00  0.00    -0.180 A  
HETATM   23  C   UNL     1     -10.062  10.431  66.177  1.00  0.00    -0.237 A  
HETATM   24 CL   UNL     1     -10.812  11.278  64.867  1.00  0.00    -0.333 Cl 
ENDBRANCH  15  17
ENDBRANCH  14  15
ENDBRANCH   8   9
ENDBRANCH   6   8
ENDBRANCH   5   6
ENDBRANCH   4   5
TORSDOF 6
ENDMDL
MODEL      220
REMARK 921   NORMALIZED FREE ENERGY PREDICTED BY IDOCK:   -4.61 KCAL/MOL
REMARK 922        TOTAL FREE ENERGY PREDICTED BY IDOCK:   -7.19 KCAL/MOL
REMARK 923 INTER-LIGAND FREE ENERGY PREDICTED BY IDOCK:   -6.09 KCAL/MOL
REMARK 924 INTRA-LIGAND FREE ENERGY PREDICTED BY IDOCK:   -1.10 KCAL/MOL
REMARK 927      BINDING AFFINITY PREDICTED BY RF-SCORE:    0.00 PKD
ROOT
HETATM    1  O   UNL     1     -10.494   8.440  66.719  1.00  0.00    -0.314 OA 
HETATM    2  C   UNL     1     -10.471   7.134  67.081  1.00  0.00    -0.319 C  
HETATM    3  O   UNL     1     -11.384   6.370  66.810  1.00  0.00    -0.257 OA 
HETATM    4  C   UNL     1      -9.206   6.749  67.841  1.00  0.00    -0.112 C  
ENDROOT
BRANCH   4   5
HETATM    5  O   UNL     1      -9.265   5.378  68.256  1.00  0.00    -0.108 OA 
BRANCH   5   6
HETATM    6  C   UNL     1      -9.168   5.152  69.593  1.00  0.00    -0.119 C  
HETATM    7  O   UNL     1      -8.170   4.750  70.168  1.00  0.00    -0.068 OA 
BRANCH   6   8
HETATM    8  C   UNL     1     -10.488   5.468  70.273  1.00  0.00    -0.365 C  
BRANCH   8   9
HETATM    9  C   UNL     1     -10.348   5.925  71.706  1.00  0.00    -0.263 A  
HETATM   10  C   UNL     1     -10.738   5.018  72.714  1.00  0.00    -0.292 A  
HETATM   11  C   UNL     1     -10.615   5.343  74.063  1.00  0.00    -0.305 A  
HETATM   12  C   UNL     1     -10.064   6.561  74.432  1.00  0.00    -0.371 A  
HETATM   13  C   UNL     1      -9.697   7.480  73.447  1.00  0.00    -0.346 A  
HETATM   14  C   UNL     1      -9.882   7.204  72.085  1.00  0.00    -0.153 A  
BRANCH  14  15
HETATM   15  N   UNL     1      -9.665   8.232  71.140  1.00  0.00    -0.159 NA 
HETATM   16  H   UNL     1      -8.763   8.178  70.667  1.00  0.00     0.000 HD 
BRANCH  15  17
HETATM   17  C   UNL     1     -10.476   9.332  70.729  1.00  0.00    -0.276 A  
HETATM   18  C   UNL     1      -9.932  10.214  69.761  1.00  0.00    -0.220 A  
HETATM   19  C   UNL     1     -10.698  11.212  69.148  1.00  0.00    -0.262 A  
HETATM   20 CL   UNL     1      -8.268  10.095  69.282  1.00  0.00    -0.143 Cl 
HETATM   21  C   UNL     1     -12.030  11.374  69.496  1.00  0.00    -0.409 A  
HETATM   22  C   UNL     1     -12.567  10.590  70.512  1.00  0.00    -0.423 A  
HETATM   23  C   UNL     1     -11.800   9.592  71.142  1.00  0.00    -0.358 A  
HETATM   24 CL   UNL     1     -12.652   8.698  72.354  1.00  0.00    -0.450 Cl 
ENDBRANCH  15  17
ENDBRANCH  14  15
ENDBRANCH   8   9
ENDBRANCH   6   8
ENDBRANCH   5   6
ENDBRANCH   4   5
TORSDOF 6
ENDMDL
MODEL      221
REMARK 921   NORMALIZED FREE ENERGY PREDICTED BY IDOCK:   -4.61 KCAL/MOL
REMARK 922        TOTAL FREE ENERGY PREDICTED BY IDOCK:   -7.19 KCAL/MOL
REMARK 923 INTER-LIGAND FREE ENERGY PREDICTED BY IDOCK:   -6.29 KCAL/MOL
REMARK 924 INTRA-LIGAND FREE ENERGY PREDICTED BY IDOCK:   -0.90 KCAL/MOL
REMARK 927      BINDING AFFINITY PREDICTED BY RF-SCORE:    0.00 PKD
ROOT
HETATM    1  O   UNL     1     -13.415  11.649  72.034  1.00  0.00    -0.411 OA 
HETATM    2  C   UNL     1     -12.962  10.407  71.733  1.00  0.00    -0.475 C  
HETATM    3  O   UNL     1     -13.317   9.419  72.356  1.00  0.00    -0.452 OA 
HETATM    4  C   UNL     1     -11.987  10.398  70.561  1.00  0.00    -0.334 C  
ENDROOT
BRANCH   4   5
HETATM    5  O   UNL     1     -11.488   9.073  70.330  1.00  0.00    -0.251 OA 
BRANCH   5   6
HETATM    6  C   UNL     1     -10.141   8.956  70.192  1.00  0.00    -0.190 C  
HETATM    7  O   UNL     1      -9.323   9.164  71.073  1.00  0.00    -0.248 OA 
BRANCH   6   8
HETATM    8  C   UNL     1      -9.796   8.533  68.776  1.00  0.00    -0.180 C  
BRANCH   8   9
HETATM    9  C   UNL     1      -8.765   9.411  68.105  1.00  0.00    -0.124 A  
HETATM   10  C   UNL     1      -7.409   9.070  68.288  1.00  0.00    -0.082 A  
HETATM   11  C   UNL     1      -6.392   9.805  67.682  1.00  0.00    -0.060 A  
HETATM   12  C   UNL     1      -6.712  10.868  66.851  1.00  0.00    -0.106 A  
HETATM   13  C   UNL     1      -8.047  11.235  66.680  1.00  0.00    -0.160 A  
HETATM   14  C   UNL     1      -9.082  10.556  67.340  1.00  0.00    -0.139 A  
BRANCH  14  15
HETATM   15  N   UNL     1     -10.394  11.076  67.277  1.00  0.00    -0.202 NA 
HETATM   16  H   UNL     1     -11.053  10.618  67.906  1.00  0.00     0.000 HD 
BRANCH  15  17
HETATM   17  C   UNL     1     -10.965  12.125  66.496  1.00  0.00    -0.284 A  
HETATM   18  C   UNL     1     -11.439  13.268  67.188  1.00  0.00    -0.341 A  
HETATM   19  C   UNL     1     -11.845  14.430  66.520  1.00  0.00    -0.406 A  
HETATM   20 CL   UNL     1     -11.536  13.283  68.921  1.00  0.00    -0.331 Cl 
HETATM   21  C   UNL     1     -11.809  14.479  65.135  1.00  0.00    -0.374 A  
HETATM   22  C   UNL     1     -11.443  13.342  64.423  1.00  0.00    -0.416 A  
HETATM   23  C   UNL     1     -11.044  12.166  65.086  1.00  0.00    -0.322 A  
HETATM   24 CL   UNL     1     -10.592  10.871  64.032  1.00  0.00    -0.403 Cl 
ENDBRANCH  15  17
ENDBRANCH  14  15
ENDBRANCH   8   9
ENDBRANCH   6   8
ENDBRANCH   5   6
ENDBRANCH   4   5
TORSDOF 6
ENDMDL
MODEL      222
REMARK 921   NORMALIZED FREE ENERGY PREDICTED BY IDOCK:   -4.61 KCAL/MOL
REMARK 922        TOTAL FREE ENERGY PREDICTED BY IDOCK:   -7.19 KCAL/MOL
REMARK 923 INTER-LIGAND FREE ENERGY PREDICTED BY IDOCK:   -6.39 KCAL/MOL
REMARK 924 INTRA-LIGAND FREE ENERGY PREDICTED BY IDOCK:   -0.80 KCAL/MOL
REMARK 927      BINDING AFFINITY PREDICTED BY RF-SCORE:    0.00 PKD
ROOT
HETATM    1  O   UNL     1     -12.496  16.067  71.748  1.00  0.00    -0.459 OA 
HETATM    2  C   UNL     1     -13.133  14.873  71.679  1.00  0.00    -0.341 C  
HETATM    3  O   UNL     1     -14.332  14.766  71.886  1.00  0.00    -0.472 OA 
HETATM    4  C   UNL     1     -12.201  13.719  71.326  1.00  0.00    -0.227 C  
ENDROOT
BRANCH   4   5
HETATM    5  O   UNL     1     -12.913  12.475  71.335  1.00  0.00    -0.358 OA 
BRANCH   5   6
HETATM    6  C   UNL     1     -12.318  11.440  70.685  1.00  0.00    -0.373 C  
HETATM    7  O   UNL     1     -11.981  10.387  71.200  1.00  0.00    -0.352 OA 
BRANCH   6   8
HETATM    8  C   UNL     1     -12.125  11.786  69.219  1.00  0.00    -0.292 C  
BRANCH   8   9
HETATM    9  C   UNL     1     -11.016  11.012  68.545  1.00  0.00    -0.276 A  
HETATM   10  C   UNL     1     -11.241   9.641  68.303  1.00  0.00    -0.008 A  
HETATM   11  C   UNL     1     -10.287   8.856  67.659  1.00  0.00    -0.313 A  
HETATM   12  C   UNL     1      -9.109   9.434  67.208  1.00  0.00    -0.150 A  
HETATM   13  C   UNL     1      -8.860  10.783  67.462  1.00  0.00    -0.128 A  
HETATM   14  C   UNL     1      -9.774  11.574  68.174  1.00  0.00    -0.192 A  
BRANCH  14  15
HETATM   15  N   UNL     1      -9.397  12.879  68.560  1.00  0.00    -0.378 NA 
HETATM   16  H   UNL     1      -9.205  12.979  69.557  1.00  0.00     0.000 HD 
BRANCH  15  17
HETATM   17  C   UNL     1      -9.238  14.084  67.811  1.00  0.00    -0.195 A  
HETATM   18  C   UNL     1      -8.035  14.812  67.999  1.00  0.00    -0.136 A  
HETATM   19  C   UNL     1      -7.688  15.899  67.188  1.00  0.00    -0.247 A  
HETATM   20 CL   UNL     1      -6.920  14.382  69.257  1.00  0.00    -0.126 Cl 
HETATM   21  C   UNL     1      -8.542  16.307  66.174  1.00  0.00    -0.342 A  
HETATM   22  C   UNL     1      -9.773  15.677  66.029  1.00  0.00    -0.378 A  
HETATM   23  C   UNL     1     -10.135  14.590  66.846  1.00  0.00    -0.257 A  
HETATM   24 CL   UNL     1     -11.689  13.917  66.490  1.00  0.00    -0.388 Cl 
ENDBRANCH  15  17
ENDBRANCH  14  15
ENDBRANCH   8   9
ENDBRANCH   6   8
ENDBRANCH   5   6
ENDBRANCH   4   5
TORSDOF 6
ENDMDL
MODEL      223
REMARK 921   NORMALIZED FREE ENERGY PREDICTED BY IDOCK:   -4.60 KCAL/MOL
REMARK 922        TOTAL FREE ENERGY PREDICTED BY IDOCK:   -7.18 KCAL/MOL
REMARK 923 INTER-LIGAND FREE ENERGY PREDICTED BY IDOCK:   -6.18 KCAL/MOL
REMARK 924 INTRA-LIGAND FREE ENERGY PREDICTED BY IDOCK:   -1.00 KCAL/MOL
REMARK 927      BINDING AFFINITY PREDICTED BY RF-SCORE:    0.00 PKD
ROOT
HETATM    1  O   UNL     1      -7.514   5.743  67.309  1.00  0.00    -0.079 OA 
HETATM    2  C   UNL     1      -8.255   6.585  68.071  1.00  0.00    -0.116 C  
HETATM    3  O   UNL     1      -9.009   6.177  68.940  1.00  0.00    -0.124 OA 
HETATM    4  C   UNL     1      -8.038   8.052  67.720  1.00  0.00    -0.128 C  
ENDROOT
BRANCH   4   5
HETATM    5  O   UNL     1      -8.894   8.891  68.507  1.00  0.00    -0.133 OA 
BRANCH   5   6
HETATM    6  C   UNL     1      -9.526   9.894  67.842  1.00  0.00    -0.133 C  
HETATM    7  O   UNL     1      -8.980  10.711  67.119  1.00  0.00    -0.137 OA 
BRANCH   6   8
HETATM    8  C   UNL     1     -11.015   9.857  68.134  1.00  0.00    -0.261 C  
BRANCH   8   9
HETATM    9  C   UNL     1     -11.494  10.973  69.032  1.00  0.00    -0.368 A  
HETATM   10  C   UNL     1     -12.032  10.610  70.284  1.00  0.00    -0.425 A  
HETATM   11  C   UNL     1     -12.471  11.574  71.189  1.00  0.00    -0.442 A  
HETATM   12  C   UNL     1     -12.343  12.920  70.878  1.00  0.00    -0.365 A  
HETATM   13  C   UNL     1     -11.836  13.296  69.633  1.00  0.00    -0.391 A  
HETATM   14  C   UNL     1     -11.459  12.341  68.678  1.00  0.00    -0.307 A  
BRANCH  14  15
HETATM   15  N   UNL     1     -11.124  12.769  67.374  1.00  0.00    -0.263 NA 
HETATM   16  H   UNL     1     -11.427  12.131  66.637  1.00  0.00     0.000 HD 
BRANCH  15  17
HETATM   17  C   UNL     1     -10.441  13.928  66.899  1.00  0.00    -0.276 A  
HETATM   18  C   UNL     1     -11.114  14.737  65.949  1.00  0.00    -0.340 A  
HETATM   19  C   UNL     1     -10.626  15.988  65.554  1.00  0.00    -0.415 A  
HETATM   20 CL   UNL     1     -12.599  14.207  65.221  1.00  0.00    -0.481 Cl 
HETATM   21  C   UNL     1      -9.436  16.464  66.083  1.00  0.00    -0.363 A  
HETATM   22  C   UNL     1      -8.702  15.654  66.942  1.00  0.00    -0.283 A  
HETATM   23  C   UNL     1      -9.180  14.389  67.336  1.00  0.00    -0.198 A  
HETATM   24 CL   UNL     1      -8.144  13.546  68.435  1.00  0.00    -0.150 Cl 
ENDBRANCH  15  17
ENDBRANCH  14  15
ENDBRANCH   8   9
ENDBRANCH   6   8
ENDBRANCH   5   6
ENDBRANCH   4   5
TORSDOF 6
ENDMDL
MODEL      224
REMARK 921   NORMALIZED FREE ENERGY PREDICTED BY IDOCK:   -4.59 KCAL/MOL
REMARK 922        TOTAL FREE ENERGY PREDICTED BY IDOCK:   -7.17 KCAL/MOL
REMARK 923 INTER-LIGAND FREE ENERGY PREDICTED BY IDOCK:   -6.10 KCAL/MOL
REMARK 924 INTRA-LIGAND FREE ENERGY PREDICTED BY IDOCK:   -1.07 KCAL/MOL
REMARK 927      BINDING AFFINITY PREDICTED BY RF-SCORE:    0.00 PKD
ROOT
HETATM    1  O   UNL     1      -8.240   7.349  67.267  1.00  0.00    -0.113 OA 
HETATM    2  C   UNL     1      -9.439   7.961  67.424  1.00  0.00    -0.144 C  
HETATM    3  O   UNL     1     -10.161   8.225  66.475  1.00  0.00    -0.273 OA 
HETATM    4  C   UNL     1      -9.764   8.270  68.881  1.00  0.00    -0.164 C  
ENDROOT
BRANCH   4   5
HETATM    5  O   UNL     1     -11.007   8.976  68.983  1.00  0.00    -0.120 OA 
BRANCH   5   6
HETATM    6  C   UNL     1     -10.969  10.165  69.638  1.00  0.00    -0.264 C  
HETATM    7  O   UNL     1     -10.326  10.391  70.650  1.00  0.00     0.042 OA 
BRANCH   6   8
HETATM    8  C   UNL     1     -11.852  11.179  68.933  1.00  0.00    -0.406 C  
BRANCH   8   9
HETATM    9  C   UNL     1     -11.543  12.616  69.286  1.00  0.00    -0.376 A  
HETATM   10  C   UNL     1     -12.250  13.181  70.368  1.00  0.00    -0.389 A  
HETATM   11  C   UNL     1     -12.008  14.489  70.783  1.00  0.00    -0.388 A  
HETATM   12  C   UNL     1     -11.029  15.242  70.153  1.00  0.00    -0.312 A  
HETATM   13  C   UNL     1     -10.338  14.707  69.064  1.00  0.00    -0.237 A  
HETATM   14  C   UNL     1     -10.618  13.420  68.583  1.00  0.00    -0.241 A  
BRANCH  14  15
HETATM   15  N   UNL     1     -10.024  12.994  67.374  1.00  0.00    -0.225 NA 
HETATM   16  H   UNL     1      -9.006  12.940  67.408  1.00  0.00     0.000 HD 
BRANCH  15  17
HETATM   17  C   UNL     1     -10.587  12.628  66.115  1.00  0.00    -0.258 A  
HETATM   18  C   UNL     1      -9.943  11.592  65.392  1.00  0.00    -0.248 A  
HETATM   19  C   UNL     1     -10.505  11.023  64.243  1.00  0.00    -0.427 A  
HETATM   20 CL   UNL     1      -8.407  10.968  65.905  1.00  0.00    -0.151 Cl 
HETATM   21  C   UNL     1     -11.723  11.486  63.767  1.00  0.00    -0.276 A  
HETATM   22  C   UNL     1     -12.332  12.567  64.396  1.00  0.00    -0.537 A  
HETATM   23  C   UNL     1     -11.768  13.152  65.545  1.00  0.00    -0.357 A  
HETATM   24 CL   UNL     1     -12.688  14.459  66.205  1.00  0.00    -0.234 Cl 
ENDBRANCH  15  17
ENDBRANCH  14  15
ENDBRANCH   8   9
ENDBRANCH   6   8
ENDBRANCH   5   6
ENDBRANCH   4   5
TORSDOF 6
ENDMDL
MODEL      225
REMARK 921   NORMALIZED FREE ENERGY PREDICTED BY IDOCK:   -4.59 KCAL/MOL
REMARK 922        TOTAL FREE ENERGY PREDICTED BY IDOCK:   -7.16 KCAL/MOL
REMARK 923 INTER-LIGAND FREE ENERGY PREDICTED BY IDOCK:   -7.27 KCAL/MOL
REMARK 924 INTRA-LIGAND FREE ENERGY PREDICTED BY IDOCK:    0.11 KCAL/MOL
REMARK 927      BINDING AFFINITY PREDICTED BY RF-SCORE:    0.00 PKD
ROOT
HETATM    1  O   UNL     1     -10.843  19.724  67.138  1.00  0.00    -0.452 OA 
HETATM    2  C   UNL     1     -10.658  18.939  66.048  1.00  0.00    -0.403 C  
HETATM    3  O   UNL     1     -10.881  19.339  64.916  1.00  0.00    -0.236 OA 
HETATM    4  C   UNL     1     -10.157  17.542  66.399  1.00  0.00    -0.345 C  
ENDROOT
BRANCH   4   5
HETATM    5  O   UNL     1     -10.046  16.735  65.219  1.00  0.00    -0.577 OA 
BRANCH   5   6
HETATM    6  C   UNL     1     -11.123  15.965  64.916  1.00  0.00    -0.389 C  
HETATM    7  O   UNL     1     -11.884  16.157  63.981  1.00  0.00    -0.876 OA 
BRANCH   6   8
HETATM    8  C   UNL     1     -11.250  14.829  65.914  1.00  0.00    -0.340 C  
BRANCH   8   9
HETATM    9  C   UNL     1     -10.995  13.461  65.326  1.00  0.00    -0.306 A  
HETATM   10  C   UNL     1     -11.304  13.276  63.962  1.00  0.00    -0.403 A  
HETATM   11  C   UNL     1     -11.073  12.057  63.329  1.00  0.00    -0.400 A  
HETATM   12  C   UNL     1     -10.492  11.013  64.033  1.00  0.00    -0.433 A  
HETATM   13  C   UNL     1     -10.203  11.171  65.390  1.00  0.00    -0.327 A  
HETATM   14  C   UNL     1     -10.497  12.364  66.065  1.00  0.00    -0.254 A  
BRANCH  14  15
HETATM   15  N   UNL     1     -10.354  12.411  67.470  1.00  0.00    -0.213 NA 
HETATM   16  H   UNL     1     -10.295  11.495  67.913  1.00  0.00     0.000 HD 
BRANCH  15  17
HETATM   17  C   UNL     1     -10.278  13.506  68.381  1.00  0.00    -0.245 A  
HETATM   18  C   UNL     1      -9.141  14.349  68.292  1.00  0.00    -0.193 A  
HETATM   19  C   UNL     1      -9.047  15.553  69.002  1.00  0.00    -0.236 A  
HETATM   20 CL   UNL     1      -7.794  13.926  67.282  1.00  0.00    -0.171 Cl 
HETATM   21  C   UNL     1     -10.079  15.944  69.841  1.00  0.00    -0.191 A  
HETATM   22  C   UNL     1     -11.163  15.092  70.026  1.00  0.00    -0.301 A  
HETATM   23  C   UNL     1     -11.261  13.876  69.325  1.00  0.00    -0.251 A  
HETATM   24 CL   UNL     1     -12.697  12.972  69.662  1.00  0.00     0.271 Cl 
ENDBRANCH  15  17
ENDBRANCH  14  15
ENDBRANCH   8   9
ENDBRANCH   6   8
ENDBRANCH   5   6
ENDBRANCH   4   5
TORSDOF 6
ENDMDL
MODEL      226
REMARK 921   NORMALIZED FREE ENERGY PREDICTED BY IDOCK:   -4.58 KCAL/MOL
REMARK 922        TOTAL FREE ENERGY PREDICTED BY IDOCK:   -7.15 KCAL/MOL
REMARK 923 INTER-LIGAND FREE ENERGY PREDICTED BY IDOCK:   -6.54 KCAL/MOL
REMARK 924 INTRA-LIGAND FREE ENERGY PREDICTED BY IDOCK:   -0.61 KCAL/MOL
REMARK 927      BINDING AFFINITY PREDICTED BY RF-SCORE:    0.00 PKD
ROOT
HETATM    1  O   UNL     1     -11.797  15.978  63.869  1.00  0.00    -0.810 OA 
HETATM    2  C   UNL     1     -12.211  14.714  64.127  1.00  0.00    -0.315 C  
HETATM    3  O   UNL     1     -12.595  13.965  63.242  1.00  0.00    -0.824 OA 
HETATM    4  C   UNL     1     -12.141  14.354  65.607  1.00  0.00    -0.354 C  
ENDROOT
BRANCH   4   5
HETATM    5  O   UNL     1     -12.654  13.034  65.830  1.00  0.00    -0.500 OA 
BRANCH   5   6
HETATM    6  C   UNL     1     -11.800  12.150  66.409  1.00  0.00    -0.246 C  
HETATM    7  O   UNL     1     -10.976  11.474  65.814  1.00  0.00    -0.292 OA 
BRANCH   6   8
HETATM    8  C   UNL     1     -12.020  12.118  67.911  1.00  0.00    -0.218 C  
BRANCH   8   9
HETATM    9  C   UNL     1     -11.009  11.284  68.664  1.00  0.00    -0.266 A  
HETATM   10  C   UNL     1     -11.502  10.408  69.652  1.00  0.00    -0.326 A  
HETATM   11  C   UNL     1     -10.646   9.580  70.374  1.00  0.00    -0.333 A  
HETATM   12  C   UNL     1      -9.288   9.581  70.095  1.00  0.00    -0.286 A  
HETATM   13  C   UNL     1      -8.780  10.461  69.138  1.00  0.00    -0.173 A  
HETATM   14  C   UNL     1      -9.614  11.356  68.453  1.00  0.00    -0.197 A  
BRANCH  14  15
HETATM   15  N   UNL     1      -9.030  12.345  67.630  1.00  0.00    -0.174 NA 
HETATM   16  H   UNL     1      -9.396  12.363  66.678  1.00  0.00     0.000 HD 
BRANCH  15  17
HETATM   17  C   UNL     1      -8.023  13.323  67.887  1.00  0.00    -0.159 A  
HETATM   18  C   UNL     1      -8.442  14.558  68.445  1.00  0.00    -0.163 A  
HETATM   19  C   UNL     1      -7.531  15.513  68.910  1.00  0.00    -0.158 A  
HETATM   20 CL   UNL     1     -10.128  14.947  68.583  1.00  0.00    -0.230 Cl 
HETATM   21  C   UNL     1      -6.168  15.275  68.814  1.00  0.00    -0.090 A  
HETATM   22  C   UNL     1      -5.724  14.118  68.182  1.00  0.00    -0.128 A  
HETATM   23  C   UNL     1      -6.633  13.157  67.702  1.00  0.00    -0.162 A  
HETATM   24 CL   UNL     1      -5.890  11.771  66.980  1.00  0.00    -0.135 Cl 
ENDBRANCH  15  17
ENDBRANCH  14  15
ENDBRANCH   8   9
ENDBRANCH   6   8
ENDBRANCH   5   6
ENDBRANCH   4   5
TORSDOF 6
ENDMDL
MODEL      227
REMARK 921   NORMALIZED FREE ENERGY PREDICTED BY IDOCK:   -4.58 KCAL/MOL
REMARK 922        TOTAL FREE ENERGY PREDICTED BY IDOCK:   -7.14 KCAL/MOL
REMARK 923 INTER-LIGAND FREE ENERGY PREDICTED BY IDOCK:   -6.09 KCAL/MOL
REMARK 924 INTRA-LIGAND FREE ENERGY PREDICTED BY IDOCK:   -1.05 KCAL/MOL
REMARK 927      BINDING AFFINITY PREDICTED BY RF-SCORE:    0.00 PKD
ROOT
HETATM    1  O   UNL     1      -6.755  12.613  69.165  1.00  0.00    -0.102 OA 
HETATM    2  C   UNL     1      -7.208  11.386  68.807  1.00  0.00    -0.107 C  
HETATM    3  O   UNL     1      -7.444  10.517  69.632  1.00  0.00    -0.143 OA 
HETATM    4  C   UNL     1      -7.379  11.230  67.300  1.00  0.00    -0.122 C  
ENDROOT
BRANCH   4   5
HETATM    5  O   UNL     1      -7.793   9.897  66.974  1.00  0.00    -0.101 OA 
BRANCH   5   6
HETATM    6  C   UNL     1      -8.837   9.788  66.112  1.00  0.00    -0.141 C  
HETATM    7  O   UNL     1      -8.740   9.681  64.900  1.00  0.00    -0.156 OA 
BRANCH   6   8
HETATM    8  C   UNL     1     -10.150   9.824  66.874  1.00  0.00    -0.287 C  
BRANCH   8   9
HETATM    9  C   UNL     1     -10.435   8.571  67.668  1.00  0.00    -0.308 A  
HETATM   10  C   UNL     1     -10.741   7.402  66.942  1.00  0.00    -0.324 A  
HETATM   11  C   UNL     1     -10.988   6.194  67.591  1.00  0.00    -0.400 A  
HETATM   12  C   UNL     1     -10.895   6.121  68.973  1.00  0.00    -0.416 A  
HETATM   13  C   UNL     1     -10.619   7.275  69.708  1.00  0.00    -0.247 A  
HETATM   14  C   UNL     1     -10.441   8.516  69.081  1.00  0.00    -0.205 A  
BRANCH  14  15
HETATM   15  N   UNL     1     -10.344   9.680  69.875  1.00  0.00    -0.230 NA 
HETATM   16  H   UNL     1      -9.406   9.863  70.233  1.00  0.00     0.000 HD 
BRANCH  15  17
HETATM   17  C   UNL     1     -11.317  10.646  70.270  1.00  0.00    -0.319 A  
HETATM   18  C   UNL     1     -12.186  10.297  71.335  1.00  0.00    -0.383 A  
HETATM   19  C   UNL     1     -13.050  11.225  71.928  1.00  0.00    -0.510 A  
HETATM   20 CL   UNL     1     -12.218   8.680  71.965  1.00  0.00    -0.409 Cl 
HETATM   21  C   UNL     1     -13.088  12.531  71.462  1.00  0.00    -0.373 A  
HETATM   22  C   UNL     1     -12.321  12.880  70.355  1.00  0.00    -0.333 A  
HETATM   23  C   UNL     1     -11.458  11.950  69.746  1.00  0.00    -0.229 A  
HETATM   24 CL   UNL     1     -10.562  12.580  68.407  1.00  0.00    -0.247 Cl 
ENDBRANCH  15  17
ENDBRANCH  14  15
ENDBRANCH   8   9
ENDBRANCH   6   8
ENDBRANCH   5   6
ENDBRANCH   4   5
TORSDOF 6
ENDMDL
MODEL      228
REMARK 921   NORMALIZED FREE ENERGY PREDICTED BY IDOCK:   -4.57 KCAL/MOL
REMARK 922        TOTAL FREE ENERGY PREDICTED BY IDOCK:   -7.13 KCAL/MOL
REMARK 923 INTER-LIGAND FREE ENERGY PREDICTED BY IDOCK:   -6.09 KCAL/MOL
REMARK 924 INTRA-LIGAND FREE ENERGY PREDICTED BY IDOCK:   -1.05 KCAL/MOL
REMARK 927      BINDING AFFINITY PREDICTED BY RF-SCORE:    0.00 PKD
ROOT
HETATM    1  O   UNL     1      -9.651   5.652  72.590  1.00  0.00    -0.150 OA 
HETATM    2  C   UNL     1     -10.378   6.795  72.598  1.00  0.00    -0.201 C  
HETATM    3  O   UNL     1     -10.787   7.295  73.635  1.00  0.00    -0.356 OA 
HETATM    4  C   UNL     1     -10.616   7.360  71.202  1.00  0.00    -0.222 C  
ENDROOT
BRANCH   4   5
HETATM    5  O   UNL     1     -11.446   8.528  71.265  1.00  0.00    -0.258 OA 
BRANCH   5   6
HETATM    6  C   UNL     1     -11.084   9.564  70.464  1.00  0.00    -0.283 C  
HETATM    7  O   UNL     1     -11.482  10.712  70.575  1.00  0.00    -0.311 OA 
BRANCH   6   8
HETATM    8  C   UNL     1     -10.112   9.086  69.400  1.00  0.00    -0.198 C  
BRANCH   8   9
HETATM    9  C   UNL     1      -9.143  10.147  68.931  1.00  0.00    -0.165 A  
HETATM   10  C   UNL     1      -7.963  10.322  69.683  1.00  0.00    -0.164 A  
HETATM   11  C   UNL     1      -6.999  11.255  69.308  1.00  0.00    -0.119 A  
HETATM   12  C   UNL     1      -7.176  12.001  68.152  1.00  0.00    -0.090 A  
HETATM   13  C   UNL     1      -8.350  11.859  67.410  1.00  0.00    -0.163 A  
HETATM   14  C   UNL     1      -9.366  10.980  67.812  1.00  0.00    -0.158 A  
BRANCH  14  15
HETATM   15  N   UNL     1     -10.603  11.004  67.131  1.00  0.00    -0.236 NA 
HETATM   16  H   UNL     1     -11.234  10.245  67.387  1.00  0.00     0.000 HD 
BRANCH  15  17
HETATM   17  C   UNL     1     -11.132  11.897  66.151  1.00  0.00    -0.326 A  
HETATM   18  C   UNL     1     -11.857  13.022  66.620  1.00  0.00    -0.393 A  
HETATM   19  C   UNL     1     -12.260  14.057  65.768  1.00  0.00    -0.475 A  
HETATM   20 CL   UNL     1     -12.284  13.172  68.295  1.00  0.00    -0.189 Cl 
HETATM   21  C   UNL     1     -11.967  13.993  64.414  1.00  0.00    -0.480 A  
HETATM   22  C   UNL     1     -11.345  12.857  63.907  1.00  0.00    -0.489 A  
HETATM   23  C   UNL     1     -10.947  11.806  64.754  1.00  0.00    -0.303 A  
HETATM   24 CL   UNL     1     -10.157  10.497  63.944  1.00  0.00    -0.357 Cl 
ENDBRANCH  15  17
ENDBRANCH  14  15
ENDBRANCH   8   9
ENDBRANCH   6   8
ENDBRANCH   5   6
ENDBRANCH   4   5
TORSDOF 6
ENDMDL
MODEL      229
REMARK 921   NORMALIZED FREE ENERGY PREDICTED BY IDOCK:   -4.57 KCAL/MOL
REMARK 922        TOTAL FREE ENERGY PREDICTED BY IDOCK:   -7.13 KCAL/MOL
REMARK 923 INTER-LIGAND FREE ENERGY PREDICTED BY IDOCK:   -6.26 KCAL/MOL
REMARK 924 INTRA-LIGAND FREE ENERGY PREDICTED BY IDOCK:   -0.87 KCAL/MOL
REMARK 927      BINDING AFFINITY PREDICTED BY RF-SCORE:    0.00 PKD
ROOT
HETATM    1  O   UNL     1     -13.458  12.187  72.153  1.00  0.00    -0.494 OA 
HETATM    2  C   UNL     1     -12.805  11.190  71.507  1.00  0.00    -0.437 C  
HETATM    3  O   UNL     1     -11.979  11.414  70.637  1.00  0.00    -0.352 OA 
HETATM    4  C   UNL     1     -13.216   9.802  71.985  1.00  0.00    -0.460 C  
ENDROOT
BRANCH   4   5
HETATM    5  O   UNL     1     -12.547   8.787  71.224  1.00  0.00    -0.306 OA 
BRANCH   5   6
HETATM    6  C   UNL     1     -13.010   7.520  71.378  1.00  0.00    -0.335 C  
HETATM    7  O   UNL     1     -14.161   7.219  71.653  1.00  0.00    -0.412 OA 
BRANCH   6   8
HETATM    8  C   UNL     1     -11.885   6.523  71.165  1.00  0.00    -0.383 C  
BRANCH   8   9
HETATM    9  C   UNL     1     -10.664   6.781  72.016  1.00  0.00    -0.245 A  
HETATM   10  C   UNL     1     -10.856   6.877  73.410  1.00  0.00    -0.303 A  
HETATM   11  C   UNL     1      -9.784   7.084  74.274  1.00  0.00    -0.263 A  
HETATM   12  C   UNL     1      -8.494   7.158  73.767  1.00  0.00    -0.176 A  
HETATM   13  C   UNL     1      -8.289   7.091  72.388  1.00  0.00    -0.120 A  
HETATM   14  C   UNL     1      -9.362   6.958  71.495  1.00  0.00    -0.155 A  
BRANCH  14  15
HETATM   15  N   UNL     1      -9.120   7.076  70.109  1.00  0.00    -0.149 NA 
HETATM   16  H   UNL     1      -8.463   7.817  69.863  1.00  0.00     0.000 HD 
BRANCH  15  17
HETATM   17  C   UNL     1      -9.626   6.350  68.990  1.00  0.00    -0.131 A  
HETATM   18  C   UNL     1     -10.269   7.094  67.968  1.00  0.00    -0.185 A  
HETATM   19  C   UNL     1     -10.637   6.519  66.746  1.00  0.00    -0.323 A  
HETATM   20 CL   UNL     1     -10.633   8.777  68.186  1.00  0.00    -0.239 Cl 
HETATM   21  C   UNL     1     -10.393   5.174  66.512  1.00  0.00    -0.336 A  
HETATM   22  C   UNL     1      -9.854   4.395  67.530  1.00  0.00    -0.180 A  
HETATM   23  C   UNL     1      -9.491   4.962  68.766  1.00  0.00    -0.145 A  
HETATM   24 CL   UNL     1      -8.805   3.841  69.891  1.00  0.00    -0.132 Cl 
ENDBRANCH  15  17
ENDBRANCH  14  15
ENDBRANCH   8   9
ENDBRANCH   6   8
ENDBRANCH   5   6
ENDBRANCH   4   5
TORSDOF 6
ENDMDL
MODEL      230
REMARK 921   NORMALIZED FREE ENERGY PREDICTED BY IDOCK:   -4.55 KCAL/MOL
REMARK 922        TOTAL FREE ENERGY PREDICTED BY IDOCK:   -7.11 KCAL/MOL
REMARK 923 INTER-LIGAND FREE ENERGY PREDICTED BY IDOCK:   -6.41 KCAL/MOL
REMARK 924 INTRA-LIGAND FREE ENERGY PREDICTED BY IDOCK:   -0.70 KCAL/MOL
REMARK 927      BINDING AFFINITY PREDICTED BY RF-SCORE:    0.00 PKD
ROOT
HETATM    1  O   UNL     1      -6.809   8.949  65.632  1.00  0.00    -0.074 OA 
HETATM    2  C   UNL     1      -7.104   9.685  66.730  1.00  0.00    -0.086 C  
HETATM    3  O   UNL     1      -7.480   9.172  67.773  1.00  0.00    -0.084 OA 
HETATM    4  C   UNL     1      -6.916  11.183  66.512  1.00  0.00    -0.126 C  
ENDROOT
BRANCH   4   5
HETATM    5  O   UNL     1      -7.307  11.916  67.680  1.00  0.00    -0.105 OA 
BRANCH   5   6
HETATM    6  C   UNL     1      -7.028  13.246  67.674  1.00  0.00    -0.160 C  
HETATM    7  O   UNL     1      -6.069  13.761  67.123  1.00  0.00    -0.224 OA 
BRANCH   6   8
HETATM    8  C   UNL     1      -8.082  14.004  68.460  1.00  0.00    -0.139 C  
BRANCH   8   9
HETATM    9  C   UNL     1      -9.341  14.298  67.677  1.00  0.00    -0.201 A  
HETATM   10  C   UNL     1      -9.192  14.629  66.315  1.00  0.00    -0.257 A  
HETATM   11  C   UNL     1     -10.300  14.885  65.509  1.00  0.00    -0.388 A  
HETATM   12  C   UNL     1     -11.577  14.776  66.039  1.00  0.00    -0.286 A  
HETATM   13  C   UNL     1     -11.741  14.475  67.392  1.00  0.00    -0.425 A  
HETATM   14  C   UNL     1     -10.638  14.287  68.238  1.00  0.00    -0.245 A  
BRANCH  14  15
HETATM   15  N   UNL     1     -10.853  14.165  69.628  1.00  0.00    -0.450 NA 
HETATM   16  H   UNL     1     -10.200  14.703  70.199  1.00  0.00     0.000 HD 
BRANCH  15  17
HETATM   17  C   UNL     1     -11.814  13.425  70.381  1.00  0.00    -0.208 A  
HETATM   18  C   UNL     1     -11.856  12.022  70.182  1.00  0.00    -0.301 A  
HETATM   19  C   UNL     1     -12.621  11.176  70.994  1.00  0.00    -0.503 A  
HETATM   20 CL   UNL     1     -10.944  11.275  68.909  1.00  0.00    -0.248 Cl 
HETATM   21  C   UNL     1     -13.388  11.709  72.019  1.00  0.00    -0.405 A  
HETATM   22  C   UNL     1     -13.446  13.089  72.178  1.00  0.00    -0.638 A  
HETATM   23  C   UNL     1     -12.688  13.948  71.359  1.00  0.00    -0.365 A  
HETATM   24 CL   UNL     1     -12.865  15.628  71.732  1.00  0.00    -0.494 Cl 
ENDBRANCH  15  17
ENDBRANCH  14  15
ENDBRANCH   8   9
ENDBRANCH   6   8
ENDBRANCH   5   6
ENDBRANCH   4   5
TORSDOF 6
ENDMDL
MODEL      231
REMARK 921   NORMALIZED FREE ENERGY PREDICTED BY IDOCK:   -4.54 KCAL/MOL
REMARK 922        TOTAL FREE ENERGY PREDICTED BY IDOCK:   -7.10 KCAL/MOL
REMARK 923 INTER-LIGAND FREE ENERGY PREDICTED BY IDOCK:   -6.18 KCAL/MOL
REMARK 924 INTRA-LIGAND FREE ENERGY PREDICTED BY IDOCK:   -0.91 KCAL/MOL
REMARK 927      BINDING AFFINITY PREDICTED BY RF-SCORE:    0.00 PKD
ROOT
HETATM    1  O   UNL     1     -11.185  16.394  64.182  1.00  0.00    -0.882 OA 
HETATM    2  C   UNL     1     -11.870  15.311  64.624  1.00  0.00    -0.267 C  
HETATM    3  O   UNL     1     -12.682  14.728  63.923  1.00  0.00    -0.794 OA 
HETATM    4  C   UNL     1     -11.514  14.924  66.055  1.00  0.00    -0.275 C  
ENDROOT
BRANCH   4   5
HETATM    5  O   UNL     1     -12.314  13.819  66.494  1.00  0.00    -0.428 OA 
BRANCH   5   6
HETATM    6  C   UNL     1     -11.643  12.678  66.800  1.00  0.00    -0.374 C  
HETATM    7  O   UNL     1     -12.142  11.677  67.289  1.00  0.00    -0.595 OA 
BRANCH   6   8
HETATM    8  C   UNL     1     -10.173  12.827  66.453  1.00  0.00    -0.263 C  
BRANCH   8   9
HETATM    9  C   UNL     1      -9.580  11.625  65.756  1.00  0.00    -0.255 A  
HETATM   10  C   UNL     1     -10.052  11.331  64.460  1.00  0.00    -0.348 A  
HETATM   11  C   UNL     1      -9.540  10.260  63.731  1.00  0.00    -0.344 A  
HETATM   12  C   UNL     1      -8.519   9.487  64.265  1.00  0.00    -0.193 A  
HETATM   13  C   UNL     1      -8.058   9.749  65.556  1.00  0.00    -0.125 A  
HETATM   14  C   UNL     1      -8.611  10.775  66.336  1.00  0.00    -0.158 A  
BRANCH  14  15
HETATM   15  N   UNL     1      -8.237  10.883  67.694  1.00  0.00    -0.115 NA 
HETATM   16  H   UNL     1      -8.258  11.836  68.057  1.00  0.00     0.000 HD 
BRANCH  15  17
HETATM   17  C   UNL     1      -7.835   9.903  68.650  1.00  0.00    -0.086 A  
HETATM   18  C   UNL     1      -8.765   8.878  68.962  1.00  0.00    -0.136 A  
HETATM   19  C   UNL     1      -8.417   7.766  69.738  1.00  0.00    -0.133 A  
HETATM   20 CL   UNL     1     -10.400   8.954  68.386  1.00  0.00    -0.230 Cl 
HETATM   21  C   UNL     1      -7.132   7.651  70.246  1.00  0.00    -0.058 A  
HETATM   22  C   UNL     1      -6.225   8.686  70.041  1.00  0.00    -0.034 A  
HETATM   23  C   UNL     1      -6.570   9.813  69.271  1.00  0.00    -0.052 A  
HETATM   24 CL   UNL     1      -5.300  10.975  69.100  1.00  0.00    -0.041 Cl 
ENDBRANCH  15  17
ENDBRANCH  14  15
ENDBRANCH   8   9
ENDBRANCH   6   8
ENDBRANCH   5   6
ENDBRANCH   4   5
TORSDOF 6
ENDMDL
MODEL      232
REMARK 921   NORMALIZED FREE ENERGY PREDICTED BY IDOCK:   -4.54 KCAL/MOL
REMARK 922        TOTAL FREE ENERGY PREDICTED BY IDOCK:   -7.09 KCAL/MOL
REMARK 923 INTER-LIGAND FREE ENERGY PREDICTED BY IDOCK:   -6.27 KCAL/MOL
REMARK 924 INTRA-LIGAND FREE ENERGY PREDICTED BY IDOCK:   -0.82 KCAL/MOL
REMARK 927      BINDING AFFINITY PREDICTED BY RF-SCORE:    0.00 PKD
ROOT
HETATM    1  O   UNL     1     -10.176   7.704  67.595  1.00  0.00    -0.183 OA 
HETATM    2  C   UNL     1      -9.402   8.796  67.379  1.00  0.00    -0.137 C  
HETATM    3  O   UNL     1      -8.388   8.747  66.700  1.00  0.00    -0.106 OA 
HETATM    4  C   UNL     1      -9.935  10.048  68.065  1.00  0.00    -0.150 C  
ENDROOT
BRANCH   4   5
HETATM    5  O   UNL     1      -9.044  11.153  67.861  1.00  0.00    -0.143 OA 
BRANCH   5   6
HETATM    6  C   UNL     1      -9.529  12.184  67.121  1.00  0.00    -0.190 C  
HETATM    7  O   UNL     1     -10.224  12.070  66.124  1.00  0.00    -0.216 OA 
BRANCH   6   8
HETATM    8  C   UNL     1      -9.075  13.508  67.709  1.00  0.00    -0.207 C  
BRANCH   8   9
HETATM    9  C   UNL     1     -10.144  14.231  68.495  1.00  0.00    -0.246 A  
HETATM   10  C   UNL     1     -11.195  13.453  69.024  1.00  0.00    -0.323 A  
HETATM   11  C   UNL     1     -12.207  14.031  69.787  1.00  0.00    -0.396 A  
HETATM   12  C   UNL     1     -12.168  15.388  70.070  1.00  0.00    -0.392 A  
HETATM   13  C   UNL     1     -11.150  16.177  69.533  1.00  0.00    -0.344 A  
HETATM   14  C   UNL     1     -10.163  15.629  68.701  1.00  0.00    -0.212 A  
BRANCH  14  15
HETATM   15  N   UNL     1      -9.264  16.495  68.040  1.00  0.00    -0.211 NA 
HETATM   16  H   UNL     1      -8.316  16.127  67.957  1.00  0.00     0.000 HD 
BRANCH  15  17
HETATM   17  C   UNL     1      -9.439  17.791  67.468  1.00  0.00    -0.257 A  
HETATM   18  C   UNL     1     -10.267  17.890  66.322  1.00  0.00    -0.363 A  
HETATM   19  C   UNL     1     -10.660  19.124  65.789  1.00  0.00    -0.417 A  
HETATM   20 CL   UNL     1     -10.845  16.466  65.514  1.00  0.00    -0.276 Cl 
HETATM   21  C   UNL     1     -10.220  20.302  66.375  1.00  0.00    -0.463 A  
HETATM   22  C   UNL     1      -9.328  20.239  67.439  1.00  0.00    -0.531 A  
HETATM   23  C   UNL     1      -8.919  19.003  67.974  1.00  0.00    -0.308 A  
HETATM   24 CL   UNL     1      -7.836  19.131  69.317  1.00  0.00    -0.203 Cl 
ENDBRANCH  15  17
ENDBRANCH  14  15
ENDBRANCH   8   9
ENDBRANCH   6   8
ENDBRANCH   5   6
ENDBRANCH   4   5
TORSDOF 6
ENDMDL
MODEL      233
REMARK 921   NORMALIZED FREE ENERGY PREDICTED BY IDOCK:   -4.53 KCAL/MOL
REMARK 922        TOTAL FREE ENERGY PREDICTED BY IDOCK:   -7.08 KCAL/MOL
REMARK 923 INTER-LIGAND FREE ENERGY PREDICTED BY IDOCK:   -6.46 KCAL/MOL
REMARK 924 INTRA-LIGAND FREE ENERGY PREDICTED BY IDOCK:   -0.62 KCAL/MOL
REMARK 927      BINDING AFFINITY PREDICTED BY RF-SCORE:    0.00 PKD
ROOT
HETATM    1  O   UNL     1      -8.581  12.872  66.976  1.00  0.00    -0.200 OA 
HETATM    2  C   UNL     1      -7.706  13.455  67.832  1.00  0.00    -0.153 C  
HETATM    3  O   UNL     1      -7.146  12.824  68.715  1.00  0.00    -0.094 OA 
HETATM    4  C   UNL     1      -7.513  14.943  67.565  1.00  0.00    -0.200 C  
ENDROOT
BRANCH   4   5
HETATM    5  O   UNL     1      -6.633  15.521  68.538  1.00  0.00    -0.104 OA 
BRANCH   5   6
HETATM    6  C   UNL     1      -6.795  16.848  68.779  1.00  0.00    -0.195 C  
HETATM    7  O   UNL     1      -5.909  17.685  68.733  1.00  0.00    -0.165 OA 
BRANCH   6   8
HETATM    8  C   UNL     1      -8.244  17.143  69.123  1.00  0.00    -0.010 C  
BRANCH   8   9
HETATM    9  C   UNL     1      -8.942  18.042  68.128  1.00  0.00    -0.287 A  
HETATM   10  C   UNL     1      -8.155  19.006  67.466  1.00  0.00    -0.292 A  
HETATM   11  C   UNL     1      -8.707  19.857  66.511  1.00  0.00    -0.406 A  
HETATM   12  C   UNL     1     -10.046  19.733  66.170  1.00  0.00    -0.600 A  
HETATM   13  C   UNL     1     -10.845  18.801  66.834  1.00  0.00    -0.297 A  
HETATM   14  C   UNL     1     -10.327  17.987  67.851  1.00  0.00    -0.392 A  
BRANCH  14  15
HETATM   15  N   UNL     1     -11.212  17.193  68.613  1.00  0.00    -0.163 NA 
HETATM   16  H   UNL     1     -11.833  17.727  69.220  1.00  0.00     0.000 HD 
BRANCH  15  17
HETATM   17  C   UNL     1     -11.396  15.779  68.688  1.00  0.00    -0.369 A  
HETATM   18  C   UNL     1     -11.672  15.226  69.965  1.00  0.00    -0.315 A  
HETATM   19  C   UNL     1     -12.052  13.890  70.132  1.00  0.00    -0.418 A  
HETATM   20 CL   UNL     1     -11.553  16.195  71.400  1.00  0.00    -0.511 Cl 
HETATM   21  C   UNL     1     -12.150  13.054  69.029  1.00  0.00    -0.220 A  
HETATM   22  C   UNL     1     -11.791  13.540  67.776  1.00  0.00    -0.398 A  
HETATM   23  C   UNL     1     -11.396  14.879  67.600  1.00  0.00    -0.337 A  
HETATM   24 CL   UNL     1     -11.023  15.304  65.965  1.00  0.00    -0.332 Cl 
ENDBRANCH  15  17
ENDBRANCH  14  15
ENDBRANCH   8   9
ENDBRANCH   6   8
ENDBRANCH   5   6
ENDBRANCH   4   5
TORSDOF 6
ENDMDL
MODEL      234
REMARK 921   NORMALIZED FREE ENERGY PREDICTED BY IDOCK:   -4.53 KCAL/MOL
REMARK 922        TOTAL FREE ENERGY PREDICTED BY IDOCK:   -7.08 KCAL/MOL
REMARK 923 INTER-LIGAND FREE ENERGY PREDICTED BY IDOCK:   -5.64 KCAL/MOL
REMARK 924 INTRA-LIGAND FREE ENERGY PREDICTED BY IDOCK:   -1.44 KCAL/MOL
REMARK 927      BINDING AFFINITY PREDICTED BY RF-SCORE:    0.00 PKD
ROOT
HETATM    1  O   UNL     1     -10.635  11.168  62.929  1.00  0.00    -0.127 OA 
HETATM    2  C   UNL     1     -10.785  11.292  64.270  1.00  0.00    -0.349 C  
HETATM    3  O   UNL     1     -10.022  10.757  65.059  1.00  0.00    -0.255 OA 
HETATM    4  C   UNL     1     -11.983  12.151  64.658  1.00  0.00    -0.323 C  
ENDROOT
BRANCH   4   5
HETATM    5  O   UNL     1     -12.134  12.192  66.083  1.00  0.00    -0.621 OA 
BRANCH   5   6
HETATM    6  C   UNL     1     -11.929  13.399  66.673  1.00  0.00    -0.399 C  
HETATM    7  O   UNL     1     -12.470  14.443  66.346  1.00  0.00    -0.389 OA 
BRANCH   6   8
HETATM    8  C   UNL     1     -10.920  13.266  67.799  1.00  0.00    -0.278 C  
BRANCH   8   9
HETATM    9  C   UNL     1     -11.276  12.213  68.823  1.00  0.00    -0.314 A  
HETATM   10  C   UNL     1     -12.148  12.594  69.864  1.00  0.00    -0.322 A  
HETATM   11  C   UNL     1     -12.554  11.681  70.835  1.00  0.00    -0.409 A  
HETATM   12  C   UNL     1     -12.130  10.362  70.761  1.00  0.00    -0.463 A  
HETATM   13  C   UNL     1     -11.247   9.975  69.752  1.00  0.00    -0.307 A  
HETATM   14  C   UNL     1     -10.767  10.895  68.809  1.00  0.00    -0.207 A  
BRANCH  14  15
HETATM   15  N   UNL     1      -9.741  10.498  67.923  1.00  0.00    -0.152 NA 
HETATM   16  H   UNL     1      -9.945  10.681  66.941  1.00  0.00     0.000 HD 
BRANCH  15  17
HETATM   17  C   UNL     1      -8.471   9.887  68.151  1.00  0.00    -0.114 A  
HETATM   18  C   UNL     1      -7.348  10.745  68.268  1.00  0.00    -0.086 A  
HETATM   19  C   UNL     1      -6.093  10.279  68.674  1.00  0.00    -0.047 A  
HETATM   20 CL   UNL     1      -7.480  12.438  67.911  1.00  0.00    -0.108 Cl 
HETATM   21  C   UNL     1      -5.913   8.933  68.959  1.00  0.00    -0.043 A  
HETATM   22  C   UNL     1      -6.968   8.050  68.759  1.00  0.00    -0.066 A  
HETATM   23  C   UNL     1      -8.231   8.508  68.340  1.00  0.00    -0.123 A  
HETATM   24 CL   UNL     1      -9.425   7.266  68.183  1.00  0.00    -0.134 Cl 
ENDBRANCH  15  17
ENDBRANCH  14  15
ENDBRANCH   8   9
ENDBRANCH   6   8
ENDBRANCH   5   6
ENDBRANCH   4   5
TORSDOF 6
ENDMDL
MODEL      235
REMARK 921   NORMALIZED FREE ENERGY PREDICTED BY IDOCK:   -4.52 KCAL/MOL
REMARK 922        TOTAL FREE ENERGY PREDICTED BY IDOCK:   -7.07 KCAL/MOL
REMARK 923 INTER-LIGAND FREE ENERGY PREDICTED BY IDOCK:   -6.27 KCAL/MOL
REMARK 924 INTRA-LIGAND FREE ENERGY PREDICTED BY IDOCK:   -0.80 KCAL/MOL
REMARK 927      BINDING AFFINITY PREDICTED BY RF-SCORE:    0.00 PKD
ROOT
HETATM    1  O   UNL     1      -9.401   3.870  68.797  1.00  0.00    -0.144 OA 
HETATM    2  C   UNL     1      -9.077   5.145  69.121  1.00  0.00    -0.102 C  
HETATM    3  O   UNL     1      -8.178   5.749  68.558  1.00  0.00    -0.106 OA 
HETATM    4  C   UNL     1      -9.945   5.714  70.239  1.00  0.00    -0.207 C  
ENDROOT
BRANCH   4   5
HETATM    5  O   UNL     1      -9.516   7.037  70.588  1.00  0.00    -0.165 OA 
BRANCH   5   6
HETATM    6  C   UNL     1     -10.419   8.032  70.389  1.00  0.00    -0.218 C  
HETATM    7  O   UNL     1     -11.622   7.937  70.574  1.00  0.00    -0.247 OA 
BRANCH   6   8
HETATM    8  C   UNL     1      -9.717   9.284  69.895  1.00  0.00    -0.220 C  
BRANCH   8   9
HETATM    9  C   UNL     1      -9.500   9.319  68.400  1.00  0.00    -0.145 A  
HETATM   10  C   UNL     1      -8.292   8.782  67.909  1.00  0.00    -0.118 A  
HETATM   11  C   UNL     1      -8.021   8.744  66.544  1.00  0.00    -0.103 A  
HETATM   12  C   UNL     1      -8.967   9.204  65.640  1.00  0.00    -0.249 A  
HETATM   13  C   UNL     1     -10.157   9.762  66.109  1.00  0.00    -0.315 A  
HETATM   14  C   UNL     1     -10.418   9.878  67.482  1.00  0.00    -0.255 A  
BRANCH  14  15
HETATM   15  N   UNL     1     -11.550  10.610  67.906  1.00  0.00    -0.687 NA 
HETATM   16  H   UNL     1     -12.349  10.030  68.161  1.00  0.00     0.000 HD 
BRANCH  15  17
HETATM   17  C   UNL     1     -11.779  12.012  68.043  1.00  0.00    -0.331 A  
HETATM   18  C   UNL     1     -11.988  12.512  69.354  1.00  0.00    -0.256 A  
HETATM   19  C   UNL     1     -12.036  13.883  69.630  1.00  0.00    -0.404 A  
HETATM   20 CL   UNL     1     -12.193  11.432  70.697  1.00  0.00    -0.473 Cl 
HETATM   21  C   UNL     1     -11.897  14.802  68.600  1.00  0.00    -0.334 A  
HETATM   22  C   UNL     1     -11.789  14.344  67.292  1.00  0.00    -0.434 A  
HETATM   23  C   UNL     1     -11.751  12.967  67.004  1.00  0.00    -0.385 A  
HETATM   24 CL   UNL     1     -11.578  12.594  65.323  1.00  0.00    -0.370 Cl 
ENDBRANCH  15  17
ENDBRANCH  14  15
ENDBRANCH   8   9
ENDBRANCH   6   8
ENDBRANCH   5   6
ENDBRANCH   4   5
TORSDOF 6
ENDMDL
MODEL      236
REMARK 921   NORMALIZED FREE ENERGY PREDICTED BY IDOCK:   -4.52 KCAL/MOL
REMARK 922        TOTAL FREE ENERGY PREDICTED BY IDOCK:   -7.06 KCAL/MOL
REMARK 923 INTER-LIGAND FREE ENERGY PREDICTED BY IDOCK:   -5.85 KCAL/MOL
REMARK 924 INTRA-LIGAND FREE ENERGY PREDICTED BY IDOCK:   -1.21 KCAL/MOL
REMARK 927      BINDING AFFINITY PREDICTED BY RF-SCORE:    0.00 PKD
ROOT
HETATM    1  O   UNL     1      -6.790  10.046  63.389  1.00  0.00    -0.126 OA 
HETATM    2  C   UNL     1      -7.930   9.428  63.786  1.00  0.00    -0.142 C  
HETATM    3  O   UNL     1      -8.309   8.383  63.281  1.00  0.00    -0.157 OA 
HETATM    4  C   UNL     1      -8.654  10.174  64.901  1.00  0.00    -0.178 C  
ENDROOT
BRANCH   4   5
HETATM    5  O   UNL     1      -9.884   9.514  65.233  1.00  0.00    -0.282 OA 
BRANCH   5   6
HETATM    6  C   UNL     1      -9.869   8.750  66.356  1.00  0.00    -0.282 C  
HETATM    7  O   UNL     1     -10.265   7.598  66.429  1.00  0.00    -0.157 OA 
BRANCH   6   8
HETATM    8  C   UNL     1      -9.291   9.539  67.517  1.00  0.00    -0.146 C  
BRANCH   8   9
HETATM    9  C   UNL     1     -10.324  10.283  68.331  1.00  0.00    -0.202 A  
HETATM   10  C   UNL     1     -11.031   9.548  69.305  1.00  0.00    -0.167 A  
HETATM   11  C   UNL     1     -11.979  10.158  70.122  1.00  0.00    -0.262 A  
HETATM   12  C   UNL     1     -12.211  11.521  70.010  1.00  0.00    -0.354 A  
HETATM   13  C   UNL     1     -11.540  12.258  69.034  1.00  0.00    -0.368 A  
HETATM   14  C   UNL     1     -10.636  11.650  68.152  1.00  0.00    -0.201 A  
BRANCH  14  15
HETATM   15  N   UNL     1     -10.121  12.400  67.071  1.00  0.00    -0.213 NA 
HETATM   16  H   UNL     1      -9.284  11.999  66.648  1.00  0.00     0.000 HD 
BRANCH  15  17
HETATM   17  C   UNL     1     -10.557  13.615  66.463  1.00  0.00    -0.282 A  
HETATM   18  C   UNL     1      -9.867  14.803  66.815  1.00  0.00    -0.255 A  
HETATM   19  C   UNL     1     -10.081  16.015  66.149  1.00  0.00    -0.346 A  
HETATM   20 CL   UNL     1      -8.704  14.809  68.104  1.00  0.00    -0.162 Cl 
HETATM   21  C   UNL     1     -11.008  16.085  65.120  1.00  0.00    -0.360 A  
HETATM   22  C   UNL     1     -11.772  14.963  64.817  1.00  0.00    -0.402 A  
HETATM   23  C   UNL     1     -11.572  13.743  65.489  1.00  0.00    -0.326 A  
HETATM   24 CL   UNL     1     -12.592  12.455  64.949  1.00  0.00    -0.481 Cl 
ENDBRANCH  15  17
ENDBRANCH  14  15
ENDBRANCH   8   9
ENDBRANCH   6   8
ENDBRANCH   5   6
ENDBRANCH   4   5
TORSDOF 6
ENDMDL
MODEL      237
REMARK 921   NORMALIZED FREE ENERGY PREDICTED BY IDOCK:   -4.51 KCAL/MOL
REMARK 922        TOTAL FREE ENERGY PREDICTED BY IDOCK:   -7.05 KCAL/MOL
REMARK 923 INTER-LIGAND FREE ENERGY PREDICTED BY IDOCK:   -6.09 KCAL/MOL
REMARK 924 INTRA-LIGAND FREE ENERGY PREDICTED BY IDOCK:   -0.95 KCAL/MOL
REMARK 927      BINDING AFFINITY PREDICTED BY RF-SCORE:    0.00 PKD
ROOT
HETATM    1  O   UNL     1     -10.910  16.489  69.543  1.00  0.00    -0.310 OA 
HETATM    2  C   UNL     1     -11.764  15.486  69.861  1.00  0.00    -0.352 C  
HETATM    3  O   UNL     1     -12.765  15.677  70.535  1.00  0.00    -0.447 OA 
HETATM    4  C   UNL     1     -11.337  14.137  69.294  1.00  0.00    -0.281 C  
ENDROOT
BRANCH   4   5
HETATM    5  O   UNL     1     -12.236  13.103  69.718  1.00  0.00    -0.280 OA 
BRANCH   5   6
HETATM    6  C   UNL     1     -11.909  11.837  69.350  1.00  0.00    -0.334 C  
HETATM    7  O   UNL     1     -12.628  10.859  69.477  1.00  0.00    -0.304 OA 
BRANCH   6   8
HETATM    8  C   UNL     1     -10.510  11.810  68.760  1.00  0.00    -0.221 C  
BRANCH   8   9
HETATM    9  C   UNL     1     -10.082  10.451  68.256  1.00  0.00    -0.174 A  
HETATM   10  C   UNL     1     -10.326  10.159  66.898  1.00  0.00    -0.298 A  
HETATM   11  C   UNL     1      -9.937   8.943  66.340  1.00  0.00    -0.354 A  
HETATM   12  C   UNL     1      -9.261   8.013  67.116  1.00  0.00    -0.172 A  
HETATM   13  C   UNL     1      -9.033   8.276  68.468  1.00  0.00    -0.137 A  
HETATM   14  C   UNL     1      -9.483   9.461  69.068  1.00  0.00    -0.160 A  
BRANCH  14  15
HETATM   15  N   UNL     1      -9.388   9.600  70.470  1.00  0.00    -0.326 NA 
HETATM   16  H   UNL     1      -9.192  10.551  70.782  1.00  0.00     0.000 HD 
BRANCH  15  17
HETATM   17  C   UNL     1      -9.518   8.653  71.530  1.00  0.00    -0.250 A  
HETATM   18  C   UNL     1      -8.354   8.360  72.287  1.00  0.00    -0.155 A  
HETATM   19  C   UNL     1      -8.399   7.596  73.458  1.00  0.00    -0.220 A  
HETATM   20 CL   UNL     1      -6.798   8.947  71.791  1.00  0.00    -0.073 Cl 
HETATM   21  C   UNL     1      -9.607   7.080  73.903  1.00  0.00    -0.299 A  
HETATM   22  C   UNL     1     -10.750   7.266  73.131  1.00  0.00    -0.411 A  
HETATM   23  C   UNL     1     -10.712   8.024  71.946  1.00  0.00    -0.251 A  
HETATM   24 CL   UNL     1     -12.238   8.172  71.145  1.00  0.00    -0.286 Cl 
ENDBRANCH  15  17
ENDBRANCH  14  15
ENDBRANCH   8   9
ENDBRANCH   6   8
ENDBRANCH   5   6
ENDBRANCH   4   5
TORSDOF 6
ENDMDL
MODEL      238
REMARK 921   NORMALIZED FREE ENERGY PREDICTED BY IDOCK:   -4.49 KCAL/MOL
REMARK 922        TOTAL FREE ENERGY PREDICTED BY IDOCK:   -7.03 KCAL/MOL
REMARK 923 INTER-LIGAND FREE ENERGY PREDICTED BY IDOCK:   -6.13 KCAL/MOL
REMARK 924 INTRA-LIGAND FREE ENERGY PREDICTED BY IDOCK:   -0.90 KCAL/MOL
REMARK 927      BINDING AFFINITY PREDICTED BY RF-SCORE:    0.00 PKD
ROOT
HETATM    1  O   UNL     1      -7.734   8.638  64.211  1.00  0.00    -0.113 OA 
HETATM    2  C   UNL     1      -8.281   9.812  64.611  1.00  0.00    -0.150 C  
HETATM    3  O   UNL     1      -9.083  10.422  63.920  1.00  0.00    -0.202 OA 
HETATM    4  C   UNL     1      -7.788  10.262  65.982  1.00  0.00    -0.133 C  
ENDROOT
BRANCH   4   5
HETATM    5  O   UNL     1      -8.345  11.539  66.324  1.00  0.00    -0.159 OA 
BRANCH   5   6
HETATM    6  C   UNL     1      -8.959  11.620  67.533  1.00  0.00    -0.165 C  
HETATM    7  O   UNL     1      -9.002  10.725  68.362  1.00  0.00    -0.140 OA 
BRANCH   6   8
HETATM    8  C   UNL     1      -9.594  12.988  67.705  1.00  0.00    -0.208 C  
BRANCH   8   9
HETATM    9  C   UNL     1     -10.442  13.425  66.533  1.00  0.00    -0.283 A  
HETATM   10  C   UNL     1     -11.552  12.621  66.203  1.00  0.00    -0.445 A  
HETATM   11  C   UNL     1     -12.406  12.964  65.157  1.00  0.00    -0.547 A  
HETATM   12  C   UNL     1     -12.191  14.136  64.448  1.00  0.00    -0.466 A  
HETATM   13  C   UNL     1     -11.083  14.930  64.744  1.00  0.00    -0.395 A  
HETATM   14  C   UNL     1     -10.169  14.565  65.743  1.00  0.00    -0.335 A  
BRANCH  14  15
HETATM   15  N   UNL     1      -8.972  15.303  65.882  1.00  0.00    -0.430 NA 
HETATM   16  H   UNL     1      -8.242  15.040  65.221  1.00  0.00     0.000 HD 
BRANCH  15  17
HETATM   17  C   UNL     1      -8.598  16.348  66.780  1.00  0.00    -0.235 A  
HETATM   18  C   UNL     1      -7.477  16.117  67.616  1.00  0.00    -0.145 A  
HETATM   19  C   UNL     1      -6.907  17.130  68.397  1.00  0.00    -0.191 A  
HETATM   20 CL   UNL     1      -6.744  14.546  67.711  1.00  0.00    -0.177 Cl 
HETATM   21  C   UNL     1      -7.453  18.404  68.382  1.00  0.00    -0.300 A  
HETATM   22  C   UNL     1      -8.612  18.639  67.649  1.00  0.00    -0.288 A  
HETATM   23  C   UNL     1      -9.198  17.623  66.870  1.00  0.00    -0.263 A  
HETATM   24 CL   UNL     1     -10.611  18.116  66.003  1.00  0.00    -0.360 Cl 
ENDBRANCH  15  17
ENDBRANCH  14  15
ENDBRANCH   8   9
ENDBRANCH   6   8
ENDBRANCH   5   6
ENDBRANCH   4   5
TORSDOF 6
ENDMDL
MODEL      239
REMARK 921   NORMALIZED FREE ENERGY PREDICTED BY IDOCK:   -4.49 KCAL/MOL
REMARK 922        TOTAL FREE ENERGY PREDICTED BY IDOCK:   -7.02 KCAL/MOL
REMARK 923 INTER-LIGAND FREE ENERGY PREDICTED BY IDOCK:   -6.18 KCAL/MOL
REMARK 924 INTRA-LIGAND FREE ENERGY PREDICTED BY IDOCK:   -0.85 KCAL/MOL
REMARK 927      BINDING AFFINITY PREDICTED BY RF-SCORE:    0.00 PKD
ROOT
HETATM    1  O   UNL     1      -6.251   9.532  65.338  1.00  0.00    -0.063 OA 
HETATM    2  C   UNL     1      -6.713   9.898  66.559  1.00  0.00    -0.080 C  
HETATM    3  O   UNL     1      -6.541   9.206  67.550  1.00  0.00    -0.063 OA 
HETATM    4  C   UNL     1      -7.449  11.233  66.541  1.00  0.00    -0.105 C  
ENDROOT
BRANCH   4   5
HETATM    5  O   UNL     1      -7.974  11.537  67.841  1.00  0.00    -0.115 OA 
BRANCH   5   6
HETATM    6  C   UNL     1      -8.095  12.855  68.144  1.00  0.00    -0.158 C  
HETATM    7  O   UNL     1      -7.166  13.637  68.266  1.00  0.00    -0.089 OA 
BRANCH   6   8
HETATM    8  C   UNL     1      -9.559  13.219  68.317  1.00  0.00    -0.221 C  
BRANCH   8   9
HETATM    9  C   UNL     1     -10.341  13.258  67.025  1.00  0.00    -0.246 A  
HETATM   10  C   UNL     1      -9.954  14.215  66.064  1.00  0.00    -0.340 A  
HETATM   11  C   UNL     1     -10.598  14.303  64.832  1.00  0.00    -0.452 A  
HETATM   12  C   UNL     1     -11.613  13.410  64.520  1.00  0.00    -0.405 A  
HETATM   13  C   UNL     1     -12.026  12.474  65.469  1.00  0.00    -0.500 A  
HETATM   14  C   UNL     1     -11.441  12.418  66.743  1.00  0.00    -0.362 A  
BRANCH  14  15
HETATM   15  N   UNL     1     -12.013  11.578  67.725  1.00  0.00    -0.637 NA 
HETATM   16  H   UNL     1     -13.025  11.672  67.815  1.00  0.00     0.000 HD 
BRANCH  15  17
HETATM   17  C   UNL     1     -11.434  10.623  68.613  1.00  0.00    -0.263 A  
HETATM   18  C   UNL     1     -10.563   9.656  68.051  1.00  0.00    -0.243 A  
HETATM   19  C   UNL     1      -9.797   8.792  68.842  1.00  0.00    -0.183 A  
HETATM   20 CL   UNL     1     -10.400   9.497  66.330  1.00  0.00    -0.285 Cl 
HETATM   21  C   UNL     1      -9.891   8.854  70.225  1.00  0.00    -0.211 A  
HETATM   22  C   UNL     1     -10.809   9.723  70.805  1.00  0.00    -0.403 A  
HETATM   23  C   UNL     1     -11.592  10.587  70.016  1.00  0.00    -0.313 A  
HETATM   24 CL   UNL     1     -12.647  11.617  70.920  1.00  0.00    -0.441 Cl 
ENDBRANCH  15  17
ENDBRANCH  14  15
ENDBRANCH   8   9
ENDBRANCH   6   8
ENDBRANCH   5   6
ENDBRANCH   4   5
TORSDOF 6
ENDMDL
MODEL      240
REMARK 921   NORMALIZED FREE ENERGY PREDICTED BY IDOCK:   -4.47 KCAL/MOL
REMARK 922        TOTAL FREE ENERGY PREDICTED BY IDOCK:   -7.01 KCAL/MOL
REMARK 923 INTER-LIGAND FREE ENERGY PREDICTED BY IDOCK:   -5.95 KCAL/MOL
REMARK 924 INTRA-LIGAND FREE ENERGY PREDICTED BY IDOCK:   -1.06 KCAL/MOL
REMARK 927      BINDING AFFINITY PREDICTED BY RF-SCORE:    0.00 PKD
ROOT
HETATM    1  O   UNL     1     -12.876  10.187  71.041  1.00  0.00    -0.346 OA 
HETATM    2  C   UNL     1     -11.943  10.966  70.439  1.00  0.00    -0.362 C  
HETATM    3  O   UNL     1     -10.852  10.530  70.108  1.00  0.00    -0.283 OA 
HETATM    4  C   UNL     1     -12.409  12.403  70.235  1.00  0.00    -0.188 C  
ENDROOT
BRANCH   4   5
HETATM    5  O   UNL     1     -11.363  13.196  69.660  1.00  0.00    -0.212 OA 
BRANCH   5   6
HETATM    6  C   UNL     1     -11.206  14.444  70.173  1.00  0.00    -0.099 C  
HETATM    7  O   UNL     1     -11.357  14.747  71.345  1.00  0.00    -0.258 OA 
BRANCH   6   8
HETATM    8  C   UNL     1     -10.818  15.416  69.073  1.00  0.00    -0.244 C  
BRANCH   8   9
HETATM    9  C   UNL     1      -9.348  15.395  68.723  1.00  0.00    -0.209 A  
HETATM   10  C   UNL     1      -8.564  16.482  69.161  1.00  0.00    -0.147 A  
HETATM   11  C   UNL     1      -7.195  16.532  68.910  1.00  0.00    -0.208 A  
HETATM   12  C   UNL     1      -6.576  15.479  68.252  1.00  0.00    -0.127 A  
HETATM   13  C   UNL     1      -7.342  14.408  67.789  1.00  0.00    -0.186 A  
HETATM   14  C   UNL     1      -8.732  14.373  67.965  1.00  0.00    -0.170 A  
BRANCH  14  15
HETATM   15  N   UNL     1      -9.481  13.362  67.324  1.00  0.00    -0.225 NA 
HETATM   16  H   UNL     1      -9.353  12.433  67.724  1.00  0.00     0.000 HD 
BRANCH  15  17
HETATM   17  C   UNL     1     -10.383  13.403  66.218  1.00  0.00    -0.291 A  
HETATM   18  C   UNL     1     -11.142  12.234  65.954  1.00  0.00    -0.322 A  
HETATM   19  C   UNL     1     -12.185  12.218  65.021  1.00  0.00    -0.374 A  
HETATM   20 CL   UNL     1     -10.810  10.749  66.789  1.00  0.00    -0.288 Cl 
HETATM   21  C   UNL     1     -12.492  13.365  64.305  1.00  0.00    -0.321 A  
HETATM   22  C   UNL     1     -11.704  14.499  64.469  1.00  0.00    -0.421 A  
HETATM   23  C   UNL     1     -10.646  14.522  65.397  1.00  0.00    -0.370 A  
HETATM   24 CL   UNL     1      -9.805  16.031  65.484  1.00  0.00    -0.297 Cl 
ENDBRANCH  15  17
ENDBRANCH  14  15
ENDBRANCH   8   9
ENDBRANCH   6   8
ENDBRANCH   5   6
ENDBRANCH   4   5
TORSDOF 6
ENDMDL
MODEL      241
REMARK 921   NORMALIZED FREE ENERGY PREDICTED BY IDOCK:   -4.47 KCAL/MOL
REMARK 922        TOTAL FREE ENERGY PREDICTED BY IDOCK:   -7.00 KCAL/MOL
REMARK 923 INTER-LIGAND FREE ENERGY PREDICTED BY IDOCK:   -6.54 KCAL/MOL
REMARK 924 INTRA-LIGAND FREE ENERGY PREDICTED BY IDOCK:   -0.46 KCAL/MOL
REMARK 927      BINDING AFFINITY PREDICTED BY RF-SCORE:    0.00 PKD
ROOT
HETATM    1  O   UNL     1      -9.646   3.876  68.024  1.00  0.00    -0.174 OA 
HETATM    2  C   UNL     1      -9.378   5.081  68.584  1.00  0.00    -0.130 C  
HETATM    3  O   UNL     1      -8.780   5.957  67.979  1.00  0.00    -0.112 OA 
HETATM    4  C   UNL     1      -9.897   5.203  70.012  1.00  0.00    -0.225 C  
ENDROOT
BRANCH   4   5
HETATM    5  O   UNL     1      -9.527   6.468  70.577  1.00  0.00    -0.165 OA 
BRANCH   5   6
HETATM    6  C   UNL     1     -10.531   7.369  70.736  1.00  0.00    -0.212 C  
HETATM    7  O   UNL     1     -11.705   7.091  70.919  1.00  0.00    -0.309 OA 
BRANCH   6   8
HETATM    8  C   UNL     1      -9.983   8.782  70.645  1.00  0.00    -0.242 C  
BRANCH   8   9
HETATM    9  C   UNL     1      -9.811   9.286  69.231  1.00  0.00    -0.172 A  
HETATM   10  C   UNL     1      -8.561   9.070  68.615  1.00  0.00    -0.129 A  
HETATM   11  C   UNL     1      -8.324   9.474  67.303  1.00  0.00    -0.125 A  
HETATM   12  C   UNL     1      -9.342  10.064  66.569  1.00  0.00    -0.201 A  
HETATM   13  C   UNL     1     -10.576  10.309  67.171  1.00  0.00    -0.320 A  
HETATM   14  C   UNL     1     -10.813   9.978  68.513  1.00  0.00    -0.231 A  
BRANCH  14  15
HETATM   15  N   UNL     1     -12.011  10.408  69.125  1.00  0.00    -0.581 NA 
HETATM   16  H   UNL     1     -12.839   9.892  68.827  1.00  0.00     0.000 HD 
BRANCH  15  17
HETATM   17  C   UNL     1     -12.275  11.432  70.084  1.00  0.00    -0.321 A  
HETATM   18  C   UNL     1     -11.955  12.764  69.717  1.00  0.00    -0.292 A  
HETATM   19  C   UNL     1     -12.338  13.864  70.494  1.00  0.00    -0.439 A  
HETATM   20 CL   UNL     1     -11.063  13.100  68.266  1.00  0.00    -0.278 Cl 
HETATM   21  C   UNL     1     -13.038  13.667  71.675  1.00  0.00    -0.455 A  
HETATM   22  C   UNL     1     -13.281  12.370  72.112  1.00  0.00    -0.491 A  
HETATM   23  C   UNL     1     -12.890  11.258  71.343  1.00  0.00    -0.410 A  
HETATM   24 CL   UNL     1     -13.311   9.729  72.034  1.00  0.00    -0.529 Cl 
ENDBRANCH  15  17
ENDBRANCH  14  15
ENDBRANCH   8   9
ENDBRANCH   6   8
ENDBRANCH   5   6
ENDBRANCH   4   5
TORSDOF 6
ENDMDL
MODEL      242
REMARK 921   NORMALIZED FREE ENERGY PREDICTED BY IDOCK:   -4.46 KCAL/MOL
REMARK 922        TOTAL FREE ENERGY PREDICTED BY IDOCK:   -6.98 KCAL/MOL
REMARK 923 INTER-LIGAND FREE ENERGY PREDICTED BY IDOCK:   -6.59 KCAL/MOL
REMARK 924 INTRA-LIGAND FREE ENERGY PREDICTED BY IDOCK:   -0.40 KCAL/MOL
REMARK 927      BINDING AFFINITY PREDICTED BY RF-SCORE:    0.00 PKD
ROOT
HETATM    1  O   UNL     1     -10.308   7.117  73.600  1.00  0.00    -0.330 OA 
HETATM    2  C   UNL     1     -10.131   8.166  72.760  1.00  0.00    -0.297 C  
HETATM    3  O   UNL     1      -9.033   8.665  72.569  1.00  0.00    -0.337 OA 
HETATM    4  C   UNL     1     -11.427   8.629  72.104  1.00  0.00    -0.373 C  
ENDROOT
BRANCH   4   5
HETATM    5  O   UNL     1     -11.193   9.780  71.281  1.00  0.00    -0.361 OA 
BRANCH   5   6
HETATM    6  C   UNL     1     -12.298  10.401  70.792  1.00  0.00    -0.367 C  
HETATM    7  O   UNL     1     -13.450  10.060  71.006  1.00  0.00    -0.367 OA 
BRANCH   6   8
HETATM    8  C   UNL     1     -11.894  11.584  69.931  1.00  0.00    -0.430 C  
BRANCH   8   9
HETATM    9  C   UNL     1     -11.025  11.218  68.750  1.00  0.00    -0.270 A  
HETATM   10  C   UNL     1     -11.153   9.911  68.235  1.00  0.00    -0.207 A  
HETATM   11  C   UNL     1     -10.414   9.497  67.129  1.00  0.00    -0.322 A  
HETATM   12  C   UNL     1      -9.564  10.390  66.493  1.00  0.00    -0.224 A  
HETATM   13  C   UNL     1      -9.407  11.678  67.005  1.00  0.00    -0.186 A  
HETATM   14  C   UNL     1     -10.084  12.093  68.161  1.00  0.00    -0.206 A  
BRANCH  14  15
HETATM   15  N   UNL     1      -9.755  13.338  68.741  1.00  0.00    -0.417 NA 
HETATM   16  H   UNL     1      -9.097  13.275  69.517  1.00  0.00     0.000 HD 
BRANCH  15  17
HETATM   17  C   UNL     1     -10.176  14.668  68.439  1.00  0.00    -0.235 A  
HETATM   18  C   UNL     1     -10.682  15.449  69.509  1.00  0.00    -0.267 A  
HETATM   19  C   UNL     1     -10.949  16.817  69.374  1.00  0.00    -0.176 A  
HETATM   20 CL   UNL     1     -10.996  14.737  71.061  1.00  0.00    -0.039 Cl 
HETATM   21  C   UNL     1     -10.737  17.446  68.156  1.00  0.00    -0.343 A  
HETATM   22  C   UNL     1     -10.336  16.688  67.061  1.00  0.00    -0.301 A  
HETATM   23  C   UNL     1     -10.076  15.311  67.185  1.00  0.00    -0.240 A  
HETATM   24 CL   UNL     1      -9.554  14.549  65.723  1.00  0.00    -0.291 Cl 
ENDBRANCH  15  17
ENDBRANCH  14  15
ENDBRANCH   8   9
ENDBRANCH   6   8
ENDBRANCH   5   6
ENDBRANCH   4   5
TORSDOF 6
ENDMDL
MODEL      243
REMARK 921   NORMALIZED FREE ENERGY PREDICTED BY IDOCK:   -4.46 KCAL/MOL
REMARK 922        TOTAL FREE ENERGY PREDICTED BY IDOCK:   -6.98 KCAL/MOL
REMARK 923 INTER-LIGAND FREE ENERGY PREDICTED BY IDOCK:   -6.23 KCAL/MOL
REMARK 924 INTRA-LIGAND FREE ENERGY PREDICTED BY IDOCK:   -0.75 KCAL/MOL
REMARK 927      BINDING AFFINITY PREDICTED BY RF-SCORE:    0.00 PKD
ROOT
HETATM    1  O   UNL     1      -9.833  10.122  63.821  1.00  0.00    -0.252 OA 
HETATM    2  C   UNL     1      -9.146  10.076  64.988  1.00  0.00    -0.211 C  
HETATM    3  O   UNL     1      -7.963  10.371  65.056  1.00  0.00    -0.154 OA 
HETATM    4  C   UNL     1     -10.003   9.626  66.166  1.00  0.00    -0.276 C  
ENDROOT
BRANCH   4   5
HETATM    5  O   UNL     1      -9.213   9.530  67.358  1.00  0.00    -0.133 OA 
BRANCH   5   6
HETATM    6  C   UNL     1      -9.546  10.375  68.368  1.00  0.00    -0.148 C  
HETATM    7  O   UNL     1      -8.798  10.730  69.264  1.00  0.00    -0.128 OA 
BRANCH   6   8
HETATM    8  C   UNL     1     -10.992  10.815  68.225  1.00  0.00    -0.307 C  
BRANCH   8   9
HETATM    9  C   UNL     1     -11.708  11.011  69.542  1.00  0.00    -0.400 A  
HETATM   10  C   UNL     1     -11.826   9.889  70.387  1.00  0.00    -0.310 A  
HETATM   11  C   UNL     1     -12.443   9.985  71.632  1.00  0.00    -0.513 A  
HETATM   12  C   UNL     1     -12.918  11.212  72.073  1.00  0.00    -0.385 A  
HETATM   13  C   UNL     1     -12.833  12.327  71.238  1.00  0.00    -0.337 A  
HETATM   14  C   UNL     1     -12.283  12.236  69.952  1.00  0.00    -0.163 A  
BRANCH  14  15
HETATM   15  N   UNL     1     -12.384  13.344  69.082  1.00  0.00    -0.136 NA 
HETATM   16  H   UNL     1     -13.202  13.323  68.474  1.00  0.00     0.000 HD 
BRANCH  15  17
HETATM   17  C   UNL     1     -11.550  14.488  68.898  1.00  0.00    -0.309 A  
HETATM   18  C   UNL     1     -11.703  15.558  69.815  1.00  0.00    -0.349 A  
HETATM   19  C   UNL     1     -10.819  16.644  69.849  1.00  0.00    -0.206 A  
HETATM   20 CL   UNL     1     -13.009  15.573  70.958  1.00  0.00    -0.534 Cl 
HETATM   21  C   UNL     1      -9.763  16.705  68.952  1.00  0.00    -0.255 A  
HETATM   22  C   UNL     1      -9.644  15.721  67.976  1.00  0.00    -0.210 A  
HETATM   23  C   UNL     1     -10.534  14.632  67.928  1.00  0.00    -0.242 A  
HETATM   24 CL   UNL     1     -10.202  13.495  66.667  1.00  0.00    -0.270 Cl 
ENDBRANCH  15  17
ENDBRANCH  14  15
ENDBRANCH   8   9
ENDBRANCH   6   8
ENDBRANCH   5   6
ENDBRANCH   4   5
TORSDOF 6
ENDMDL
MODEL      244
REMARK 921   NORMALIZED FREE ENERGY PREDICTED BY IDOCK:   -4.45 KCAL/MOL
REMARK 922        TOTAL FREE ENERGY PREDICTED BY IDOCK:   -6.97 KCAL/MOL
REMARK 923 INTER-LIGAND FREE ENERGY PREDICTED BY IDOCK:   -6.19 KCAL/MOL
REMARK 924 INTRA-LIGAND FREE ENERGY PREDICTED BY IDOCK:   -0.78 KCAL/MOL
REMARK 927      BINDING AFFINITY PREDICTED BY RF-SCORE:    0.00 PKD
ROOT
HETATM    1  O   UNL     1      -7.560   6.686  70.717  1.00  0.00    -0.089 OA 
HETATM    2  C   UNL     1      -8.142   7.786  71.253  1.00  0.00    -0.095 C  
HETATM    3  O   UNL     1      -7.925   8.139  72.401  1.00  0.00    -0.117 OA 
HETATM    4  C   UNL     1      -9.071   8.502  70.279  1.00  0.00    -0.154 C  
ENDROOT
BRANCH   4   5
HETATM    5  O   UNL     1      -9.711   9.615  70.918  1.00  0.00    -0.225 OA 
BRANCH   5   6
HETATM    6  C   UNL     1     -11.017   9.444  71.251  1.00  0.00    -0.370 C  
HETATM    7  O   UNL     1     -11.422   8.816  72.215  1.00  0.00    -0.362 OA 
BRANCH   6   8
HETATM    8  C   UNL     1     -11.909  10.146  70.242  1.00  0.00    -0.342 C  
BRANCH   8   9
HETATM    9  C   UNL     1     -12.300  11.551  70.639  1.00  0.00    -0.457 A  
HETATM   10  C   UNL     1     -12.980  11.711  71.864  1.00  0.00    -0.442 A  
HETATM   11  C   UNL     1     -13.352  12.972  72.324  1.00  0.00    -0.606 A  
HETATM   12  C   UNL     1     -13.016  14.100  71.589  1.00  0.00    -0.423 A  
HETATM   13  C   UNL     1     -12.366  13.958  70.362  1.00  0.00    -0.433 A  
HETATM   14  C   UNL     1     -12.049  12.694  69.846  1.00  0.00    -0.252 A  
BRANCH  14  15
HETATM   15  N   UNL     1     -11.557  12.595  68.525  1.00  0.00    -0.301 NA 
HETATM   16  H   UNL     1     -12.253  12.793  67.806  1.00  0.00     0.000 HD 
BRANCH  15  17
HETATM   17  C   UNL     1     -10.265  12.269  68.013  1.00  0.00    -0.206 A  
HETATM   18  C   UNL     1      -9.273  13.282  68.059  1.00  0.00    -0.217 A  
HETATM   19  C   UNL     1      -7.930  13.024  67.761  1.00  0.00    -0.164 A  
HETATM   20 CL   UNL     1      -9.683  14.911  68.495  1.00  0.00    -0.208 Cl 
HETATM   21  C   UNL     1      -7.537  11.748  67.388  1.00  0.00    -0.143 A  
HETATM   22  C   UNL     1      -8.501  10.756  67.238  1.00  0.00    -0.124 A  
HETATM   23  C   UNL     1      -9.855  11.010  67.525  1.00  0.00    -0.169 A  
HETATM   24 CL   UNL     1     -10.896   9.644  67.314  1.00  0.00    -0.285 Cl 
ENDBRANCH  15  17
ENDBRANCH  14  15
ENDBRANCH   8   9
ENDBRANCH   6   8
ENDBRANCH   5   6
ENDBRANCH   4   5
TORSDOF 6
ENDMDL
MODEL      245
REMARK 921   NORMALIZED FREE ENERGY PREDICTED BY IDOCK:   -4.43 KCAL/MOL
REMARK 922        TOTAL FREE ENERGY PREDICTED BY IDOCK:   -6.94 KCAL/MOL
REMARK 923 INTER-LIGAND FREE ENERGY PREDICTED BY IDOCK:   -6.02 KCAL/MOL
REMARK 924 INTRA-LIGAND FREE ENERGY PREDICTED BY IDOCK:   -0.92 KCAL/MOL
REMARK 927      BINDING AFFINITY PREDICTED BY RF-SCORE:    0.00 PKD
ROOT
HETATM    1  O   UNL     1      -9.943  11.981  63.007  1.00  0.00    -0.351 OA 
HETATM    2  C   UNL     1     -10.464  11.928  64.258  1.00  0.00    -0.326 C  
HETATM    3  O   UNL     1     -10.755  10.871  64.794  1.00  0.00    -0.292 OA 
HETATM    4  C   UNL     1     -10.636  13.305  64.889  1.00  0.00    -0.366 C  
ENDROOT
BRANCH   4   5
HETATM    5  O   UNL     1     -11.253  13.195  66.179  1.00  0.00    -0.287 OA 
BRANCH   5   6
HETATM    6  C   UNL     1     -10.419  13.269  67.249  1.00  0.00    -0.247 C  
HETATM    7  O   UNL     1     -10.601  12.717  68.323  1.00  0.00    -0.224 OA 
BRANCH   6   8
HETATM    8  C   UNL     1      -9.224  14.146  66.921  1.00  0.00    -0.270 C  
BRANCH   8   9
HETATM    9  C   UNL     1      -8.161  14.165  67.995  1.00  0.00    -0.152 A  
HETATM   10  C   UNL     1      -7.276  13.069  68.049  1.00  0.00    -0.119 A  
HETATM   11  C   UNL     1      -6.247  13.017  68.986  1.00  0.00    -0.094 A  
HETATM   12  C   UNL     1      -6.057  14.077  69.860  1.00  0.00    -0.140 A  
HETATM   13  C   UNL     1      -6.939  15.158  69.838  1.00  0.00    -0.140 A  
HETATM   14  C   UNL     1      -8.027  15.196  68.953  1.00  0.00    -0.178 A  
BRANCH  14  15
HETATM   15  N   UNL     1      -8.990  16.220  69.092  1.00  0.00    -0.244 NA 
HETATM   16  H   UNL     1      -9.693  16.035  69.807  1.00  0.00     0.000 HD 
BRANCH  15  17
HETATM   17  C   UNL     1      -9.158  17.465  68.414  1.00  0.00    -0.274 A  
HETATM   18  C   UNL     1     -10.424  17.721  67.829  1.00  0.00    -0.397 A  
HETATM   19  C   UNL     1     -10.764  18.973  67.305  1.00  0.00    -0.556 A  
HETATM   20 CL   UNL     1     -11.631  16.476  67.737  1.00  0.00     0.131 Cl 
HETATM   21  C   UNL     1      -9.841  20.008  67.331  1.00  0.00    -0.558 A  
HETATM   22  C   UNL     1      -8.558  19.762  67.808  1.00  0.00    -0.373 A  
HETATM   23  C   UNL     1      -8.204  18.502  68.326  1.00  0.00    -0.314 A  
HETATM   24 CL   UNL     1      -6.576  18.400  68.904  1.00  0.00    -0.250 Cl 
ENDBRANCH  15  17
ENDBRANCH  14  15
ENDBRANCH   8   9
ENDBRANCH   6   8
ENDBRANCH   5   6
ENDBRANCH   4   5
TORSDOF 6
ENDMDL
MODEL      246
REMARK 921   NORMALIZED FREE ENERGY PREDICTED BY IDOCK:   -4.40 KCAL/MOL
REMARK 922        TOTAL FREE ENERGY PREDICTED BY IDOCK:   -6.90 KCAL/MOL
REMARK 923 INTER-LIGAND FREE ENERGY PREDICTED BY IDOCK:   -6.23 KCAL/MOL
REMARK 924 INTRA-LIGAND FREE ENERGY PREDICTED BY IDOCK:   -0.68 KCAL/MOL
REMARK 927      BINDING AFFINITY PREDICTED BY RF-SCORE:    0.00 PKD
ROOT
HETATM    1  O   UNL     1     -11.682  15.905  69.851  1.00  0.00    -0.333 OA 
HETATM    2  C   UNL     1     -11.874  14.771  69.134  1.00  0.00    -0.305 C  
HETATM    3  O   UNL     1     -12.433  13.793  69.605  1.00  0.00    -0.281 OA 
HETATM    4  C   UNL     1     -11.323  14.865  67.715  1.00  0.00    -0.329 C  
ENDROOT
BRANCH   4   5
HETATM    5  O   UNL     1     -11.492  13.619  67.025  1.00  0.00    -0.314 OA 
BRANCH   5   6
HETATM    6  C   UNL     1     -10.532  12.681  67.239  1.00  0.00    -0.228 C  
HETATM    7  O   UNL     1      -9.368  12.917  67.519  1.00  0.00    -0.178 OA 
BRANCH   6   8
HETATM    8  C   UNL     1     -11.116  11.290  67.075  1.00  0.00    -0.356 C  
BRANCH   8   9
HETATM    9  C   UNL     1     -10.088  10.223  66.775  1.00  0.00    -0.272 A  
HETATM   10  C   UNL     1      -9.205  10.460  65.702  1.00  0.00    -0.220 A  
HETATM   11  C   UNL     1      -8.207   9.545  65.374  1.00  0.00    -0.128 A  
HETATM   12  C   UNL     1      -8.046   8.397  66.135  1.00  0.00    -0.106 A  
HETATM   13  C   UNL     1      -8.928   8.135  67.185  1.00  0.00    -0.154 A  
HETATM   14  C   UNL     1      -9.985   9.005  67.485  1.00  0.00    -0.207 A  
BRANCH  14  15
HETATM   15  N   UNL     1     -10.953   8.607  68.434  1.00  0.00    -0.445 NA 
HETATM   16  H   UNL     1     -11.916   8.705  68.113  1.00  0.00     0.000 HD 
BRANCH  15  17
HETATM   17  C   UNL     1     -10.830   8.094  69.761  1.00  0.00    -0.190 A  
HETATM   18  C   UNL     1     -11.055   8.997  70.831  1.00  0.00    -0.280 A  
HETATM   19  C   UNL     1     -11.145   8.570  72.161  1.00  0.00    -0.436 A  
HETATM   20 CL   UNL     1     -11.235  10.699  70.538  1.00  0.00    -0.346 Cl 
HETATM   21  C   UNL     1     -10.993   7.226  72.468  1.00  0.00    -0.322 A  
HETATM   22  C   UNL     1     -10.673   6.330  71.453  1.00  0.00    -0.297 A  
HETATM   23  C   UNL     1     -10.570   6.752  70.115  1.00  0.00    -0.218 A  
HETATM   24 CL   UNL     1     -10.201   5.487  68.994  1.00  0.00    -0.280 Cl 
ENDBRANCH  15  17
ENDBRANCH  14  15
ENDBRANCH   8   9
ENDBRANCH   6   8
ENDBRANCH   5   6
ENDBRANCH   4   5
TORSDOF 6
ENDMDL
MODEL      247
REMARK 921   NORMALIZED FREE ENERGY PREDICTED BY IDOCK:   -4.40 KCAL/MOL
REMARK 922        TOTAL FREE ENERGY PREDICTED BY IDOCK:   -6.90 KCAL/MOL
REMARK 923 INTER-LIGAND FREE ENERGY PREDICTED BY IDOCK:   -6.10 KCAL/MOL
REMARK 924 INTRA-LIGAND FREE ENERGY PREDICTED BY IDOCK:   -0.80 KCAL/MOL
REMARK 927      BINDING AFFINITY PREDICTED BY RF-SCORE:    0.00 PKD
ROOT
HETATM    1  O   UNL     1     -11.002   8.658  72.188  1.00  0.00    -0.341 OA 
HETATM    2  C   UNL     1     -11.083   8.607  70.836  1.00  0.00    -0.264 C  
HETATM    3  O   UNL     1     -11.263   7.559  70.237  1.00  0.00    -0.272 OA 
HETATM    4  C   UNL     1     -10.926   9.974  70.179  1.00  0.00    -0.310 C  
ENDROOT
BRANCH   4   5
HETATM    5  O   UNL     1     -10.951   9.853  68.751  1.00  0.00    -0.223 OA 
BRANCH   5   6
HETATM    6  C   UNL     1     -11.409  10.933  68.066  1.00  0.00    -0.312 C  
HETATM    7  O   UNL     1     -12.163  11.782  68.513  1.00  0.00    -0.430 OA 
BRANCH   6   8
HETATM    8  C   UNL     1     -10.851  10.932  66.654  1.00  0.00    -0.258 C  
BRANCH   8   9
HETATM    9  C   UNL     1     -10.957  12.264  65.949  1.00  0.00    -0.338 A  
HETATM   10  C   UNL     1     -12.156  12.536  65.258  1.00  0.00    -0.500 A  
HETATM   11  C   UNL     1     -12.354  13.751  64.605  1.00  0.00    -0.410 A  
HETATM   12  C   UNL     1     -11.375  14.732  64.664  1.00  0.00    -0.370 A  
HETATM   13  C   UNL     1     -10.172  14.470  65.322  1.00  0.00    -0.431 A  
HETATM   14  C   UNL     1      -9.923  13.227  65.921  1.00  0.00    -0.272 A  
BRANCH  14  15
HETATM   15  N   UNL     1      -8.628  12.949  66.414  1.00  0.00    -0.411 NA 
HETATM   16  H   UNL     1      -8.030  12.453  65.755  1.00  0.00     0.000 HD 
BRANCH  15  17
HETATM   17  C   UNL     1      -8.006  13.236  67.666  1.00  0.00    -0.176 A  
HETATM   18  C   UNL     1      -7.417  12.151  68.364  1.00  0.00    -0.114 A  
HETATM   19  C   UNL     1      -6.622  12.338  69.500  1.00  0.00    -0.052 A  
HETATM   20 CL   UNL     1      -7.654  10.516  67.832  1.00  0.00    -0.091 Cl 
HETATM   21  C   UNL     1      -6.405  13.618  69.990  1.00  0.00    -0.065 A  
HETATM   22  C   UNL     1      -7.048  14.694  69.388  1.00  0.00    -0.157 A  
HETATM   23  C   UNL     1      -7.859  14.513  68.251  1.00  0.00    -0.131 A  
HETATM   24 CL   UNL     1      -8.543  15.973  67.624  1.00  0.00    -0.170 Cl 
ENDBRANCH  15  17
ENDBRANCH  14  15
ENDBRANCH   8   9
ENDBRANCH   6   8
ENDBRANCH   5   6
ENDBRANCH   4   5
TORSDOF 6
ENDMDL
MODEL      248
REMARK 921   NORMALIZED FREE ENERGY PREDICTED BY IDOCK:   -4.39 KCAL/MOL
REMARK 922        TOTAL FREE ENERGY PREDICTED BY IDOCK:   -6.90 KCAL/MOL
REMARK 923 INTER-LIGAND FREE ENERGY PREDICTED BY IDOCK:   -6.03 KCAL/MOL
REMARK 924 INTRA-LIGAND FREE ENERGY PREDICTED BY IDOCK:   -0.87 KCAL/MOL
REMARK 927      BINDING AFFINITY PREDICTED BY RF-SCORE:    0.00 PKD
ROOT
HETATM    1  O   UNL     1      -8.727   3.194  71.895  1.00  0.00    -0.078 OA 
HETATM    2  C   UNL     1      -8.928   4.532  71.814  1.00  0.00    -0.125 C  
HETATM    3  O   UNL     1      -8.288   5.238  71.052  1.00  0.00    -0.116 OA 
HETATM    4  C   UNL     1     -10.015   5.028  72.761  1.00  0.00    -0.163 C  
ENDROOT
BRANCH   4   5
HETATM    5  O   UNL     1     -10.139   6.455  72.684  1.00  0.00    -0.175 OA 
BRANCH   5   6
HETATM    6  C   UNL     1     -11.230   6.926  72.026  1.00  0.00    -0.257 C  
HETATM    7  O   UNL     1     -12.348   6.440  72.078  1.00  0.00    -0.337 OA 
BRANCH   6   8
HETATM    8  C   UNL     1     -10.858   8.149  71.207  1.00  0.00    -0.278 C  
BRANCH   8   9
HETATM    9  C   UNL     1     -10.780   7.893  69.719  1.00  0.00    -0.233 A  
HETATM   10  C   UNL     1     -10.921   6.559  69.285  1.00  0.00    -0.389 A  
HETATM   11  C   UNL     1     -10.892   6.234  67.931  1.00  0.00    -0.417 A  
HETATM   12  C   UNL     1     -10.763   7.239  66.983  1.00  0.00    -0.406 A  
HETATM   13  C   UNL     1     -10.596   8.561  67.397  1.00  0.00    -0.304 A  
HETATM   14  C   UNL     1     -10.547   8.901  68.757  1.00  0.00    -0.157 A  
BRANCH  14  15
HETATM   15  N   UNL     1     -10.198  10.220  69.122  1.00  0.00    -0.205 NA 
HETATM   16  H   UNL     1      -9.485  10.275  69.851  1.00  0.00     0.000 HD 
BRANCH  15  17
HETATM   17  C   UNL     1     -10.659  11.489  68.660  1.00  0.00    -0.208 A  
HETATM   18  C   UNL     1     -11.634  12.153  69.448  1.00  0.00    -0.317 A  
HETATM   19  C   UNL     1     -12.021  13.474  69.197  1.00  0.00    -0.378 A  
HETATM   20 CL   UNL     1     -12.401  11.349  70.781  1.00  0.00    -0.482 Cl 
HETATM   21  C   UNL     1     -11.461  14.171  68.137  1.00  0.00    -0.340 A  
HETATM   22  C   UNL     1     -10.576  13.516  67.286  1.00  0.00    -0.263 A  
HETATM   23  C   UNL     1     -10.189  12.184  67.524  1.00  0.00    -0.199 A  
HETATM   24 CL   UNL     1      -9.055  11.555  66.379  1.00  0.00    -0.199 Cl 
ENDBRANCH  15  17
ENDBRANCH  14  15
ENDBRANCH   8   9
ENDBRANCH   6   8
ENDBRANCH   5   6
ENDBRANCH   4   5
TORSDOF 6
ENDMDL
MODEL      249
REMARK 921   NORMALIZED FREE ENERGY PREDICTED BY IDOCK:   -4.39 KCAL/MOL
REMARK 922        TOTAL FREE ENERGY PREDICTED BY IDOCK:   -6.89 KCAL/MOL
REMARK 923 INTER-LIGAND FREE ENERGY PREDICTED BY IDOCK:   -5.76 KCAL/MOL
REMARK 924 INTRA-LIGAND FREE ENERGY PREDICTED BY IDOCK:   -1.13 KCAL/MOL
REMARK 927      BINDING AFFINITY PREDICTED BY RF-SCORE:    0.00 PKD
ROOT
HETATM    1  O   UNL     1     -13.278   8.793  71.645  1.00  0.00    -0.336 OA 
HETATM    2  C   UNL     1     -12.327   9.677  71.258  1.00  0.00    -0.360 C  
HETATM    3  O   UNL     1     -11.155   9.549  71.576  1.00  0.00    -0.367 OA 
HETATM    4  C   UNL     1     -12.881  10.814  70.406  1.00  0.00    -0.213 C  
ENDROOT
BRANCH   4   5
HETATM    5  O   UNL     1     -11.847  11.753  70.083  1.00  0.00    -0.329 OA 
BRANCH   5   6
HETATM    6  C   UNL     1     -11.368  11.703  68.813  1.00  0.00    -0.264 C  
HETATM    7  O   UNL     1     -10.958  10.699  68.254  1.00  0.00    -0.223 OA 
BRANCH   6   8
HETATM    8  C   UNL     1     -11.410  13.085  68.184  1.00  0.00    -0.329 C  
BRANCH   8   9
HETATM    9  C   UNL     1     -11.290  13.080  66.678  1.00  0.00    -0.366 A  
HETATM   10  C   UNL     1     -12.388  12.584  65.944  1.00  0.00    -0.155 A  
HETATM   11  C   UNL     1     -12.378  12.570  64.551  1.00  0.00    -0.545 A  
HETATM   12  C   UNL     1     -11.289  13.088  63.865  1.00  0.00    -0.460 A  
HETATM   13  C   UNL     1     -10.184  13.559  64.575  1.00  0.00    -0.296 A  
HETATM   14  C   UNL     1     -10.142  13.513  65.976  1.00  0.00    -0.310 A  
BRANCH  14  15
HETATM   15  N   UNL     1      -8.936  13.831  66.638  1.00  0.00    -0.425 NA 
HETATM   16  H   UNL     1      -8.636  14.798  66.513  1.00  0.00     0.000 HD 
BRANCH  15  17
HETATM   17  C   UNL     1      -8.061  13.048  67.450  1.00  0.00    -0.180 A  
HETATM   18  C   UNL     1      -7.615  13.623  68.667  1.00  0.00    -0.115 A  
HETATM   19  C   UNL     1      -6.910  12.885  69.626  1.00  0.00     0.179 A  
HETATM   20 CL   UNL     1      -7.927  15.290  69.033  1.00  0.00    -0.178 Cl 
HETATM   21  C   UNL     1      -6.611  11.551  69.390  1.00  0.00    -0.117 A  
HETATM   22  C   UNL     1      -6.948  10.986  68.165  1.00  0.00    -0.069 A  
HETATM   23  C   UNL     1      -7.647  11.724  67.191  1.00  0.00    -0.155 A  
HETATM   24 CL   UNL     1      -8.007  10.838  65.749  1.00  0.00    -0.151 Cl 
ENDBRANCH  15  17
ENDBRANCH  14  15
ENDBRANCH   8   9
ENDBRANCH   6   8
ENDBRANCH   5   6
ENDBRANCH   4   5
TORSDOF 6
ENDMDL
MODEL      250
REMARK 921   NORMALIZED FREE ENERGY PREDICTED BY IDOCK:   -4.38 KCAL/MOL
REMARK 922        TOTAL FREE ENERGY PREDICTED BY IDOCK:   -6.88 KCAL/MOL
REMARK 923 INTER-LIGAND FREE ENERGY PREDICTED BY IDOCK:   -6.08 KCAL/MOL
REMARK 924 INTRA-LIGAND FREE ENERGY PREDICTED BY IDOCK:   -0.80 KCAL/MOL
REMARK 927      BINDING AFFINITY PREDICTED BY RF-SCORE:    0.00 PKD
ROOT
HETATM    1  O   UNL     1      -8.178  15.328  66.845  1.00  0.00    -0.220 OA 
HETATM    2  C   UNL     1      -7.492  14.293  67.389  1.00  0.00    -0.149 C  
HETATM    3  O   UNL     1      -6.286  14.168  67.244  1.00  0.00    -0.301 OA 
HETATM    4  C   UNL     1      -8.381  13.338  68.178  1.00  0.00    -0.161 C  
ENDROOT
BRANCH   4   5
HETATM    5  O   UNL     1      -7.618  12.230  68.672  1.00  0.00    -0.117 OA 
BRANCH   5   6
HETATM    6  C   UNL     1      -7.696  11.080  67.952  1.00  0.00    -0.104 C  
HETATM    7  O   UNL     1      -6.741  10.443  67.538  1.00  0.00    -0.069 OA 
BRANCH   6   8
HETATM    8  C   UNL     1      -9.149  10.702  67.729  1.00  0.00    -0.144 C  
BRANCH   8   9
HETATM    9  C   UNL     1      -9.635  10.930  66.317  1.00  0.00    -0.234 A  
HETATM   10  C   UNL     1      -8.730  10.660  65.270  1.00  0.00    -0.198 A  
HETATM   11  C   UNL     1      -9.102  10.813  63.936  1.00  0.00    -0.207 A  
HETATM   12  C   UNL     1     -10.396  11.200  63.622  1.00  0.00    -0.449 A  
HETATM   13  C   UNL     1     -11.297  11.497  64.646  1.00  0.00    -0.226 A  
HETATM   14  C   UNL     1     -10.921  11.421  65.995  1.00  0.00    -0.226 A  
BRANCH  14  15
HETATM   15  N   UNL     1     -11.807  11.903  66.983  1.00  0.00    -0.613 NA 
HETATM   16  H   UNL     1     -12.600  11.288  67.166  1.00  0.00     0.000 HD 
BRANCH  15  17
HETATM   17  C   UNL     1     -11.797  13.093  67.771  1.00  0.00    -0.348 A  
HETATM   18  C   UNL     1     -11.841  12.939  69.181  1.00  0.00    -0.303 A  
HETATM   19  C   UNL     1     -11.649  14.016  70.054  1.00  0.00    -0.302 A  
HETATM   20 CL   UNL     1     -12.136  11.387  69.899  1.00  0.00    -0.394 Cl 
HETATM   21  C   UNL     1     -11.426  15.288  69.547  1.00  0.00    -0.318 A  
HETATM   22  C   UNL     1     -11.475  15.489  68.172  1.00  0.00    -0.332 A  
HETATM   23  C   UNL     1     -11.679  14.414  67.287  1.00  0.00    -0.404 A  
HETATM   24 CL   UNL     1     -11.672  14.856  65.614  1.00  0.00    -0.257 Cl 
ENDBRANCH  15  17
ENDBRANCH  14  15
ENDBRANCH   8   9
ENDBRANCH   6   8
ENDBRANCH   5   6
ENDBRANCH   4   5
TORSDOF 6
ENDMDL
MODEL      251
REMARK 921   NORMALIZED FREE ENERGY PREDICTED BY IDOCK:   -4.36 KCAL/MOL
REMARK 922        TOTAL FREE ENERGY PREDICTED BY IDOCK:   -6.86 KCAL/MOL
REMARK 923 INTER-LIGAND FREE ENERGY PREDICTED BY IDOCK:   -5.90 KCAL/MOL
REMARK 924 INTRA-LIGAND FREE ENERGY PREDICTED BY IDOCK:   -0.96 KCAL/MOL
REMARK 927      BINDING AFFINITY PREDICTED BY RF-SCORE:    0.00 PKD
ROOT
HETATM    1  O   UNL     1     -10.710   7.323  73.757  1.00  0.00    -0.353 OA 
HETATM    2  C   UNL     1     -11.060   7.684  72.498  1.00  0.00    -0.336 C  
HETATM    3  O   UNL     1     -12.090   8.295  72.262  1.00  0.00    -0.341 OA 
HETATM    4  C   UNL     1     -10.043   7.247  71.450  1.00  0.00    -0.187 C  
ENDROOT
BRANCH   4   5
HETATM    5  O   UNL     1     -10.495   7.592  70.134  1.00  0.00    -0.216 OA 
BRANCH   5   6
HETATM    6  C   UNL     1      -9.957   8.716  69.592  1.00  0.00    -0.191 C  
HETATM    7  O   UNL     1      -8.835   9.138  69.817  1.00  0.00    -0.140 OA 
BRANCH   6   8
HETATM    8  C   UNL     1     -10.960   9.381  68.666  1.00  0.00    -0.075 C  
BRANCH   8   9
HETATM    9  C   UNL     1     -10.341  10.017  67.443  1.00  0.00    -0.292 A  
HETATM   10  C   UNL     1     -10.229   9.220  66.286  1.00  0.00    -0.273 A  
HETATM   11  C   UNL     1      -9.699   9.733  65.104  1.00  0.00    -0.338 A  
HETATM   12  C   UNL     1      -9.309  11.063  65.044  1.00  0.00    -0.250 A  
HETATM   13  C   UNL     1      -9.390  11.859  66.187  1.00  0.00    -0.228 A  
HETATM   14  C   UNL     1      -9.850  11.342  67.407  1.00  0.00    -0.182 A  
BRANCH  14  15
HETATM   15  N   UNL     1      -9.743  12.133  68.572  1.00  0.00    -0.328 NA 
HETATM   16  H   UNL     1      -8.962  11.879  69.177  1.00  0.00     0.000 HD 
BRANCH  15  17
HETATM   17  C   UNL     1     -10.527  13.222  69.058  1.00  0.00    -0.017 A  
HETATM   18  C   UNL     1     -10.175  14.524  68.619  1.00  0.00    -0.243 A  
HETATM   19  C   UNL     1     -10.979  15.641  68.877  1.00  0.00    -0.266 A  
HETATM   20 CL   UNL     1      -8.712  14.798  67.726  1.00  0.00    -0.166 Cl 
HETATM   21  C   UNL     1     -12.153  15.496  69.601  1.00  0.00    -0.352 A  
HETATM   22  C   UNL     1     -12.476  14.251  70.129  1.00  0.00    -0.393 A  
HETATM   23  C   UNL     1     -11.668  13.125  69.884  1.00  0.00    -0.257 A  
HETATM   24 CL   UNL     1     -12.253  11.659  70.594  1.00  0.00    -0.475 Cl 
ENDBRANCH  15  17
ENDBRANCH  14  15
ENDBRANCH   8   9
ENDBRANCH   6   8
ENDBRANCH   5   6
ENDBRANCH   4   5
TORSDOF 6
ENDMDL
MODEL      252
REMARK 921   NORMALIZED FREE ENERGY PREDICTED BY IDOCK:   -4.36 KCAL/MOL
REMARK 922        TOTAL FREE ENERGY PREDICTED BY IDOCK:   -6.85 KCAL/MOL
REMARK 923 INTER-LIGAND FREE ENERGY PREDICTED BY IDOCK:   -6.01 KCAL/MOL
REMARK 924 INTRA-LIGAND FREE ENERGY PREDICTED BY IDOCK:   -0.84 KCAL/MOL
REMARK 927      BINDING AFFINITY PREDICTED BY RF-SCORE:    0.00 PKD
ROOT
HETATM    1  O   UNL     1     -10.415   4.840  70.438  1.00  0.00    -0.186 OA 
HETATM    2  C   UNL     1     -10.979   5.895  69.801  1.00  0.00    -0.382 C  
HETATM    3  O   UNL     1     -11.724   6.674  70.373  1.00  0.00    -0.379 OA 
HETATM    4  C   UNL     1     -10.582   5.984  68.331  1.00  0.00    -0.261 C  
ENDROOT
BRANCH   4   5
HETATM    5  O   UNL     1     -11.259   7.074  67.691  1.00  0.00    -0.155 OA 
BRANCH   5   6
HETATM    6  C   UNL     1     -10.468   8.048  67.171  1.00  0.00    -0.338 C  
HETATM    7  O   UNL     1      -9.710   7.908  66.225  1.00  0.00    -0.188 OA 
BRANCH   6   8
HETATM    8  C   UNL     1     -10.656   9.342  67.941  1.00  0.00    -0.293 C  
BRANCH   8   9
HETATM    9  C   UNL     1      -9.400   9.850  68.609  1.00  0.00    -0.149 A  
HETATM   10  C   UNL     1      -8.896   9.100  69.692  1.00  0.00    -0.152 A  
HETATM   11  C   UNL     1      -7.726   9.476  70.348  1.00  0.00    -0.177 A  
HETATM   12  C   UNL     1      -7.015  10.584  69.910  1.00  0.00    -0.151 A  
HETATM   13  C   UNL     1      -7.514  11.352  68.856  1.00  0.00    -0.113 A  
HETATM   14  C   UNL     1      -8.728  11.034  68.231  1.00  0.00    -0.144 A  
BRANCH  14  15
HETATM   15  N   UNL     1      -9.276  11.940  67.296  1.00  0.00    -0.175 NA 
HETATM   16  H   UNL     1      -9.137  12.921  67.536  1.00  0.00     0.000 HD 
BRANCH  15  17
HETATM   17  C   UNL     1      -9.990  11.733  66.077  1.00  0.00    -0.229 A  
HETATM   18  C   UNL     1     -11.250  12.370  65.945  1.00  0.00    -0.336 A  
HETATM   19  C   UNL     1     -11.951  12.393  64.734  1.00  0.00    -0.462 A  
HETATM   20 CL   UNL     1     -11.992  13.167  67.297  1.00  0.00    -0.413 Cl 
HETATM   21  C   UNL     1     -11.424  11.761  63.617  1.00  0.00    -0.524 A  
HETATM   22  C   UNL     1     -10.239  11.044  63.739  1.00  0.00    -0.425 A  
HETATM   23  C   UNL     1      -9.533  11.006  64.956  1.00  0.00    -0.233 A  
HETATM   24 CL   UNL     1      -8.064  10.093  64.901  1.00  0.00    -0.150 Cl 
ENDBRANCH  15  17
ENDBRANCH  14  15
ENDBRANCH   8   9
ENDBRANCH   6   8
ENDBRANCH   5   6
ENDBRANCH   4   5
TORSDOF 6
ENDMDL
MODEL      253
REMARK 921   NORMALIZED FREE ENERGY PREDICTED BY IDOCK:   -4.36 KCAL/MOL
REMARK 922        TOTAL FREE ENERGY PREDICTED BY IDOCK:   -6.85 KCAL/MOL
REMARK 923 INTER-LIGAND FREE ENERGY PREDICTED BY IDOCK:   -6.16 KCAL/MOL
REMARK 924 INTRA-LIGAND FREE ENERGY PREDICTED BY IDOCK:   -0.69 KCAL/MOL
REMARK 927      BINDING AFFINITY PREDICTED BY RF-SCORE:    0.00 PKD
ROOT
HETATM    1  O   UNL     1      -9.279   9.370  63.545  1.00  0.00    -0.137 OA 
HETATM    2  C   UNL     1      -8.539   9.808  64.592  1.00  0.00    -0.184 C  
HETATM    3  O   UNL     1      -7.418  10.270  64.446  1.00  0.00    -0.143 OA 
HETATM    4  C   UNL     1      -9.255   9.659  65.930  1.00  0.00    -0.194 C  
ENDROOT
BRANCH   4   5
HETATM    5  O   UNL     1      -8.404  10.074  67.007  1.00  0.00    -0.120 OA 
BRANCH   5   6
HETATM    6  C   UNL     1      -8.969  10.885  67.939  1.00  0.00    -0.141 C  
HETATM    7  O   UNL     1      -8.372  11.427  68.855  1.00  0.00    -0.130 OA 
BRANCH   6   8
HETATM    8  C   UNL     1     -10.459  11.019  67.681  1.00  0.00    -0.239 C  
BRANCH   8   9
HETATM    9  C   UNL     1     -11.247  11.519  68.869  1.00  0.00    -0.308 A  
HETATM   10  C   UNL     1     -11.587  10.577  69.862  1.00  0.00    -0.384 A  
HETATM   11  C   UNL     1     -12.286  10.955  71.006  1.00  0.00    -0.498 A  
HETATM   12  C   UNL     1     -12.622  12.287  71.200  1.00  0.00    -0.353 A  
HETATM   13  C   UNL     1     -12.316  13.227  70.216  1.00  0.00    -0.334 A  
HETATM   14  C   UNL     1     -11.679  12.856  69.023  1.00  0.00    -0.327 A  
BRANCH  14  15
HETATM   15  N   UNL     1     -11.554  13.807  67.986  1.00  0.00    -0.313 NA 
HETATM   16  H   UNL     1     -12.246  13.706  67.243  1.00  0.00     0.000 HD 
BRANCH  15  17
HETATM   17  C   UNL     1     -10.637  14.882  67.788  1.00  0.00    -0.262 A  
HETATM   18  C   UNL     1     -10.055  15.013  66.501  1.00  0.00    -0.276 A  
HETATM   19  C   UNL     1      -9.292  16.128  66.137  1.00  0.00    -0.372 A  
HETATM   20 CL   UNL     1     -10.268  13.780  65.298  1.00  0.00    -0.358 Cl 
HETATM   21  C   UNL     1      -9.068  17.143  67.056  1.00  0.00    -0.242 A  
HETATM   22  C   UNL     1      -9.541  17.000  68.355  1.00  0.00    -0.277 A  
HETATM   23  C   UNL     1     -10.300  15.876  68.733  1.00  0.00    -0.228 A  
HETATM   24 CL   UNL     1     -10.829  15.894  70.380  1.00  0.00    -0.337 Cl 
ENDBRANCH  15  17
ENDBRANCH  14  15
ENDBRANCH   8   9
ENDBRANCH   6   8
ENDBRANCH   5   6
ENDBRANCH   4   5
TORSDOF 6
ENDMDL
MODEL      254
REMARK 921   NORMALIZED FREE ENERGY PREDICTED BY IDOCK:   -4.35 KCAL/MOL
REMARK 922        TOTAL FREE ENERGY PREDICTED BY IDOCK:   -6.84 KCAL/MOL
REMARK 923 INTER-LIGAND FREE ENERGY PREDICTED BY IDOCK:   -6.14 KCAL/MOL
REMARK 924 INTRA-LIGAND FREE ENERGY PREDICTED BY IDOCK:   -0.71 KCAL/MOL
REMARK 927      BINDING AFFINITY PREDICTED BY RF-SCORE:    0.00 PKD
ROOT
HETATM    1  O   UNL     1     -10.642  19.738  68.183  1.00  0.00    -0.413 OA 
HETATM    2  C   UNL     1     -10.247  19.265  66.976  1.00  0.00    -0.398 C  
HETATM    3  O   UNL     1     -10.236  19.967  65.977  1.00  0.00    -0.468 OA 
HETATM    4  C   UNL     1      -9.834  17.798  67.018  1.00  0.00    -0.309 C  
ENDROOT
BRANCH   4   5
HETATM    5  O   UNL     1      -9.492  17.332  65.706  1.00  0.00    -0.527 OA 
BRANCH   5   6
HETATM    6  C   UNL     1     -10.423  16.563  65.082  1.00  0.00    -0.143 C  
HETATM    7  O   UNL     1     -11.407  16.985  64.497  1.00  0.00    -1.035 OA 
BRANCH   6   8
HETATM    8  C   UNL     1     -10.066  15.094  65.223  1.00  0.00    -0.365 C  
BRANCH   8   9
HETATM    9  C   UNL     1     -10.550  14.464  66.509  1.00  0.00    -0.296 A  
HETATM   10  C   UNL     1     -11.817  14.858  66.985  1.00  0.00    -0.216 A  
HETATM   11  C   UNL     1     -12.356  14.306  68.145  1.00  0.00    -0.005 A  
HETATM   12  C   UNL     1     -11.657  13.322  68.830  1.00  0.00    -0.350 A  
HETATM   13  C   UNL     1     -10.390  12.939  68.387  1.00  0.00    -0.249 A  
HETATM   14  C   UNL     1      -9.798  13.535  67.264  1.00  0.00    -0.237 A  
BRANCH  14  15
HETATM   15  N   UNL     1      -8.448  13.244  66.964  1.00  0.00    -0.360 NA 
HETATM   16  H   UNL     1      -7.891  14.062  66.718  1.00  0.00     0.000 HD 
BRANCH  15  17
HETATM   17  C   UNL     1      -7.722  12.016  66.943  1.00  0.00    -0.078 A  
HETATM   18  C   UNL     1      -8.043  11.088  65.919  1.00  0.00    -0.075 A  
HETATM   19  C   UNL     1      -7.277   9.940  65.686  1.00  0.00    -0.113 A  
HETATM   20 CL   UNL     1      -9.418  11.338  64.890  1.00  0.00    -0.238 Cl 
HETATM   21  C   UNL     1      -6.175   9.670  66.483  1.00  0.00    -0.064 A  
HETATM   22  C   UNL     1      -5.892  10.507  67.557  1.00  0.00    -0.044 A  
HETATM   23  C   UNL     1      -6.663  11.658  67.805  1.00  0.00    -0.072 A  
HETATM   24 CL   UNL     1      -6.135  12.591  69.163  1.00  0.00    -0.081 Cl 
ENDBRANCH  15  17
ENDBRANCH  14  15
ENDBRANCH   8   9
ENDBRANCH   6   8
ENDBRANCH   5   6
ENDBRANCH   4   5
TORSDOF 6
ENDMDL
MODEL      255
REMARK 921   NORMALIZED FREE ENERGY PREDICTED BY IDOCK:   -4.35 KCAL/MOL
REMARK 922        TOTAL FREE ENERGY PREDICTED BY IDOCK:   -6.84 KCAL/MOL
REMARK 923 INTER-LIGAND FREE ENERGY PREDICTED BY IDOCK:   -6.07 KCAL/MOL
REMARK 924 INTRA-LIGAND FREE ENERGY PREDICTED BY IDOCK:   -0.77 KCAL/MOL
REMARK 927      BINDING AFFINITY PREDICTED BY RF-SCORE:    0.00 PKD
ROOT
HETATM    1  O   UNL     1     -10.427  17.064  65.485  1.00  0.00    -0.572 OA 
HETATM    2  C   UNL     1     -10.380  15.710  65.511  1.00  0.00    -0.396 C  
HETATM    3  O   UNL     1     -10.705  15.032  64.549  1.00  0.00    -0.289 OA 
HETATM    4  C   UNL     1      -9.888  15.157  66.844  1.00  0.00    -0.237 C  
ENDROOT
BRANCH   4   5
HETATM    5  O   UNL     1      -9.922  13.723  66.839  1.00  0.00    -0.252 OA 
BRANCH   5   6
HETATM    6  C   UNL     1      -9.356  13.107  67.909  1.00  0.00    -0.215 C  
HETATM    7  O   UNL     1      -8.503  13.595  68.633  1.00  0.00    -0.134 OA 
BRANCH   6   8
HETATM    8  C   UNL     1      -9.934  11.713  68.075  1.00  0.00    -0.194 C  
BRANCH   8   9
HETATM    9  C   UNL     1     -10.916  11.585  69.217  1.00  0.00    -0.261 A  
HETATM   10  C   UNL     1     -11.584  12.757  69.629  1.00  0.00    -0.322 A  
HETATM   11  C   UNL     1     -12.528  12.728  70.653  1.00  0.00    -0.328 A  
HETATM   12  C   UNL     1     -12.852  11.522  71.257  1.00  0.00    -0.463 A  
HETATM   13  C   UNL     1     -12.182  10.357  70.879  1.00  0.00    -0.484 A  
HETATM   14  C   UNL     1     -11.175  10.377  69.903  1.00  0.00    -0.306 A  
BRANCH  14  15
HETATM   15  N   UNL     1     -10.406   9.213  69.686  1.00  0.00    -0.211 NA 
HETATM   16  H   UNL     1     -10.387   8.902  68.715  1.00  0.00     0.000 HD 
BRANCH  15  17
HETATM   17  C   UNL     1      -9.651   8.392  70.577  1.00  0.00    -0.170 A  
HETATM   18  C   UNL     1     -10.277   7.217  71.067  1.00  0.00    -0.192 A  
HETATM   19  C   UNL     1      -9.576   6.246  71.792  1.00  0.00    -0.165 A  
HETATM   20 CL   UNL     1     -11.963   6.921  70.783  1.00  0.00    -0.426 Cl 
HETATM   21  C   UNL     1      -8.229   6.427  72.069  1.00  0.00    -0.109 A  
HETATM   22  C   UNL     1      -7.611   7.614  71.688  1.00  0.00    -0.085 A  
HETATM   23  C   UNL     1      -8.311   8.600  70.968  1.00  0.00    -0.161 A  
HETATM   24 CL   UNL     1      -7.363   9.987  70.555  1.00  0.00    -0.102 Cl 
ENDBRANCH  15  17
ENDBRANCH  14  15
ENDBRANCH   8   9
ENDBRANCH   6   8
ENDBRANCH   5   6
ENDBRANCH   4   5
TORSDOF 6
ENDMDL
MODEL      256
REMARK 921   NORMALIZED FREE ENERGY PREDICTED BY IDOCK:   -4.35 KCAL/MOL
REMARK 922        TOTAL FREE ENERGY PREDICTED BY IDOCK:   -6.84 KCAL/MOL
REMARK 923 INTER-LIGAND FREE ENERGY PREDICTED BY IDOCK:   -5.81 KCAL/MOL
REMARK 924 INTRA-LIGAND FREE ENERGY PREDICTED BY IDOCK:   -1.03 KCAL/MOL
REMARK 927      BINDING AFFINITY PREDICTED BY RF-SCORE:    0.00 PKD
ROOT
HETATM    1  O   UNL     1      -9.290   9.430  64.354  1.00  0.00    -0.162 OA 
HETATM    2  C   UNL     1      -8.342  10.067  65.084  1.00  0.00    -0.153 C  
HETATM    3  O   UNL     1      -7.160   9.767  65.014  1.00  0.00    -0.107 OA 
HETATM    4  C   UNL     1      -8.914  11.164  65.974  1.00  0.00    -0.200 C  
ENDROOT
BRANCH   4   5
HETATM    5  O   UNL     1      -7.880  11.756  66.773  1.00  0.00    -0.157 OA 
BRANCH   5   6
HETATM    6  C   UNL     1      -8.246  12.824  67.530  1.00  0.00    -0.179 C  
HETATM    7  O   UNL     1      -7.760  13.120  68.609  1.00  0.00    -0.128 OA 
BRANCH   6   8
HETATM    8  C   UNL     1      -9.356  13.597  66.841  1.00  0.00    -0.261 C  
BRANCH   8   9
HETATM    9  C   UNL     1     -10.307  14.287  67.792  1.00  0.00    -0.238 A  
HETATM   10  C   UNL     1     -11.251  13.480  68.459  1.00  0.00    -0.310 A  
HETATM   11  C   UNL     1     -12.147  14.026  69.376  1.00  0.00    -0.386 A  
HETATM   12  C   UNL     1     -12.089  15.380  69.674  1.00  0.00    -0.354 A  
HETATM   13  C   UNL     1     -11.178  16.197  69.003  1.00  0.00    -0.347 A  
HETATM   14  C   UNL     1     -10.318  15.681  68.022  1.00  0.00    -0.246 A  
BRANCH  14  15
HETATM   15  N   UNL     1      -9.545  16.575  67.248  1.00  0.00    -0.239 NA 
HETATM   16  H   UNL     1      -9.452  16.304  66.269  1.00  0.00     0.000 HD 
BRANCH  15  17
HETATM   17  C   UNL     1      -8.871  17.786  67.585  1.00  0.00    -0.248 A  
HETATM   18  C   UNL     1      -9.419  18.996  67.088  1.00  0.00    -0.307 A  
HETATM   19  C   UNL     1      -8.956  20.250  67.503  1.00  0.00    -0.435 A  
HETATM   20 CL   UNL     1     -10.709  18.979  65.927  1.00  0.00    -0.488 Cl 
HETATM   21  C   UNL     1      -7.915  20.337  68.415  1.00  0.00     0.011 A  
HETATM   22  C   UNL     1      -7.291  19.172  68.846  1.00  0.00    -0.379 A  
HETATM   23  C   UNL     1      -7.742  17.906  68.426  1.00  0.00    -0.291 A  
HETATM   24 CL   UNL     1      -6.863  16.576  69.097  1.00  0.00    -0.207 Cl 
ENDBRANCH  15  17
ENDBRANCH  14  15
ENDBRANCH   8   9
ENDBRANCH   6   8
ENDBRANCH   5   6
ENDBRANCH   4   5
TORSDOF 6
ENDMDL
MODEL      257
REMARK 921   NORMALIZED FREE ENERGY PREDICTED BY IDOCK:   -4.34 KCAL/MOL
REMARK 922        TOTAL FREE ENERGY PREDICTED BY IDOCK:   -6.82 KCAL/MOL
REMARK 923 INTER-LIGAND FREE ENERGY PREDICTED BY IDOCK:   -5.88 KCAL/MOL
REMARK 924 INTRA-LIGAND FREE ENERGY PREDICTED BY IDOCK:   -0.95 KCAL/MOL
REMARK 927      BINDING AFFINITY PREDICTED BY RF-SCORE:    0.00 PKD
ROOT
HETATM    1  O   UNL     1     -11.246   8.494  72.422  1.00  0.00    -0.359 OA 
HETATM    2  C   UNL     1     -10.699   8.518  71.182  1.00  0.00    -0.234 C  
HETATM    3  O   UNL     1     -10.194   7.527  70.678  1.00  0.00    -0.201 OA 
HETATM    4  C   UNL     1     -10.790   9.887  70.517  1.00  0.00    -0.326 C  
ENDROOT
BRANCH   4   5
HETATM    5  O   UNL     1     -10.138   9.872  69.240  1.00  0.00    -0.180 OA 
BRANCH   5   6
HETATM    6  C   UNL     1     -10.722  10.611  68.261  1.00  0.00    -0.219 C  
HETATM    7  O   UNL     1     -11.919  10.648  68.026  1.00  0.00    -0.457 OA 
BRANCH   6   8
HETATM    8  C   UNL     1      -9.666  11.385  67.491  1.00  0.00    -0.191 C  
BRANCH   8   9
HETATM    9  C   UNL     1     -10.015  11.625  66.040  1.00  0.00    -0.260 A  
HETATM   10  C   UNL     1     -10.381  12.936  65.672  1.00  0.00    -0.295 A  
HETATM   11  C   UNL     1     -10.689  13.256  64.352  1.00  0.00    -0.432 A  
HETATM   12  C   UNL     1     -10.599  12.282  63.368  1.00  0.00    -0.427 A  
HETATM   13  C   UNL     1     -10.263  10.974  63.719  1.00  0.00    -0.425 A  
HETATM   14  C   UNL     1     -10.022  10.614  65.053  1.00  0.00    -0.305 A  
BRANCH  14  15
HETATM   15  N   UNL     1      -9.865   9.249  65.378  1.00  0.00    -0.444 NA 
HETATM   16  H   UNL     1     -10.701   8.685  65.224  1.00  0.00     0.000 HD 
BRANCH  15  17
HETATM   17  C   UNL     1      -8.751   8.513  65.883  1.00  0.00    -0.174 A  
HETATM   18  C   UNL     1      -9.030   7.337  66.624  1.00  0.00    -0.150 A  
HETATM   19  C   UNL     1      -8.025   6.441  67.006  1.00  0.00    -0.109 A  
HETATM   20 CL   UNL     1     -10.653   6.945  67.096  1.00  0.00    -0.370 Cl 
HETATM   21  C   UNL     1      -6.703   6.701  66.677  1.00  0.00    -0.056 A  
HETATM   22  C   UNL     1      -6.385   7.894  66.038  1.00  0.00    -0.045 A  
HETATM   23  C   UNL     1      -7.388   8.807  65.659  1.00  0.00    -0.085 A  
HETATM   24 CL   UNL     1      -6.800  10.214  64.843  1.00  0.00    -0.133 Cl 
ENDBRANCH  15  17
ENDBRANCH  14  15
ENDBRANCH   8   9
ENDBRANCH   6   8
ENDBRANCH   5   6
ENDBRANCH   4   5
TORSDOF 6
ENDMDL
MODEL      258
REMARK 921   NORMALIZED FREE ENERGY PREDICTED BY IDOCK:   -4.34 KCAL/MOL
REMARK 922        TOTAL FREE ENERGY PREDICTED BY IDOCK:   -6.82 KCAL/MOL
REMARK 923 INTER-LIGAND FREE ENERGY PREDICTED BY IDOCK:   -5.85 KCAL/MOL
REMARK 924 INTRA-LIGAND FREE ENERGY PREDICTED BY IDOCK:   -0.97 KCAL/MOL
REMARK 927      BINDING AFFINITY PREDICTED BY RF-SCORE:    0.00 PKD
ROOT
HETATM    1  O   UNL     1     -13.368  13.626  72.843  1.00  0.00    -0.587 OA 
HETATM    2  C   UNL     1     -13.196  12.989  71.659  1.00  0.00    -0.336 C  
HETATM    3  O   UNL     1     -13.066  13.599  70.609  1.00  0.00    -0.135 OA 
HETATM    4  C   UNL     1     -13.187  11.471  71.795  1.00  0.00    -0.351 C  
ENDROOT
BRANCH   4   5
HETATM    5  O   UNL     1     -13.071  10.849  70.508  1.00  0.00    -0.210 OA 
BRANCH   5   6
HETATM    6  C   UNL     1     -11.812  10.722  70.016  1.00  0.00    -0.344 C  
HETATM    7  O   UNL     1     -11.446  11.096  68.913  1.00  0.00    -0.242 OA 
BRANCH   6   8
HETATM    8  C   UNL     1     -10.919  10.039  71.036  1.00  0.00    -0.267 C  
BRANCH   8   9
HETATM    9  C   UNL     1     -10.942   8.530  70.962  1.00  0.00    -0.296 A  
HETATM   10  C   UNL     1     -11.815   7.854  71.839  1.00  0.00    -0.345 A  
HETATM   11  C   UNL     1     -11.925   6.465  71.819  1.00  0.00    -0.370 A  
HETATM   12  C   UNL     1     -11.195   5.729  70.897  1.00  0.00    -0.200 A  
HETATM   13  C   UNL     1     -10.307   6.381  70.040  1.00  0.00    -0.245 A  
HETATM   14  C   UNL     1     -10.126   7.770  70.094  1.00  0.00    -0.197 A  
BRANCH  14  15
HETATM   15  N   UNL     1      -9.090   8.357  69.335  1.00  0.00    -0.153 NA 
HETATM   16  H   UNL     1      -8.164   8.266  69.753  1.00  0.00     0.000 HD 
BRANCH  15  17
HETATM   17  C   UNL     1      -9.101   9.056  68.090  1.00  0.00    -0.132 A  
HETATM   18  C   UNL     1      -8.339  10.249  68.006  1.00  0.00    -0.114 A  
HETATM   19  C   UNL     1      -8.125  10.914  66.793  1.00  0.00    -0.142 A  
HETATM   20 CL   UNL     1      -7.623  10.950  69.424  1.00  0.00    -0.127 Cl 
HETATM   21  C   UNL     1      -8.683  10.418  65.624  1.00  0.00    -0.184 A  
HETATM   22  C   UNL     1      -9.516   9.306  65.688  1.00  0.00    -0.324 A  
HETATM   23  C   UNL     1      -9.746   8.638  66.905  1.00  0.00    -0.214 A  
HETATM   24 CL   UNL     1     -10.780   7.257  66.776  1.00  0.00    -0.337 Cl 
ENDBRANCH  15  17
ENDBRANCH  14  15
ENDBRANCH   8   9
ENDBRANCH   6   8
ENDBRANCH   5   6
ENDBRANCH   4   5
TORSDOF 6
ENDMDL
MODEL      259
REMARK 921   NORMALIZED FREE ENERGY PREDICTED BY IDOCK:   -4.34 KCAL/MOL
REMARK 922        TOTAL FREE ENERGY PREDICTED BY IDOCK:   -6.82 KCAL/MOL
REMARK 923 INTER-LIGAND FREE ENERGY PREDICTED BY IDOCK:   -5.95 KCAL/MOL
REMARK 924 INTRA-LIGAND FREE ENERGY PREDICTED BY IDOCK:   -0.87 KCAL/MOL
REMARK 927      BINDING AFFINITY PREDICTED BY RF-SCORE:    0.00 PKD
ROOT
HETATM    1  O   UNL     1      -5.864  10.667  69.780  1.00  0.00    -0.044 OA 
HETATM    2  C   UNL     1      -6.741  10.213  68.851  1.00  0.00    -0.053 C  
HETATM    3  O   UNL     1      -6.393   9.931  67.715  1.00  0.00    -0.055 OA 
HETATM    4  C   UNL     1      -8.166  10.102  69.382  1.00  0.00    -0.166 C  
ENDROOT
BRANCH   4   5
HETATM    5  O   UNL     1      -9.061   9.685  68.342  1.00  0.00    -0.123 OA 
BRANCH   5   6
HETATM    6  C   UNL     1     -10.178  10.439  68.175  1.00  0.00    -0.161 C  
HETATM    7  O   UNL     1     -11.305  10.110  68.508  1.00  0.00    -0.208 OA 
BRANCH   6   8
HETATM    8  C   UNL     1      -9.825  11.754  67.505  1.00  0.00    -0.195 C  
BRANCH   8   9
HETATM    9  C   UNL     1     -10.604  12.030  66.240  1.00  0.00    -0.287 A  
HETATM   10  C   UNL     1     -10.108  11.475  65.042  1.00  0.00    -0.315 A  
HETATM   11  C   UNL     1     -10.778  11.652  63.833  1.00  0.00    -0.459 A  
HETATM   12  C   UNL     1     -11.977  12.350  63.805  1.00  0.00    -0.600 A  
HETATM   13  C   UNL     1     -12.468  12.927  64.977  1.00  0.00    -0.553 A  
HETATM   14  C   UNL     1     -11.771  12.825  66.190  1.00  0.00    -0.403 A  
BRANCH  14  15
HETATM   15  N   UNL     1     -12.215  13.575  67.302  1.00  0.00    -0.318 NA 
HETATM   16  H   UNL     1     -13.230  13.616  67.398  1.00  0.00     0.000 HD 
BRANCH  15  17
HETATM   17  C   UNL     1     -11.504  14.285  68.314  1.00  0.00    -0.304 A  
HETATM   18  C   UNL     1     -10.729  15.400  67.905  1.00  0.00    -0.286 A  
HETATM   19  C   UNL     1     -10.143  16.279  68.823  1.00  0.00    -0.243 A  
HETATM   20 CL   UNL     1     -10.470  15.735  66.221  1.00  0.00    -0.303 Cl 
HETATM   21  C   UNL     1     -10.295  16.061  70.184  1.00  0.00    -0.119 A  
HETATM   22  C   UNL     1     -10.965  14.922  70.618  1.00  0.00    -0.112 A  
HETATM   23  C   UNL     1     -11.548  14.027  69.702  1.00  0.00    -0.289 A  
HETATM   24 CL   UNL     1     -12.368  12.691  70.434  1.00  0.00    -0.358 Cl 
ENDBRANCH  15  17
ENDBRANCH  14  15
ENDBRANCH   8   9
ENDBRANCH   6   8
ENDBRANCH   5   6
ENDBRANCH   4   5
TORSDOF 6
ENDMDL
MODEL      260
REMARK 921   NORMALIZED FREE ENERGY PREDICTED BY IDOCK:   -4.33 KCAL/MOL
REMARK 922        TOTAL FREE ENERGY PREDICTED BY IDOCK:   -6.81 KCAL/MOL
REMARK 923 INTER-LIGAND FREE ENERGY PREDICTED BY IDOCK:   -6.35 KCAL/MOL
REMARK 924 INTRA-LIGAND FREE ENERGY PREDICTED BY IDOCK:   -0.46 KCAL/MOL
REMARK 927      BINDING AFFINITY PREDICTED BY RF-SCORE:    0.00 PKD
ROOT
HETATM    1  O   UNL     1     -10.569   4.593  66.496  1.00  0.00    -0.221 OA 
HETATM    2  C   UNL     1      -9.884   5.761  66.440  1.00  0.00    -0.138 C  
HETATM    3  O   UNL     1      -8.920   5.913  65.706  1.00  0.00    -0.157 OA 
HETATM    4  C   UNL     1     -10.446   6.826  67.376  1.00  0.00    -0.262 C  
ENDROOT
BRANCH   4   5
HETATM    5  O   UNL     1      -9.646   8.014  67.327  1.00  0.00    -0.146 OA 
BRANCH   5   6
HETATM    6  C   UNL     1      -8.821   8.224  68.385  1.00  0.00    -0.137 C  
HETATM    7  O   UNL     1      -8.288   7.348  69.047  1.00  0.00    -0.124 OA 
BRANCH   6   8
HETATM    8  C   UNL     1      -8.659   9.713  68.635  1.00  0.00    -0.120 C  
BRANCH   8   9
HETATM    9  C   UNL     1      -9.897  10.383  69.186  1.00  0.00    -0.237 A  
HETATM   10  C   UNL     1     -10.539   9.758  70.275  1.00  0.00    -0.348 A  
HETATM   11  C   UNL     1     -11.668  10.320  70.866  1.00  0.00    -0.472 A  
HETATM   12  C   UNL     1     -12.153  11.537  70.407  1.00  0.00    -0.471 A  
HETATM   13  C   UNL     1     -11.545  12.155  69.314  1.00  0.00    -0.377 A  
HETATM   14  C   UNL     1     -10.453  11.570  68.657  1.00  0.00    -0.202 A  
BRANCH  14  15
HETATM   15  N   UNL     1      -9.990  12.142  67.452  1.00  0.00    -0.198 NA 
HETATM   16  H   UNL     1      -9.147  12.706  67.556  1.00  0.00     0.000 HD 
BRANCH  15  17
HETATM   17  C   UNL     1     -10.486  12.075  66.115  1.00  0.00    -0.236 A  
HETATM   18  C   UNL     1     -11.622  12.865  65.803  1.00  0.00    -0.368 A  
HETATM   19  C   UNL     1     -12.081  13.025  64.490  1.00  0.00    -0.468 A  
HETATM   20 CL   UNL     1     -12.506  13.687  67.050  1.00  0.00    -0.252 Cl 
HETATM   21  C   UNL     1     -11.432  12.383  63.447  1.00  0.00    -0.526 A  
HETATM   22  C   UNL     1     -10.376  11.523  63.730  1.00  0.00    -0.450 A  
HETATM   23  C   UNL     1      -9.915  11.348  65.048  1.00  0.00    -0.266 A  
HETATM   24 CL   UNL     1      -8.572  10.267  65.196  1.00  0.00    -0.170 Cl 
ENDBRANCH  15  17
ENDBRANCH  14  15
ENDBRANCH   8   9
ENDBRANCH   6   8
ENDBRANCH   5   6
ENDBRANCH   4   5
TORSDOF 6
ENDMDL
MODEL      261
REMARK 921   NORMALIZED FREE ENERGY PREDICTED BY IDOCK:   -4.33 KCAL/MOL
REMARK 922        TOTAL FREE ENERGY PREDICTED BY IDOCK:   -6.81 KCAL/MOL
REMARK 923 INTER-LIGAND FREE ENERGY PREDICTED BY IDOCK:   -6.19 KCAL/MOL
REMARK 924 INTRA-LIGAND FREE ENERGY PREDICTED BY IDOCK:   -0.62 KCAL/MOL
REMARK 927      BINDING AFFINITY PREDICTED BY RF-SCORE:    0.00 PKD
ROOT
HETATM    1  O   UNL     1     -13.741   6.371  71.947  1.00  0.00     0.002 OA 
HETATM    2  C   UNL     1     -12.787   7.198  71.452  1.00  0.00    -0.384 C  
HETATM    3  O   UNL     1     -12.120   6.904  70.472  1.00  0.00    -0.353 OA 
HETATM    4  C   UNL     1     -12.653   8.494  72.243  1.00  0.00    -0.381 C  
ENDROOT
BRANCH   4   5
HETATM    5  O   UNL     1     -11.587   9.298  71.720  1.00  0.00    -0.366 OA 
BRANCH   5   6
HETATM    6  C   UNL     1     -11.954  10.327  70.913  1.00  0.00    -0.375 C  
HETATM    7  O   UNL     1     -13.072  10.814  70.857  1.00  0.00    -0.331 OA 
BRANCH   6   8
HETATM    8  C   UNL     1     -10.771  10.784  70.079  1.00  0.00    -0.140 C  
BRANCH   8   9
HETATM    9  C   UNL     1     -11.154  11.557  68.838  1.00  0.00    -0.288 A  
HETATM   10  C   UNL     1     -11.629  12.872  69.017  1.00  0.00    -0.372 A  
HETATM   11  C   UNL     1     -11.976  13.668  67.928  1.00  0.00    -0.382 A  
HETATM   12  C   UNL     1     -11.817  13.181  66.639  1.00  0.00    -0.449 A  
HETATM   13  C   UNL     1     -11.372  11.872  66.445  1.00  0.00    -0.400 A  
HETATM   14  C   UNL     1     -11.088  11.029  67.529  1.00  0.00    -0.302 A  
BRANCH  14  15
HETATM   15  N   UNL     1     -10.816   9.664  67.284  1.00  0.00    -0.296 NA 
HETATM   16  H   UNL     1     -11.595   9.041  67.497  1.00  0.00     0.000 HD 
BRANCH  15  17
HETATM   17  C   UNL     1      -9.652   9.000  66.794  1.00  0.00    -0.200 A  
HETATM   18  C   UNL     1      -9.765   7.615  66.511  1.00  0.00    -0.181 A  
HETATM   19  C   UNL     1      -8.754   6.903  65.856  1.00  0.00    -0.146 A  
HETATM   20 CL   UNL     1     -11.183   6.724  66.968  1.00  0.00    -0.394 Cl 
HETATM   21  C   UNL     1      -7.586   7.548  65.479  1.00  0.00    -0.093 A  
HETATM   22  C   UNL     1      -7.403   8.882  65.829  1.00  0.00    -0.089 A  
HETATM   23  C   UNL     1      -8.410   9.603  66.498  1.00  0.00    -0.120 A  
HETATM   24 CL   UNL     1      -8.013  11.256  66.816  1.00  0.00    -0.155 Cl 
ENDBRANCH  15  17
ENDBRANCH  14  15
ENDBRANCH   8   9
ENDBRANCH   6   8
ENDBRANCH   5   6
ENDBRANCH   4   5
TORSDOF 6
ENDMDL
MODEL      262
REMARK 921   NORMALIZED FREE ENERGY PREDICTED BY IDOCK:   -4.33 KCAL/MOL
REMARK 922        TOTAL FREE ENERGY PREDICTED BY IDOCK:   -6.81 KCAL/MOL
REMARK 923 INTER-LIGAND FREE ENERGY PREDICTED BY IDOCK:   -5.84 KCAL/MOL
REMARK 924 INTRA-LIGAND FREE ENERGY PREDICTED BY IDOCK:   -0.97 KCAL/MOL
REMARK 927      BINDING AFFINITY PREDICTED BY RF-SCORE:    0.00 PKD
ROOT
HETATM    1  O   UNL     1      -8.464  16.767  68.484  1.00  0.00    -0.223 OA 
HETATM    2  C   UNL     1      -8.633  15.437  68.283  1.00  0.00    -0.158 C  
HETATM    3  O   UNL     1      -7.745  14.732  67.832  1.00  0.00    -0.114 OA 
HETATM    4  C   UNL     1     -10.022  14.948  68.678  1.00  0.00    -0.224 C  
ENDROOT
BRANCH   4   5
HETATM    5  O   UNL     1     -10.168  13.552  68.382  1.00  0.00    -0.237 OA 
BRANCH   5   6
HETATM    6  C   UNL     1     -11.382  13.164  67.912  1.00  0.00    -0.286 C  
HETATM    7  O   UNL     1     -12.239  13.913  67.471  1.00  0.00    -0.366 OA 
BRANCH   6   8
HETATM    8  C   UNL     1     -11.526  11.656  68.020  1.00  0.00    -0.385 C  
BRANCH   8   9
HETATM    9  C   UNL     1     -11.929  11.173  69.394  1.00  0.00    -0.420 A  
HETATM   10  C   UNL     1     -12.491  12.121  70.274  1.00  0.00    -0.164 A  
HETATM   11  C   UNL     1     -12.920  11.759  71.548  1.00  0.00    -0.446 A  
HETATM   12  C   UNL     1     -12.832  10.435  71.954  1.00  0.00    -0.519 A  
HETATM   13  C   UNL     1     -12.255   9.489  71.106  1.00  0.00    -0.421 A  
HETATM   14  C   UNL     1     -11.749   9.847  69.848  1.00  0.00    -0.071 A  
BRANCH  14  15
HETATM   15  N   UNL     1     -11.016   8.894  69.107  1.00  0.00    -0.428 NA 
HETATM   16  H   UNL     1     -11.485   8.576  68.259  1.00  0.00     0.000 HD 
BRANCH  15  17
HETATM   17  C   UNL     1      -9.739   8.296  69.327  1.00  0.00    -0.177 A  
HETATM   18  C   UNL     1      -9.702   6.891  69.511  1.00  0.00    -0.158 A  
HETATM   19  C   UNL     1      -8.500   6.174  69.549  1.00  0.00    -0.120 A  
HETATM   20 CL   UNL     1     -11.166   5.978  69.699  1.00  0.00    -0.478 Cl 
HETATM   21  C   UNL     1      -7.291   6.843  69.422  1.00  0.00    -0.091 A  
HETATM   22  C   UNL     1      -7.289   8.232  69.339  1.00  0.00    -0.074 A  
HETATM   23  C   UNL     1      -8.493   8.961  69.312  1.00  0.00    -0.121 A  
HETATM   24 CL   UNL     1      -8.286  10.672  69.169  1.00  0.00    -0.153 Cl 
ENDBRANCH  15  17
ENDBRANCH  14  15
ENDBRANCH   8   9
ENDBRANCH   6   8
ENDBRANCH   5   6
ENDBRANCH   4   5
TORSDOF 6
ENDMDL
MODEL      263
REMARK 921   NORMALIZED FREE ENERGY PREDICTED BY IDOCK:   -4.31 KCAL/MOL
REMARK 922        TOTAL FREE ENERGY PREDICTED BY IDOCK:   -6.78 KCAL/MOL
REMARK 923 INTER-LIGAND FREE ENERGY PREDICTED BY IDOCK:   -6.24 KCAL/MOL
REMARK 924 INTRA-LIGAND FREE ENERGY PREDICTED BY IDOCK:   -0.54 KCAL/MOL
REMARK 927      BINDING AFFINITY PREDICTED BY RF-SCORE:    0.00 PKD
ROOT
HETATM    1  O   UNL     1      -6.787   8.798  65.358  1.00  0.00    -0.070 OA 
HETATM    2  C   UNL     1      -7.283   9.387  66.473  1.00  0.00    -0.089 C  
HETATM    3  O   UNL     1      -7.589   8.743  67.465  1.00  0.00    -0.092 OA 
HETATM    4  C   UNL     1      -7.409  10.901  66.341  1.00  0.00    -0.141 C  
ENDROOT
BRANCH   4   5
HETATM    5  O   UNL     1      -8.002  11.463  67.519  1.00  0.00    -0.117 OA 
BRANCH   5   6
HETATM    6  C   UNL     1      -7.957  12.817  67.625  1.00  0.00    -0.165 C  
HETATM    7  O   UNL     1      -6.966  13.504  67.439  1.00  0.00    -0.166 OA 
BRANCH   6   8
HETATM    8  C   UNL     1      -9.321  13.356  68.016  1.00  0.00    -0.217 C  
BRANCH   8   9
HETATM    9  C   UNL     1     -10.267  13.538  66.852  1.00  0.00    -0.256 A  
HETATM   10  C   UNL     1      -9.857  14.399  65.814  1.00  0.00    -0.330 A  
HETATM   11  C   UNL     1     -10.652  14.603  64.688  1.00  0.00    -0.268 A  
HETATM   12  C   UNL     1     -11.852  13.920  64.559  1.00  0.00    -0.449 A  
HETATM   13  C   UNL     1     -12.286  13.084  65.590  1.00  0.00    -0.521 A  
HETATM   14  C   UNL     1     -11.537  12.923  66.764  1.00  0.00    -0.360 A  
BRANCH  14  15
HETATM   15  N   UNL     1     -12.101  12.212  67.847  1.00  0.00    -0.466 NA 
HETATM   16  H   UNL     1     -13.046  12.509  68.091  1.00  0.00     0.000 HD 
BRANCH  15  17
HETATM   17  C   UNL     1     -11.592  11.156  68.660  1.00  0.00    -0.315 A  
HETATM   18  C   UNL     1     -11.833  11.236  70.056  1.00  0.00    -0.367 A  
HETATM   19  C   UNL     1     -11.547  10.176  70.924  1.00  0.00    -0.459 A  
HETATM   20 CL   UNL     1     -12.507  12.671  70.763  1.00  0.00    -0.408 Cl 
HETATM   21  C   UNL     1     -10.991   9.006  70.428  1.00  0.00    -0.283 A  
HETATM   22  C   UNL     1     -10.651   8.933  69.081  1.00  0.00    -0.211 A  
HETATM   23  C   UNL     1     -10.925   9.999  68.203  1.00  0.00    -0.235 A  
HETATM   24 CL   UNL     1     -10.463   9.707  66.562  1.00  0.00    -0.256 Cl 
ENDBRANCH  15  17
ENDBRANCH  14  15
ENDBRANCH   8   9
ENDBRANCH   6   8
ENDBRANCH   5   6
ENDBRANCH   4   5
TORSDOF 6
ENDMDL
MODEL      264
REMARK 921   NORMALIZED FREE ENERGY PREDICTED BY IDOCK:   -4.29 KCAL/MOL
REMARK 922        TOTAL FREE ENERGY PREDICTED BY IDOCK:   -6.75 KCAL/MOL
REMARK 923 INTER-LIGAND FREE ENERGY PREDICTED BY IDOCK:   -5.74 KCAL/MOL
REMARK 924 INTRA-LIGAND FREE ENERGY PREDICTED BY IDOCK:   -1.02 KCAL/MOL
REMARK 927      BINDING AFFINITY PREDICTED BY RF-SCORE:    0.00 PKD
ROOT
HETATM    1  O   UNL     1      -6.091  20.609  70.759  1.00  0.00    -0.550 OA 
HETATM    2  C   UNL     1      -6.098  20.246  69.453  1.00  0.00    -0.339 C  
HETATM    3  O   UNL     1      -5.300  20.702  68.649  1.00  0.00    -0.249 OA 
HETATM    4  C   UNL     1      -7.188  19.232  69.123  1.00  0.00    -0.325 C  
ENDROOT
BRANCH   4   5
HETATM    5  O   UNL     1      -7.194  18.936  67.720  1.00  0.00    -0.228 OA 
BRANCH   5   6
HETATM    6  C   UNL     1      -7.220  17.619  67.387  1.00  0.00    -0.181 C  
HETATM    7  O   UNL     1      -6.715  17.137  66.386  1.00  0.00    -0.230 OA 
BRANCH   6   8
HETATM    8  C   UNL     1      -7.977  16.829  68.439  1.00  0.00    -0.224 C  
BRANCH   8   9
HETATM    9  C   UNL     1      -7.274  15.567  68.884  1.00  0.00    -0.142 A  
HETATM   10  C   UNL     1      -6.387  15.672  69.976  1.00  0.00    -0.116 A  
HETATM   11  C   UNL     1      -5.720  14.555  70.473  1.00  0.00    -0.159 A  
HETATM   12  C   UNL     1      -5.956  13.307  69.917  1.00  0.00    -0.136 A  
HETATM   13  C   UNL     1      -6.811  13.189  68.821  1.00  0.00    -0.102 A  
HETATM   14  C   UNL     1      -7.435  14.311  68.257  1.00  0.00    -0.125 A  
BRANCH  14  15
HETATM   15  N   UNL     1      -8.144  14.165  67.044  1.00  0.00    -0.376 NA 
HETATM   16  H   UNL     1      -7.665  14.556  66.232  1.00  0.00     0.000 HD 
BRANCH  15  17
HETATM   17  C   UNL     1      -9.407  13.572  66.746  1.00  0.00    -0.257 A  
HETATM   18  C   UNL     1      -9.416  12.192  66.416  1.00  0.00    -0.233 A  
HETATM   19  C   UNL     1     -10.605  11.464  66.288  1.00  0.00    -0.312 A  
HETATM   20 CL   UNL     1      -7.934  11.329  66.153  1.00  0.00    -0.094 Cl 
HETATM   21  C   UNL     1     -11.826  12.095  66.468  1.00  0.00    -0.322 A  
HETATM   22  C   UNL     1     -11.855  13.467  66.695  1.00  0.00    -0.450 A  
HETATM   23  C   UNL     1     -10.665  14.210  66.813  1.00  0.00    -0.286 A  
HETATM   24 CL   UNL     1     -10.904  15.894  67.130  1.00  0.00    -0.302 Cl 
ENDBRANCH  15  17
ENDBRANCH  14  15
ENDBRANCH   8   9
ENDBRANCH   6   8
ENDBRANCH   5   6
ENDBRANCH   4   5
TORSDOF 6
ENDMDL
MODEL      265
REMARK 921   NORMALIZED FREE ENERGY PREDICTED BY IDOCK:   -4.28 KCAL/MOL
REMARK 922        TOTAL FREE ENERGY PREDICTED BY IDOCK:   -6.74 KCAL/MOL
REMARK 923 INTER-LIGAND FREE ENERGY PREDICTED BY IDOCK:   -6.23 KCAL/MOL
REMARK 924 INTRA-LIGAND FREE ENERGY PREDICTED BY IDOCK:   -0.51 KCAL/MOL
REMARK 927      BINDING AFFINITY PREDICTED BY RF-SCORE:    0.00 PKD
ROOT
HETATM    1  O   UNL     1     -10.632   6.132  67.073  1.00  0.00    -0.239 OA 
HETATM    2  C   UNL     1     -10.002   7.314  67.274  1.00  0.00    -0.192 C  
HETATM    3  O   UNL     1      -8.850   7.503  66.917  1.00  0.00    -0.127 OA 
HETATM    4  C   UNL     1     -10.879   8.344  67.978  1.00  0.00     0.054 C  
ENDROOT
BRANCH   4   5
HETATM    5  O   UNL     1     -10.142   9.549  68.227  1.00  0.00    -0.169 OA 
BRANCH   5   6
HETATM    6  C   UNL     1     -10.588  10.665  67.593  1.00  0.00    -0.246 C  
HETATM    7  O   UNL     1     -11.065  10.693  66.470  1.00  0.00    -0.114 OA 
BRANCH   6   8
HETATM    8  C   UNL     1     -10.402  11.880  68.483  1.00  0.00    -0.228 C  
BRANCH   8   9
HETATM    9  C   UNL     1     -11.370  11.949  69.641  1.00  0.00    -0.266 A  
HETATM   10  C   UNL     1     -11.445  10.825  70.489  1.00  0.00    -0.367 A  
HETATM   11  C   UNL     1     -12.288  10.813  71.598  1.00  0.00    -0.292 A  
HETATM   12  C   UNL     1     -13.040  11.937  71.905  1.00  0.00    -0.474 A  
HETATM   13  C   UNL     1     -12.998  13.048  71.062  1.00  0.00    -0.196 A  
HETATM   14  C   UNL     1     -12.214  13.054  69.899  1.00  0.00    -0.202 A  
BRANCH  14  15
HETATM   15  N   UNL     1     -12.343  14.126  68.989  1.00  0.00    -0.537 NA 
HETATM   16  H   UNL     1     -13.209  14.113  68.451  1.00  0.00     0.000 HD 
BRANCH  15  17
HETATM   17  C   UNL     1     -11.484  15.224  68.685  1.00  0.00    -0.337 A  
HETATM   18  C   UNL     1     -11.081  15.380  67.334  1.00  0.00    -0.311 A  
HETATM   19  C   UNL     1     -10.397  16.516  66.886  1.00  0.00    -0.300 A  
HETATM   20 CL   UNL     1     -11.425  14.154  66.154  1.00  0.00    -0.337 Cl 
HETATM   21  C   UNL     1     -10.075  17.527  67.779  1.00  0.00    -0.330 A  
HETATM   22  C   UNL     1     -10.368  17.360  69.128  1.00  0.00    -0.271 A  
HETATM   23  C   UNL     1     -11.045  16.216  69.589  1.00  0.00    -0.344 A  
HETATM   24 CL   UNL     1     -11.351  16.206  71.292  1.00  0.00    -0.405 Cl 
ENDBRANCH  15  17
ENDBRANCH  14  15
ENDBRANCH   8   9
ENDBRANCH   6   8
ENDBRANCH   5   6
ENDBRANCH   4   5
TORSDOF 6
ENDMDL
MODEL      266
REMARK 921   NORMALIZED FREE ENERGY PREDICTED BY IDOCK:   -4.26 KCAL/MOL
REMARK 922        TOTAL FREE ENERGY PREDICTED BY IDOCK:   -6.72 KCAL/MOL
REMARK 923 INTER-LIGAND FREE ENERGY PREDICTED BY IDOCK:   -5.86 KCAL/MOL
REMARK 924 INTRA-LIGAND FREE ENERGY PREDICTED BY IDOCK:   -0.86 KCAL/MOL
REMARK 927      BINDING AFFINITY PREDICTED BY RF-SCORE:    0.00 PKD
ROOT
HETATM    1  O   UNL     1     -10.277  12.645  66.156  1.00  0.00    -0.248 OA 
HETATM    2  C   UNL     1     -10.913  11.548  66.635  1.00  0.00    -0.296 C  
HETATM    3  O   UNL     1     -11.977  11.625  67.229  1.00  0.00    -0.627 OA 
HETATM    4  C   UNL     1     -10.163  10.252  66.350  1.00  0.00    -0.225 C  
ENDROOT
BRANCH   4   5
HETATM    5  O   UNL     1     -10.844   9.135  66.936  1.00  0.00    -0.147 OA 
BRANCH   5   6
HETATM    6  C   UNL     1     -10.194   7.943  66.883  1.00  0.00    -0.310 C  
HETATM    7  O   UNL     1      -9.012   7.797  66.617  1.00  0.00    -0.134 OA 
BRANCH   6   8
HETATM    8  C   UNL     1     -11.155   6.811  67.198  1.00  0.00    -0.404 C  
BRANCH   8   9
HETATM    9  C   UNL     1     -10.479   5.542  67.664  1.00  0.00    -0.256 A  
HETATM   10  C   UNL     1     -10.053   4.635  66.672  1.00  0.00    -0.263 A  
HETATM   11  C   UNL     1      -9.395   3.454  67.008  1.00  0.00    -0.212 A  
HETATM   12  C   UNL     1      -9.113   3.177  68.338  1.00  0.00    -0.211 A  
HETATM   13  C   UNL     1      -9.550   4.051  69.334  1.00  0.00    -0.257 A  
HETATM   14  C   UNL     1     -10.280   5.207  69.022  1.00  0.00    -0.171 A  
BRANCH  14  15
HETATM   15  N   UNL     1     -10.853   5.961  70.071  1.00  0.00    -0.332 NA 
HETATM   16  H   UNL     1     -11.797   6.295  69.876  1.00  0.00     0.000 HD 
BRANCH  15  17
HETATM   17  C   UNL     1     -10.353   6.340  71.353  1.00  0.00    -0.210 A  
HETATM   18  C   UNL     1      -9.839   7.655  71.487  1.00  0.00    -0.166 A  
HETATM   19  C   UNL     1      -9.496   8.198  72.731  1.00  0.00    -0.349 A  
HETATM   20 CL   UNL     1      -9.610   8.669  70.097  1.00  0.00    -0.173 Cl 
HETATM   21  C   UNL     1      -9.637   7.436  73.882  1.00  0.00    -0.303 A  
HETATM   22  C   UNL     1     -10.045   6.111  73.773  1.00  0.00    -0.245 A  
HETATM   23  C   UNL     1     -10.381   5.553  72.525  1.00  0.00    -0.203 A  
HETATM   24 CL   UNL     1     -10.899   3.904  72.597  1.00  0.00    -0.118 Cl 
ENDBRANCH  15  17
ENDBRANCH  14  15
ENDBRANCH   8   9
ENDBRANCH   6   8
ENDBRANCH   5   6
ENDBRANCH   4   5
TORSDOF 6
ENDMDL
MODEL      267
REMARK 921   NORMALIZED FREE ENERGY PREDICTED BY IDOCK:   -4.26 KCAL/MOL
REMARK 922        TOTAL FREE ENERGY PREDICTED BY IDOCK:   -6.71 KCAL/MOL
REMARK 923 INTER-LIGAND FREE ENERGY PREDICTED BY IDOCK:   -5.72 KCAL/MOL
REMARK 924 INTRA-LIGAND FREE ENERGY PREDICTED BY IDOCK:   -0.99 KCAL/MOL
REMARK 927      BINDING AFFINITY PREDICTED BY RF-SCORE:    0.00 PKD
ROOT
HETATM    1  O   UNL     1     -13.042  16.200  72.919  1.00  0.00    -0.459 OA 
HETATM    2  C   UNL     1     -13.279  15.613  71.721  1.00  0.00    -0.465 C  
HETATM    3  O   UNL     1     -14.383  15.194  71.411  1.00  0.00    -0.489 OA 
HETATM    4  C   UNL     1     -12.038  15.542  70.837  1.00  0.00    -0.385 C  
ENDROOT
BRANCH   4   5
HETATM    5  O   UNL     1     -12.328  14.852  69.614  1.00  0.00    -0.280 OA 
BRANCH   5   6
HETATM    6  C   UNL     1     -11.308  14.136  69.073  1.00  0.00    -0.275 C  
HETATM    7  O   UNL     1     -10.869  13.089  69.519  1.00  0.00    -0.004 OA 
BRANCH   6   8
HETATM    8  C   UNL     1     -10.783  14.833  67.831  1.00  0.00    -0.259 C  
BRANCH   8   9
HETATM    9  C   UNL     1      -9.400  15.420  67.992  1.00  0.00    -0.196 A  
HETATM   10  C   UNL     1      -9.304  16.692  68.592  1.00  0.00    -0.247 A  
HETATM   11  C   UNL     1      -8.067  17.297  68.808  1.00  0.00    -0.242 A  
HETATM   12  C   UNL     1      -6.903  16.625  68.466  1.00  0.00    -0.157 A  
HETATM   13  C   UNL     1      -6.981  15.376  67.848  1.00  0.00    -0.161 A  
HETATM   14  C   UNL     1      -8.217  14.783  67.553  1.00  0.00    -0.185 A  
BRANCH  14  15
HETATM   15  N   UNL     1      -8.245  13.609  66.769  1.00  0.00    -0.396 NA 
HETATM   16  H   UNL     1      -7.857  13.725  65.833  1.00  0.00     0.000 HD 
BRANCH  15  17
HETATM   17  C   UNL     1      -8.717  12.291  67.046  1.00  0.00    -0.199 A  
HETATM   18  C   UNL     1      -8.037  11.554  68.048  1.00  0.00    -0.136 A  
HETATM   19  C   UNL     1      -8.520  10.333  68.534  1.00  0.00    -0.121 A  
HETATM   20 CL   UNL     1      -6.553  12.139  68.733  1.00  0.00    -0.077 Cl 
HETATM   21  C   UNL     1      -9.692   9.798  68.018  1.00  0.00    -0.165 A  
HETATM   22  C   UNL     1     -10.329  10.447  66.966  1.00  0.00    -0.295 A  
HETATM   23  C   UNL     1      -9.844  11.670  66.465  1.00  0.00    -0.204 A  
HETATM   24 CL   UNL     1     -10.791  12.340  65.182  1.00  0.00    -0.326 Cl 
ENDBRANCH  15  17
ENDBRANCH  14  15
ENDBRANCH   8   9
ENDBRANCH   6   8
ENDBRANCH   5   6
ENDBRANCH   4   5
TORSDOF 6
ENDMDL
MODEL      268
REMARK 921   NORMALIZED FREE ENERGY PREDICTED BY IDOCK:   -4.26 KCAL/MOL
REMARK 922        TOTAL FREE ENERGY PREDICTED BY IDOCK:   -6.71 KCAL/MOL
REMARK 923 INTER-LIGAND FREE ENERGY PREDICTED BY IDOCK:   -6.34 KCAL/MOL
REMARK 924 INTRA-LIGAND FREE ENERGY PREDICTED BY IDOCK:   -0.37 KCAL/MOL
REMARK 927      BINDING AFFINITY PREDICTED BY RF-SCORE:    0.00 PKD
ROOT
HETATM    1  O   UNL     1      -7.549  15.299  67.056  1.00  0.00    -0.205 OA 
HETATM    2  C   UNL     1      -7.104  14.097  67.496  1.00  0.00    -0.163 C  
HETATM    3  O   UNL     1      -5.933  13.765  67.401  1.00  0.00    -0.348 OA 
HETATM    4  C   UNL     1      -8.209  13.239  68.103  1.00  0.00    -0.160 C  
ENDROOT
BRANCH   4   5
HETATM    5  O   UNL     1      -7.698  11.956  68.489  1.00  0.00    -0.127 OA 
BRANCH   5   6
HETATM    6  C   UNL     1      -7.903  10.941  67.610  1.00  0.00    -0.113 C  
HETATM    7  O   UNL     1      -7.035  10.204  67.171  1.00  0.00    -0.085 OA 
BRANCH   6   8
HETATM    8  C   UNL     1      -9.373  10.857  67.243  1.00  0.00    -0.168 C  
BRANCH   8   9
HETATM    9  C   UNL     1      -9.645  10.958  65.760  1.00  0.00    -0.259 A  
HETATM   10  C   UNL     1      -8.663  10.447  64.887  1.00  0.00    -0.197 A  
HETATM   11  C   UNL     1      -8.842  10.470  63.506  1.00  0.00    -0.208 A  
HETATM   12  C   UNL     1     -10.023  10.966  62.972  1.00  0.00    -0.317 A  
HETATM   13  C   UNL     1     -10.994  11.499  63.820  1.00  0.00    -0.485 A  
HETATM   14  C   UNL     1     -10.802  11.554  65.208  1.00  0.00    -0.259 A  
BRANCH  14  15
HETATM   15  N   UNL     1     -11.730  12.263  66.003  1.00  0.00    -0.489 NA 
HETATM   16  H   UNL     1     -12.701  11.988  65.853  1.00  0.00     0.000 HD 
BRANCH  15  17
HETATM   17  C   UNL     1     -11.558  13.292  66.976  1.00  0.00    -0.359 A  
HETATM   18  C   UNL     1     -11.159  14.570  66.508  1.00  0.00    -0.332 A  
HETATM   19  C   UNL     1     -11.140  15.696  67.339  1.00  0.00    -0.260 A  
HETATM   20 CL   UNL     1     -10.673  14.802  64.858  1.00  0.00    -0.439 Cl 
HETATM   21  C   UNL     1     -11.500  15.578  68.673  1.00  0.00    -0.367 A  
HETATM   22  C   UNL     1     -11.801  14.321  69.187  1.00  0.00    -0.368 A  
HETATM   23  C   UNL     1     -11.812  13.182  68.361  1.00  0.00    -0.351 A  
HETATM   24 CL   UNL     1     -12.244  11.717  69.173  1.00  0.00    -0.282 Cl 
ENDBRANCH  15  17
ENDBRANCH  14  15
ENDBRANCH   8   9
ENDBRANCH   6   8
ENDBRANCH   5   6
ENDBRANCH   4   5
TORSDOF 6
ENDMDL
MODEL      269
REMARK 921   NORMALIZED FREE ENERGY PREDICTED BY IDOCK:   -4.24 KCAL/MOL
REMARK 922        TOTAL FREE ENERGY PREDICTED BY IDOCK:   -6.69 KCAL/MOL
REMARK 923 INTER-LIGAND FREE ENERGY PREDICTED BY IDOCK:   -5.79 KCAL/MOL
REMARK 924 INTRA-LIGAND FREE ENERGY PREDICTED BY IDOCK:   -0.91 KCAL/MOL
REMARK 927      BINDING AFFINITY PREDICTED BY RF-SCORE:    0.00 PKD
ROOT
HETATM    1  O   UNL     1     -11.320  11.460  66.594  1.00  0.00    -0.355 OA 
HETATM    2  C   UNL     1     -11.156  11.100  67.890  1.00  0.00    -0.273 C  
HETATM    3  O   UNL     1     -12.072  11.144  68.697  1.00  0.00    -0.556 OA 
HETATM    4  C   UNL     1      -9.734  10.648  68.207  1.00  0.00    -0.161 C  
ENDROOT
BRANCH   4   5
HETATM    5  O   UNL     1      -9.599  10.345  69.602  1.00  0.00    -0.200 OA 
BRANCH   5   6
HETATM    6  C   UNL     1      -8.421   9.786  69.982  1.00  0.00    -0.206 C  
HETATM    7  O   UNL     1      -7.353   9.941  69.414  1.00  0.00    -0.073 OA 
BRANCH   6   8
HETATM    8  C   UNL     1      -8.625   8.929  71.218  1.00  0.00    -0.259 C  
BRANCH   8   9
HETATM    9  C   UNL     1      -9.947   8.198  71.249  1.00  0.00    -0.225 A  
HETATM   10  C   UNL     1     -10.829   8.501  72.307  1.00  0.00    -0.418 A  
HETATM   11  C   UNL     1     -12.081   7.899  72.399  1.00  0.00    -0.336 A  
HETATM   12  C   UNL     1     -12.493   7.012  71.414  1.00  0.00    -0.426 A  
HETATM   13  C   UNL     1     -11.624   6.681  70.375  1.00  0.00    -0.457 A  
HETATM   14  C   UNL     1     -10.330   7.219  70.304  1.00  0.00    -0.210 A  
BRANCH  14  15
HETATM   15  N   UNL     1      -9.429   6.717  69.339  1.00  0.00    -0.148 NA 
HETATM   16  H   UNL     1      -8.554   7.237  69.277  1.00  0.00     0.000 HD 
BRANCH  15  17
HETATM   17  C   UNL     1      -9.520   5.616  68.435  1.00  0.00    -0.121 A  
HETATM   18  C   UNL     1      -9.717   5.916  67.063  1.00  0.00    -0.141 A  
HETATM   19  C   UNL     1      -9.636   4.936  66.067  1.00  0.00    -0.185 A  
HETATM   20 CL   UNL     1     -10.071   7.535  66.546  1.00  0.00    -0.249 Cl 
HETATM   21  C   UNL     1      -9.374   3.619  66.411  1.00  0.00    -0.194 A  
HETATM   22  C   UNL     1      -9.273   3.275  67.755  1.00  0.00    -0.240 A  
HETATM   23  C   UNL     1      -9.365   4.252  68.764  1.00  0.00    -0.153 A  
HETATM   24 CL   UNL     1      -9.180   3.637  70.371  1.00  0.00    -0.200 Cl 
ENDBRANCH  15  17
ENDBRANCH  14  15
ENDBRANCH   8   9
ENDBRANCH   6   8
ENDBRANCH   5   6
ENDBRANCH   4   5
TORSDOF 6
ENDMDL
MODEL      270
REMARK 921   NORMALIZED FREE ENERGY PREDICTED BY IDOCK:   -4.24 KCAL/MOL
REMARK 922        TOTAL FREE ENERGY PREDICTED BY IDOCK:   -6.69 KCAL/MOL
REMARK 923 INTER-LIGAND FREE ENERGY PREDICTED BY IDOCK:   -5.72 KCAL/MOL
REMARK 924 INTRA-LIGAND FREE ENERGY PREDICTED BY IDOCK:   -0.97 KCAL/MOL
REMARK 927      BINDING AFFINITY PREDICTED BY RF-SCORE:    0.00 PKD
ROOT
HETATM    1  O   UNL     1      -6.964  15.572  68.946  1.00  0.00    -0.117 OA 
HETATM    2  C   UNL     1      -7.607  14.604  68.248  1.00  0.00    -0.118 C  
HETATM    3  O   UNL     1      -7.074  13.539  67.976  1.00  0.00    -0.095 OA 
HETATM    4  C   UNL     1      -9.028  14.995  67.859  1.00  0.00    -0.175 C  
ENDROOT
BRANCH   4   5
HETATM    5  O   UNL     1      -9.636  13.965  67.067  1.00  0.00    -0.237 OA 
BRANCH   5   6
HETATM    6  C   UNL     1     -10.915  14.192  66.670  1.00  0.00    -0.303 C  
HETATM    7  O   UNL     1     -11.337  15.246  66.222  1.00  0.00    -0.280 OA 
BRANCH   6   8
HETATM    8  C   UNL     1     -11.753  12.942  66.870  1.00  0.00    -0.445 C  
BRANCH   8   9
HETATM    9  C   UNL     1     -11.980  12.578  68.319  1.00  0.00    -0.274 A  
HETATM   10  C   UNL     1     -12.266  13.631  69.213  1.00  0.00    -0.283 A  
HETATM   11  C   UNL     1     -12.518  13.385  70.560  1.00  0.00    -0.350 A  
HETATM   12  C   UNL     1     -12.530  12.081  71.033  1.00  0.00    -0.376 A  
HETATM   13  C   UNL     1     -12.224  11.030  70.168  1.00  0.00    -0.424 A  
HETATM   14  C   UNL     1     -11.893  11.261  68.825  1.00  0.00    -0.329 A  
BRANCH  14  15
HETATM   15  N   UNL     1     -11.417  10.188  68.040  1.00  0.00    -0.643 NA 
HETATM   16  H   UNL     1     -11.996   9.978  67.227  1.00  0.00     0.000 HD 
BRANCH  15  17
HETATM   17  C   UNL     1     -10.274   9.343  68.177  1.00  0.00    -0.200 A  
HETATM   18  C   UNL     1      -9.136   9.657  67.392  1.00  0.00    -0.130 A  
HETATM   19  C   UNL     1      -7.904   9.019  67.576  1.00  0.00    -0.100 A  
HETATM   20 CL   UNL     1      -9.216  10.866  66.149  1.00  0.00    -0.196 Cl 
HETATM   21  C   UNL     1      -7.774   8.030  68.540  1.00  0.00    -0.106 A  
HETATM   22  C   UNL     1      -8.896   7.631  69.259  1.00  0.00    -0.136 A  
HETATM   23  C   UNL     1     -10.141   8.259  69.072  1.00  0.00    -0.202 A  
HETATM   24 CL   UNL     1     -11.407   7.648  70.081  1.00  0.00    -0.204 Cl 
ENDBRANCH  15  17
ENDBRANCH  14  15
ENDBRANCH   8   9
ENDBRANCH   6   8
ENDBRANCH   5   6
ENDBRANCH   4   5
TORSDOF 6
ENDMDL
MODEL      271
REMARK 921   NORMALIZED FREE ENERGY PREDICTED BY IDOCK:   -4.24 KCAL/MOL
REMARK 922        TOTAL FREE ENERGY PREDICTED BY IDOCK:   -6.69 KCAL/MOL
REMARK 923 INTER-LIGAND FREE ENERGY PREDICTED BY IDOCK:   -5.91 KCAL/MOL
REMARK 924 INTRA-LIGAND FREE ENERGY PREDICTED BY IDOCK:   -0.77 KCAL/MOL
REMARK 927      BINDING AFFINITY PREDICTED BY RF-SCORE:    0.00 PKD
ROOT
HETATM    1  O   UNL     1      -6.686   5.673  67.760  1.00  0.00    -0.055 OA 
HETATM    2  C   UNL     1      -7.900   6.007  68.262  1.00  0.00    -0.106 C  
HETATM    3  O   UNL     1      -8.936   5.535  67.822  1.00  0.00    -0.110 OA 
HETATM    4  C   UNL     1      -7.814   7.012  69.406  1.00  0.00    -0.113 C  
ENDROOT
BRANCH   4   5
HETATM    5  O   UNL     1      -9.126   7.381  69.852  1.00  0.00    -0.142 OA 
BRANCH   5   6
HETATM    6  C   UNL     1      -9.375   8.714  69.942  1.00  0.00    -0.159 C  
HETATM    7  O   UNL     1      -8.702   9.515  70.570  1.00  0.00    -0.228 OA 
BRANCH   6   8
HETATM    8  C   UNL     1     -10.621   9.067  69.150  1.00  0.00    -0.219 C  
BRANCH   8   9
HETATM    9  C   UNL     1     -11.166  10.446  69.441  1.00  0.00    -0.314 A  
HETATM   10  C   UNL     1     -12.166  10.550  70.430  1.00  0.00    -0.415 A  
HETATM   11  C   UNL     1     -12.704  11.784  70.786  1.00  0.00    -0.256 A  
HETATM   12  C   UNL     1     -12.225  12.942  70.189  1.00  0.00    -0.336 A  
HETATM   13  C   UNL     1     -11.255  12.855  69.191  1.00  0.00    -0.293 A  
HETATM   14  C   UNL     1     -10.753  11.616  68.765  1.00  0.00    -0.219 A  
BRANCH  14  15
HETATM   15  N   UNL     1      -9.910  11.569  67.633  1.00  0.00    -0.179 NA 
HETATM   16  H   UNL     1      -8.985  11.183  67.819  1.00  0.00     0.000 HD 
BRANCH  15  17
HETATM   17  C   UNL     1     -10.117  11.963  66.276  1.00  0.00    -0.220 A  
HETATM   18  C   UNL     1     -10.220  10.932  65.308  1.00  0.00    -0.288 A  
HETATM   19  C   UNL     1     -10.606  11.186  63.987  1.00  0.00    -0.436 A  
HETATM   20 CL   UNL     1      -9.872   9.283  65.722  1.00  0.00    -0.358 Cl 
HETATM   21  C   UNL     1     -10.882  12.484  63.583  1.00  0.00    -0.486 A  
HETATM   22  C   UNL     1     -10.694  13.529  64.482  1.00  0.00    -0.431 A  
HETATM   23  C   UNL     1     -10.296  13.283  65.810  1.00  0.00    -0.288 A  
HETATM   24 CL   UNL     1     -10.151  14.705  66.785  1.00  0.00    -0.260 Cl 
ENDBRANCH  15  17
ENDBRANCH  14  15
ENDBRANCH   8   9
ENDBRANCH   6   8
ENDBRANCH   5   6
ENDBRANCH   4   5
TORSDOF 6
ENDMDL
MODEL      272
REMARK 921   NORMALIZED FREE ENERGY PREDICTED BY IDOCK:   -4.23 KCAL/MOL
REMARK 922        TOTAL FREE ENERGY PREDICTED BY IDOCK:   -6.68 KCAL/MOL
REMARK 923 INTER-LIGAND FREE ENERGY PREDICTED BY IDOCK:   -5.77 KCAL/MOL
REMARK 924 INTRA-LIGAND FREE ENERGY PREDICTED BY IDOCK:   -0.91 KCAL/MOL
REMARK 927      BINDING AFFINITY PREDICTED BY RF-SCORE:    0.00 PKD
ROOT
HETATM    1  O   UNL     1     -11.044  16.229  69.809  1.00  0.00    -0.326 OA 
HETATM    2  C   UNL     1     -11.463  15.380  68.839  1.00  0.00    -0.342 C  
HETATM    3  O   UNL     1     -12.099  14.370  69.093  1.00  0.00    -0.318 OA 
HETATM    4  C   UNL     1     -11.055  15.827  67.440  1.00  0.00    -0.235 C  
ENDROOT
BRANCH   4   5
HETATM    5  O   UNL     1     -11.463  14.860  66.462  1.00  0.00    -0.345 OA 
BRANCH   5   6
HETATM    6  C   UNL     1     -10.570  13.874  66.186  1.00  0.00    -0.291 C  
HETATM    7  O   UNL     1      -9.357  13.986  66.248  1.00  0.00    -0.256 OA 
BRANCH   6   8
HETATM    8  C   UNL     1     -11.301  12.607  65.780  1.00  0.00    -0.370 C  
BRANCH   8   9
HETATM    9  C   UNL     1     -10.460  11.642  64.976  1.00  0.00    -0.336 A  
HETATM   10  C   UNL     1      -9.944  12.103  63.748  1.00  0.00    -0.343 A  
HETATM   11  C   UNL     1      -9.134  11.293  62.956  1.00  0.00    -0.257 A  
HETATM   12  C   UNL     1      -8.791  10.022  63.394  1.00  0.00    -0.249 A  
HETATM   13  C   UNL     1      -9.314   9.541  64.595  1.00  0.00    -0.201 A  
HETATM   14  C   UNL     1     -10.192  10.312  65.371  1.00  0.00    -0.242 A  
BRANCH  14  15
HETATM   15  N   UNL     1     -10.833   9.715  66.479  1.00  0.00     0.040 NA 
HETATM   16  H   UNL     1     -11.841   9.605  66.367  1.00  0.00     0.000 HD 
BRANCH  15  17
HETATM   17  C   UNL     1     -10.329   9.239  67.727  1.00  0.00    -0.237 A  
HETATM   18  C   UNL     1     -10.336   7.837  67.939  1.00  0.00    -0.217 A  
HETATM   19  C   UNL     1      -9.701   7.246  69.037  1.00  0.00    -0.152 A  
HETATM   20 CL   UNL     1     -11.142   6.773  66.830  1.00  0.00    -0.418 Cl 
HETATM   21  C   UNL     1      -9.053   8.039  69.972  1.00  0.00    -0.152 A  
HETATM   22  C   UNL     1      -9.111   9.423  69.845  1.00  0.00    -0.221 A  
HETATM   23  C   UNL     1      -9.758  10.027  68.750  1.00  0.00    -0.171 A  
HETATM   24 CL   UNL     1      -9.694  11.756  68.750  1.00  0.00    -0.135 Cl 
ENDBRANCH  15  17
ENDBRANCH  14  15
ENDBRANCH   8   9
ENDBRANCH   6   8
ENDBRANCH   5   6
ENDBRANCH   4   5
TORSDOF 6
ENDMDL
MODEL      273
REMARK 921   NORMALIZED FREE ENERGY PREDICTED BY IDOCK:   -4.23 KCAL/MOL
REMARK 922        TOTAL FREE ENERGY PREDICTED BY IDOCK:   -6.68 KCAL/MOL
REMARK 923 INTER-LIGAND FREE ENERGY PREDICTED BY IDOCK:   -5.77 KCAL/MOL
REMARK 924 INTRA-LIGAND FREE ENERGY PREDICTED BY IDOCK:   -0.90 KCAL/MOL
REMARK 927      BINDING AFFINITY PREDICTED BY RF-SCORE:    0.00 PKD
ROOT
HETATM    1  O   UNL     1     -12.583  16.208  72.932  1.00  0.00    -0.447 OA 
HETATM    2  C   UNL     1     -13.040  15.688  71.767  1.00  0.00    -0.466 C  
HETATM    3  O   UNL     1     -14.226  15.698  71.474  1.00  0.00    -0.508 OA 
HETATM    4  C   UNL     1     -11.930  15.108  70.897  1.00  0.00    -0.328 C  
ENDROOT
BRANCH   4   5
HETATM    5  O   UNL     1     -12.476  14.513  69.713  1.00  0.00    -0.303 OA 
BRANCH   5   6
HETATM    6  C   UNL     1     -11.980  13.294  69.372  1.00  0.00    -0.301 C  
HETATM    7  O   UNL     1     -11.936  12.322  70.108  1.00  0.00    -0.334 OA 
BRANCH   6   8
HETATM    8  C   UNL     1     -11.480  13.317  67.939  1.00  0.00    -0.341 C  
BRANCH   8   9
HETATM    9  C   UNL     1      -9.975  13.382  67.813  1.00  0.00    -0.233 A  
HETATM   10  C   UNL     1      -9.319  14.454  68.453  1.00  0.00    -0.206 A  
HETATM   11  C   UNL     1      -7.932  14.577  68.415  1.00  0.00    -0.141 A  
HETATM   12  C   UNL     1      -7.172  13.611  67.773  1.00  0.00    -0.169 A  
HETATM   13  C   UNL     1      -7.806  12.558  67.113  1.00  0.00    -0.123 A  
HETATM   14  C   UNL     1      -9.204  12.456  67.075  1.00  0.00    -0.208 A  
BRANCH  14  15
HETATM   15  N   UNL     1      -9.799  11.478  66.246  1.00  0.00    -0.210 NA 
HETATM   16  H   UNL     1     -10.372  11.863  65.494  1.00  0.00     0.000 HD 
BRANCH  15  17
HETATM   17  C   UNL     1      -9.746  10.052  66.268  1.00  0.00    -0.214 A  
HETATM   18  C   UNL     1      -8.914   9.417  65.312  1.00  0.00    -0.204 A  
HETATM   19  C   UNL     1      -8.638   8.046  65.357  1.00  0.00    -0.138 A  
HETATM   20 CL   UNL     1      -8.184  10.324  64.024  1.00  0.00    -0.161 Cl 
HETATM   21  C   UNL     1      -9.202   7.258  66.349  1.00  0.00    -0.201 A  
HETATM   22  C   UNL     1     -10.101   7.832  67.243  1.00  0.00    -0.307 A  
HETATM   23  C   UNL     1     -10.392   9.208  67.198  1.00  0.00    -0.267 A  
HETATM   24 CL   UNL     1     -11.504   9.741  68.412  1.00  0.00     0.036 Cl 
ENDBRANCH  15  17
ENDBRANCH  14  15
ENDBRANCH   8   9
ENDBRANCH   6   8
ENDBRANCH   5   6
ENDBRANCH   4   5
TORSDOF 6
ENDMDL
MODEL      274
REMARK 921   NORMALIZED FREE ENERGY PREDICTED BY IDOCK:   -4.23 KCAL/MOL
REMARK 922        TOTAL FREE ENERGY PREDICTED BY IDOCK:   -6.68 KCAL/MOL
REMARK 923 INTER-LIGAND FREE ENERGY PREDICTED BY IDOCK:   -5.74 KCAL/MOL
REMARK 924 INTRA-LIGAND FREE ENERGY PREDICTED BY IDOCK:   -0.94 KCAL/MOL
REMARK 927      BINDING AFFINITY PREDICTED BY RF-SCORE:    0.00 PKD
ROOT
HETATM    1  O   UNL     1     -11.402   7.857  73.009  1.00  0.00    -0.408 OA 
HETATM    2  C   UNL     1     -11.549   7.843  71.661  1.00  0.00    -0.272 C  
HETATM    3  O   UNL     1     -11.868   6.832  71.055  1.00  0.00    -0.339 OA 
HETATM    4  C   UNL     1     -11.277   9.198  71.018  1.00  0.00    -0.312 C  
ENDROOT
BRANCH   4   5
HETATM    5  O   UNL     1     -11.381   9.110  69.591  1.00  0.00    -0.085 OA 
BRANCH   5   6
HETATM    6  C   UNL     1     -11.297  10.282  68.910  1.00  0.00    -0.173 C  
HETATM    7  O   UNL     1     -11.531  11.385  69.377  1.00  0.00    -0.257 OA 
BRANCH   6   8
HETATM    8  C   UNL     1     -10.874  10.024  67.475  1.00  0.00    -0.326 C  
BRANCH   8   9
HETATM    9  C   UNL     1      -9.377   9.982  67.272  1.00  0.00    -0.170 A  
HETATM   10  C   UNL     1      -8.662   8.970  67.946  1.00  0.00    -0.129 A  
HETATM   11  C   UNL     1      -7.284   8.837  67.794  1.00  0.00    -0.084 A  
HETATM   12  C   UNL     1      -6.600   9.685  66.935  1.00  0.00    -0.067 A  
HETATM   13  C   UNL     1      -7.288  10.708  66.281  1.00  0.00    -0.137 A  
HETATM   14  C   UNL     1      -8.662  10.907  66.478  1.00  0.00    -0.163 A  
BRANCH  14  15
HETATM   15  N   UNL     1      -9.274  12.060  65.937  1.00  0.00    -0.392 NA 
HETATM   16  H   UNL     1      -9.379  12.038  64.923  1.00  0.00     0.000 HD 
BRANCH  15  17
HETATM   17  C   UNL     1      -9.770  13.249  66.551  1.00  0.00    -0.273 A  
HETATM   18  C   UNL     1     -11.164  13.494  66.461  1.00  0.00    -0.306 A  
HETATM   19  C   UNL     1     -11.789  14.522  67.177  1.00  0.00    -0.412 A  
HETATM   20 CL   UNL     1     -12.177  12.515  65.447  1.00  0.00    -0.511 Cl 
HETATM   21  C   UNL     1     -11.036  15.353  67.993  1.00  0.00    -0.307 A  
HETATM   22  C   UNL     1      -9.654  15.202  68.026  1.00  0.00    -0.204 A  
HETATM   23  C   UNL     1      -9.016  14.178  67.301  1.00  0.00    -0.214 A  
HETATM   24 CL   UNL     1      -7.298  14.128  67.497  1.00  0.00    -0.195 Cl 
ENDBRANCH  15  17
ENDBRANCH  14  15
ENDBRANCH   8   9
ENDBRANCH   6   8
ENDBRANCH   5   6
ENDBRANCH   4   5
TORSDOF 6
ENDMDL
MODEL      275
REMARK 921   NORMALIZED FREE ENERGY PREDICTED BY IDOCK:   -4.22 KCAL/MOL
REMARK 922        TOTAL FREE ENERGY PREDICTED BY IDOCK:   -6.66 KCAL/MOL
REMARK 923 INTER-LIGAND FREE ENERGY PREDICTED BY IDOCK:   -5.66 KCAL/MOL
REMARK 924 INTRA-LIGAND FREE ENERGY PREDICTED BY IDOCK:   -1.00 KCAL/MOL
REMARK 927      BINDING AFFINITY PREDICTED BY RF-SCORE:    0.00 PKD
ROOT
HETATM    1  O   UNL     1      -6.347  15.854  69.572  1.00  0.00    -0.153 OA 
HETATM    2  C   UNL     1      -6.286  14.853  68.661  1.00  0.00    -0.086 C  
HETATM    3  O   UNL     1      -6.112  15.068  67.472  1.00  0.00    -0.295 OA 
HETATM    4  C   UNL     1      -6.456  13.471  69.283  1.00  0.00    -0.111 C  
ENDROOT
BRANCH   4   5
HETATM    5  O   UNL     1      -6.452  12.457  68.269  1.00  0.00    -0.054 OA 
BRANCH   5   6
HETATM    6  C   UNL     1      -7.569  11.688  68.187  1.00  0.00    -0.115 C  
HETATM    7  O   UNL     1      -8.010  10.990  69.086  1.00  0.00    -0.138 OA 
BRANCH   6   8
HETATM    8  C   UNL     1      -8.191  11.815  66.808  1.00  0.00    -0.147 C  
BRANCH   8   9
HETATM    9  C   UNL     1      -9.491  12.585  66.788  1.00  0.00    -0.231 A  
HETATM   10  C   UNL     1      -9.411  13.987  66.656  1.00  0.00    -0.292 A  
HETATM   11  C   UNL     1     -10.559  14.773  66.598  1.00  0.00    -0.299 A  
HETATM   12  C   UNL     1     -11.809  14.172  66.630  1.00  0.00    -0.447 A  
HETATM   13  C   UNL     1     -11.906  12.788  66.786  1.00  0.00    -0.452 A  
HETATM   14  C   UNL     1     -10.764  11.986  66.922  1.00  0.00    -0.244 A  
BRANCH  14  15
HETATM   15  N   UNL     1     -10.919  10.623  67.257  1.00  0.00    -0.300 NA 
HETATM   16  H   UNL     1     -11.065  10.011  66.455  1.00  0.00     0.000 HD 
BRANCH  15  17
HETATM   17  C   UNL     1     -10.909   9.945  68.514  1.00  0.00    -0.217 A  
HETATM   18  C   UNL     1     -10.467   8.598  68.523  1.00  0.00    -0.172 A  
HETATM   19  C   UNL     1     -10.238   7.896  69.712  1.00  0.00    -0.212 A  
HETATM   20 CL   UNL     1     -10.181   7.744  67.039  1.00  0.00    -0.347 Cl 
HETATM   21  C   UNL     1     -10.463   8.512  70.934  1.00  0.00    -0.248 A  
HETATM   22  C   UNL     1     -10.990   9.799  70.958  1.00  0.00    -0.402 A  
HETATM   23  C   UNL     1     -11.234  10.508  69.767  1.00  0.00    -0.298 A  
HETATM   24 CL   UNL     1     -11.856  12.105  70.003  1.00  0.00    -0.403 Cl 
ENDBRANCH  15  17
ENDBRANCH  14  15
ENDBRANCH   8   9
ENDBRANCH   6   8
ENDBRANCH   5   6
ENDBRANCH   4   5
TORSDOF 6
ENDMDL
MODEL      276
REMARK 921   NORMALIZED FREE ENERGY PREDICTED BY IDOCK:   -4.21 KCAL/MOL
REMARK 922        TOTAL FREE ENERGY PREDICTED BY IDOCK:   -6.65 KCAL/MOL
REMARK 923 INTER-LIGAND FREE ENERGY PREDICTED BY IDOCK:   -5.46 KCAL/MOL
REMARK 924 INTRA-LIGAND FREE ENERGY PREDICTED BY IDOCK:   -1.19 KCAL/MOL
REMARK 927      BINDING AFFINITY PREDICTED BY RF-SCORE:    0.00 PKD
ROOT
HETATM    1  O   UNL     1     -13.240  11.145  72.093  1.00  0.00    -0.481 OA 
HETATM    2  C   UNL     1     -13.250   9.792  72.009  1.00  0.00    -0.460 C  
HETATM    3  O   UNL     1     -14.081   9.113  72.592  1.00  0.00    -0.512 OA 
HETATM    4  C   UNL     1     -12.134   9.241  71.128  1.00  0.00    -0.316 C  
ENDROOT
BRANCH   4   5
HETATM    5  O   UNL     1     -12.150   7.808  71.130  1.00  0.00    -0.306 OA 
BRANCH   5   6
HETATM    6  C   UNL     1     -11.330   7.198  70.235  1.00  0.00    -0.269 C  
HETATM    7  O   UNL     1     -11.535   6.113  69.718  1.00  0.00    -0.433 OA 
BRANCH   6   8
HETATM    8  C   UNL     1     -10.109   8.063  69.973  1.00  0.00    -0.196 C  
BRANCH   8   9
HETATM    9  C   UNL     1      -8.985   7.342  69.265  1.00  0.00    -0.135 A  
HETATM   10  C   UNL     1      -8.965   7.402  67.857  1.00  0.00    -0.131 A  
HETATM   11  C   UNL     1      -7.949   6.793  67.123  1.00  0.00    -0.116 A  
HETATM   12  C   UNL     1      -6.914   6.147  67.783  1.00  0.00    -0.072 A  
HETATM   13  C   UNL     1      -6.932   6.057  69.176  1.00  0.00    -0.064 A  
HETATM   14  C   UNL     1      -7.984   6.598  69.929  1.00  0.00    -0.117 A  
BRANCH  14  15
HETATM   15  N   UNL     1      -8.048   6.324  71.314  1.00  0.00    -0.116 NA 
HETATM   16  H   UNL     1      -7.341   6.808  71.867  1.00  0.00     0.000 HD 
BRANCH  15  17
HETATM   17  C   UNL     1      -8.921   5.493  72.079  1.00  0.00    -0.134 A  
HETATM   18  C   UNL     1      -9.676   6.115  73.106  1.00  0.00    -0.158 A  
HETATM   19  C   UNL     1     -10.695   5.445  73.793  1.00  0.00    -0.324 A  
HETATM   20 CL   UNL     1      -9.372   7.762  73.563  1.00  0.00    -0.339 Cl 
HETATM   21  C   UNL     1     -10.980   4.121  73.489  1.00  0.00    -0.360 A  
HETATM   22  C   UNL     1     -10.192   3.454  72.558  1.00  0.00    -0.217 A  
HETATM   23  C   UNL     1      -9.158   4.117  71.870  1.00  0.00    -0.122 A  
HETATM   24 CL   UNL     1      -8.315   3.130  70.726  1.00  0.00    -0.080 Cl 
ENDBRANCH  15  17
ENDBRANCH  14  15
ENDBRANCH   8   9
ENDBRANCH   6   8
ENDBRANCH   5   6
ENDBRANCH   4   5
TORSDOF 6
ENDMDL
MODEL      277
REMARK 921   NORMALIZED FREE ENERGY PREDICTED BY IDOCK:   -4.21 KCAL/MOL
REMARK 922        TOTAL FREE ENERGY PREDICTED BY IDOCK:   -6.64 KCAL/MOL
REMARK 923 INTER-LIGAND FREE ENERGY PREDICTED BY IDOCK:   -5.77 KCAL/MOL
REMARK 924 INTRA-LIGAND FREE ENERGY PREDICTED BY IDOCK:   -0.87 KCAL/MOL
REMARK 927      BINDING AFFINITY PREDICTED BY RF-SCORE:    0.00 PKD
ROOT
HETATM    1  O   UNL     1     -13.311  12.938  72.432  1.00  0.00    -0.528 OA 
HETATM    2  C   UNL     1     -12.846  12.815  71.164  1.00  0.00    -0.226 C  
HETATM    3  O   UNL     1     -12.700  13.781  70.432  1.00  0.00    -0.276 OA 
HETATM    4  C   UNL     1     -12.539  11.372  70.779  1.00  0.00    -0.316 C  
ENDROOT
BRANCH   4   5
HETATM    5  O   UNL     1     -12.117  11.294  69.411  1.00  0.00    -0.329 OA 
BRANCH   5   6
HETATM    6  C   UNL     1     -10.776  11.303  69.197  1.00  0.00    -0.207 C  
HETATM    7  O   UNL     1     -10.174  12.139  68.543  1.00  0.00    -0.216 OA 
BRANCH   6   8
HETATM    8  C   UNL     1     -10.129  10.114  69.884  1.00  0.00    -0.268 C  
BRANCH   8   9
HETATM    9  C   UNL     1     -10.115   8.854  69.051  1.00  0.00    -0.205 A  
HETATM   10  C   UNL     1     -10.473   8.973  67.693  1.00  0.00    -0.324 A  
HETATM   11  C   UNL     1     -10.459   7.869  66.843  1.00  0.00    -0.388 A  
HETATM   12  C   UNL     1     -10.049   6.634  67.324  1.00  0.00    -0.222 A  
HETATM   13  C   UNL     1      -9.717   6.493  68.672  1.00  0.00    -0.128 A  
HETATM   14  C   UNL     1      -9.796   7.575  69.561  1.00  0.00    -0.169 A  
BRANCH  14  15
HETATM   15  N   UNL     1      -9.624   7.341  70.943  1.00  0.00    -0.170 NA 
HETATM   16  H   UNL     1      -9.062   8.047  71.418  1.00  0.00     0.000 HD 
BRANCH  15  17
HETATM   17  C   UNL     1     -10.093   6.297  71.797  1.00  0.00    -0.186 A  
HETATM   18  C   UNL     1      -9.118   5.467  72.406  1.00  0.00    -0.141 A  
HETATM   19  C   UNL     1      -9.445   4.538  73.400  1.00  0.00    -0.131 A  
HETATM   20 CL   UNL     1      -7.448   5.568  71.943  1.00  0.00    -0.092 Cl 
HETATM   21  C   UNL     1     -10.764   4.393  73.805  1.00  0.00    -0.344 A  
HETATM   22  C   UNL     1     -11.757   5.121  73.158  1.00  0.00    -0.189 A  
HETATM   23  C   UNL     1     -11.438   6.050  72.150  1.00  0.00    -0.302 A  
HETATM   24 CL   UNL     1     -12.803   6.883  71.491  1.00  0.00    -0.409 Cl 
ENDBRANCH  15  17
ENDBRANCH  14  15
ENDBRANCH   8   9
ENDBRANCH   6   8
ENDBRANCH   5   6
ENDBRANCH   4   5
TORSDOF 6
ENDMDL
MODEL      278
REMARK 921   NORMALIZED FREE ENERGY PREDICTED BY IDOCK:   -4.21 KCAL/MOL
REMARK 922        TOTAL FREE ENERGY PREDICTED BY IDOCK:   -6.64 KCAL/MOL
REMARK 923 INTER-LIGAND FREE ENERGY PREDICTED BY IDOCK:   -5.62 KCAL/MOL
REMARK 924 INTRA-LIGAND FREE ENERGY PREDICTED BY IDOCK:   -1.02 KCAL/MOL
REMARK 927      BINDING AFFINITY PREDICTED BY RF-SCORE:    0.00 PKD
ROOT
HETATM    1  O   UNL     1     -11.335   7.853  72.691  1.00  0.00    -0.361 OA 
HETATM    2  C   UNL     1     -10.937   6.973  71.740  1.00  0.00    -0.234 C  
HETATM    3  O   UNL     1     -10.329   5.951  72.017  1.00  0.00    -0.197 OA 
HETATM    4  C   UNL     1     -11.326   7.403  70.330  1.00  0.00    -0.249 C  
ENDROOT
BRANCH   4   5
HETATM    5  O   UNL     1     -10.822   6.473  69.362  1.00  0.00    -0.248 OA 
BRANCH   5   6
HETATM    6  C   UNL     1     -10.492   6.991  68.150  1.00  0.00    -0.201 C  
HETATM    7  O   UNL     1     -11.283   7.255  67.259  1.00  0.00    -0.190 OA 
BRANCH   6   8
HETATM    8  C   UNL     1      -8.990   7.191  68.058  1.00  0.00    -0.127 C  
BRANCH   8   9
HETATM    9  C   UNL     1      -8.529   8.579  68.437  1.00  0.00    -0.138 A  
HETATM   10  C   UNL     1      -7.826   8.717  69.652  1.00  0.00    -0.090 A  
HETATM   11  C   UNL     1      -7.337   9.954  70.066  1.00  0.00    -0.159 A  
HETATM   12  C   UNL     1      -7.506  11.068  69.257  1.00  0.00    -0.100 A  
HETATM   13  C   UNL     1      -8.222  10.954  68.064  1.00  0.00    -0.121 A  
HETATM   14  C   UNL     1      -8.787   9.735  67.665  1.00  0.00    -0.125 A  
BRANCH  14  15
HETATM   15  N   UNL     1      -9.651   9.711  66.548  1.00  0.00    -0.182 NA 
HETATM   16  H   UNL     1      -9.839   8.776  66.187  1.00  0.00     0.000 HD 
BRANCH  15  17
HETATM   17  C   UNL     1     -10.308  10.757  65.832  1.00  0.00    -0.238 A  
HETATM   18  C   UNL     1     -10.013  10.884  64.450  1.00  0.00    -0.322 A  
HETATM   19  C   UNL     1     -10.730  11.745  63.611  1.00  0.00    -0.503 A  
HETATM   20 CL   UNL     1      -8.733   9.964  63.724  1.00  0.00    -0.200 Cl 
HETATM   21  C   UNL     1     -11.755  12.523  64.130  1.00  0.00    -0.471 A  
HETATM   22  C   UNL     1     -12.003  12.494  65.498  1.00  0.00    -0.500 A  
HETATM   23  C   UNL     1     -11.280  11.640  66.351  1.00  0.00    -0.287 A  
HETATM   24 CL   UNL     1     -11.756  11.720  68.012  1.00  0.00    -0.381 Cl 
ENDBRANCH  15  17
ENDBRANCH  14  15
ENDBRANCH   8   9
ENDBRANCH   6   8
ENDBRANCH   5   6
ENDBRANCH   4   5
TORSDOF 6
ENDMDL
MODEL      279
REMARK 921   NORMALIZED FREE ENERGY PREDICTED BY IDOCK:   -4.20 KCAL/MOL
REMARK 922        TOTAL FREE ENERGY PREDICTED BY IDOCK:   -6.64 KCAL/MOL
REMARK 923 INTER-LIGAND FREE ENERGY PREDICTED BY IDOCK:   -5.47 KCAL/MOL
REMARK 924 INTRA-LIGAND FREE ENERGY PREDICTED BY IDOCK:   -1.17 KCAL/MOL
REMARK 927      BINDING AFFINITY PREDICTED BY RF-SCORE:    0.00 PKD
ROOT
HETATM    1  O   UNL     1      -5.414  12.413  69.225  1.00  0.00    -0.067 OA 
HETATM    2  C   UNL     1      -6.593  11.751  69.324  1.00  0.00    -0.112 C  
HETATM    3  O   UNL     1      -6.755  10.831  70.110  1.00  0.00    -0.156 OA 
HETATM    4  C   UNL     1      -7.654  12.279  68.364  1.00  0.00    -0.128 C  
ENDROOT
BRANCH   4   5
HETATM    5  O   UNL     1      -8.854  11.501  68.462  1.00  0.00    -0.158 OA 
BRANCH   5   6
HETATM    6  C   UNL     1     -10.018  12.200  68.514  1.00  0.00    -0.175 C  
HETATM    7  O   UNL     1     -10.107  13.411  68.635  1.00  0.00    -0.225 OA 
BRANCH   6   8
HETATM    8  C   UNL     1     -11.201  11.254  68.407  1.00  0.00    -0.324 C  
BRANCH   8   9
HETATM    9  C   UNL     1     -11.630  10.653  69.726  1.00  0.00    -0.385 A  
HETATM   10  C   UNL     1     -12.622  11.338  70.456  1.00  0.00    -0.331 A  
HETATM   11  C   UNL     1     -13.100  10.842  71.667  1.00  0.00    -0.551 A  
HETATM   12  C   UNL     1     -12.625   9.631  72.150  1.00  0.00    -0.388 A  
HETATM   13  C   UNL     1     -11.625   8.953  71.453  1.00  0.00    -0.382 A  
HETATM   14  C   UNL     1     -11.077   9.472  70.272  1.00  0.00    -0.271 A  
BRANCH  14  15
HETATM   15  N   UNL     1      -9.947   8.843  69.704  1.00  0.00    -0.186 NA 
HETATM   16  H   UNL     1      -9.070   9.338  69.863  1.00  0.00     0.000 HD 
BRANCH  15  17
HETATM   17  C   UNL     1      -9.809   7.640  68.947  1.00  0.00    -0.164 A  
HETATM   18  C   UNL     1      -9.624   6.434  69.671  1.00  0.00    -0.146 A  
HETATM   19  C   UNL     1      -9.663   5.179  69.052  1.00  0.00    -0.227 A  
HETATM   20 CL   UNL     1      -9.340   6.457  71.383  1.00  0.00    -0.154 Cl 
HETATM   21  C   UNL     1      -9.868   5.089  67.683  1.00  0.00    -0.202 A  
HETATM   22  C   UNL     1      -9.954   6.256  66.931  1.00  0.00    -0.215 A  
HETATM   23  C   UNL     1      -9.905   7.522  67.544  1.00  0.00    -0.162 A  
HETATM   24 CL   UNL     1     -10.064   8.851  66.448  1.00  0.00    -0.361 Cl 
ENDBRANCH  15  17
ENDBRANCH  14  15
ENDBRANCH   8   9
ENDBRANCH   6   8
ENDBRANCH   5   6
ENDBRANCH   4   5
TORSDOF 6
ENDMDL
MODEL      280
REMARK 921   NORMALIZED FREE ENERGY PREDICTED BY IDOCK:   -4.18 KCAL/MOL
REMARK 922        TOTAL FREE ENERGY PREDICTED BY IDOCK:   -6.61 KCAL/MOL
REMARK 923 INTER-LIGAND FREE ENERGY PREDICTED BY IDOCK:   -5.59 KCAL/MOL
REMARK 924 INTRA-LIGAND FREE ENERGY PREDICTED BY IDOCK:   -1.03 KCAL/MOL
REMARK 927      BINDING AFFINITY PREDICTED BY RF-SCORE:    0.00 PKD
ROOT
HETATM    1  O   UNL     1      -6.837  10.309  63.328  1.00  0.00    -0.137 OA 
HETATM    2  C   UNL     1      -8.024   9.764  63.688  1.00  0.00    -0.144 C  
HETATM    3  O   UNL     1      -8.592   8.932  62.998  1.00  0.00    -0.197 OA 
HETATM    4  C   UNL     1      -8.546  10.299  65.017  1.00  0.00    -0.180 C  
ENDROOT
BRANCH   4   5
HETATM    5  O   UNL     1      -9.833   9.742  65.316  1.00  0.00    -0.313 OA 
BRANCH   5   6
HETATM    6  C   UNL     1      -9.945   9.097  66.506  1.00  0.00    -0.288 C  
HETATM    7  O   UNL     1     -10.481   8.014  66.672  1.00  0.00    -0.303 OA 
BRANCH   6   8
HETATM    8  C   UNL     1      -9.309   9.924  67.609  1.00  0.00    -0.156 C  
BRANCH   8   9
HETATM    9  C   UNL     1     -10.304  10.625  68.505  1.00  0.00    -0.202 A  
HETATM   10  C   UNL     1     -10.647  11.952  68.174  1.00  0.00    -0.233 A  
HETATM   11  C   UNL     1     -11.579  12.665  68.925  1.00  0.00    -0.363 A  
HETATM   12  C   UNL     1     -12.215  12.053  69.995  1.00  0.00    -0.280 A  
HETATM   13  C   UNL     1     -11.869  10.749  70.352  1.00  0.00    -0.450 A  
HETATM   14  C   UNL     1     -10.880  10.040  69.655  1.00  0.00    -0.260 A  
BRANCH  14  15
HETATM   15  N   UNL     1     -10.439   8.797  70.164  1.00  0.00    -0.207 NA 
HETATM   16  H   UNL     1     -10.599   8.010  69.535  1.00  0.00     0.000 HD 
BRANCH  15  17
HETATM   17  C   UNL     1      -9.811   8.443  71.395  1.00  0.00    -0.197 A  
HETATM   18  C   UNL     1     -10.643   7.938  72.428  1.00  0.00    -0.298 A  
HETATM   19  C   UNL     1     -10.121   7.387  73.603  1.00  0.00    -0.376 A  
HETATM   20 CL   UNL     1     -12.372   7.979  72.279  1.00  0.00    -0.347 Cl 
HETATM   21  C   UNL     1      -8.748   7.339  73.795  1.00  0.00    -0.216 A  
HETATM   22  C   UNL     1      -7.909   7.914  72.847  1.00  0.00    -0.169 A  
HETATM   23  C   UNL     1      -8.426   8.481  71.667  1.00  0.00    -0.178 A  
HETATM   24 CL   UNL     1      -7.225   9.113  70.594  1.00  0.00    -0.092 Cl 
ENDBRANCH  15  17
ENDBRANCH  14  15
ENDBRANCH   8   9
ENDBRANCH   6   8
ENDBRANCH   5   6
ENDBRANCH   4   5
TORSDOF 6
ENDMDL
MODEL      281
REMARK 921   NORMALIZED FREE ENERGY PREDICTED BY IDOCK:   -4.17 KCAL/MOL
REMARK 922        TOTAL FREE ENERGY PREDICTED BY IDOCK:   -6.60 KCAL/MOL
REMARK 923 INTER-LIGAND FREE ENERGY PREDICTED BY IDOCK:   -5.48 KCAL/MOL
REMARK 924 INTRA-LIGAND FREE ENERGY PREDICTED BY IDOCK:   -1.12 KCAL/MOL
REMARK 927      BINDING AFFINITY PREDICTED BY RF-SCORE:    0.00 PKD
ROOT
HETATM    1  O   UNL     1      -6.817  10.046  63.376  1.00  0.00    -0.126 OA 
HETATM    2  C   UNL     1      -7.965   9.449  63.782  1.00  0.00    -0.142 C  
HETATM    3  O   UNL     1      -8.272   8.324  63.420  1.00  0.00    -0.155 OA 
HETATM    4  C   UNL     1      -8.795  10.326  64.713  1.00  0.00    -0.196 C  
ENDROOT
BRANCH   4   5
HETATM    5  O   UNL     1     -10.025   9.674  65.056  1.00  0.00    -0.224 OA 
BRANCH   5   6
HETATM    6  C   UNL     1     -10.133   9.234  66.336  1.00  0.00    -0.267 C  
HETATM    7  O   UNL     1     -10.449   8.102  66.667  1.00  0.00    -0.303 OA 
BRANCH   6   8
HETATM    8  C   UNL     1      -9.810  10.358  67.304  1.00  0.00    -0.214 C  
BRANCH   8   9
HETATM    9  C   UNL     1      -9.167   9.896  68.591  1.00  0.00    -0.139 A  
HETATM   10  C   UNL     1      -7.759   9.822  68.620  1.00  0.00    -0.080 A  
HETATM   11  C   UNL     1      -7.080   9.436  69.773  1.00  0.00    -0.068 A  
HETATM   12  C   UNL     1      -7.791   9.156  70.931  1.00  0.00    -0.163 A  
HETATM   13  C   UNL     1      -9.186   9.199  70.913  1.00  0.00    -0.326 A  
HETATM   14  C   UNL     1      -9.892   9.512  69.742  1.00  0.00    -0.215 A  
BRANCH  14  15
HETATM   15  N   UNL     1     -11.297   9.367  69.728  1.00  0.00    -0.425 NA 
HETATM   16  H   UNL     1     -11.754   9.821  68.938  1.00  0.00     0.000 HD 
BRANCH  15  17
HETATM   17  C   UNL     1     -12.193   8.702  70.618  1.00  0.00     0.094 A  
HETATM   18  C   UNL     1     -13.020   9.513  71.436  1.00  0.00    -0.368 A  
HETATM   19  C   UNL     1     -14.060   8.981  72.206  1.00  0.00    -0.485 A  
HETATM   20 CL   UNL     1     -12.779  11.230  71.521  1.00  0.00    -0.500 Cl 
HETATM   21  C   UNL     1     -14.297   7.614  72.199  1.00  0.00    -0.356 A  
HETATM   22  C   UNL     1     -13.443   6.781  71.485  1.00  0.00    -0.180 A  
HETATM   23  C   UNL     1     -12.387   7.307  70.717  1.00  0.00    -0.182 A  
HETATM   24 CL   UNL     1     -11.458   6.116  69.872  1.00  0.00    -0.464 Cl 
ENDBRANCH  15  17
ENDBRANCH  14  15
ENDBRANCH   8   9
ENDBRANCH   6   8
ENDBRANCH   5   6
ENDBRANCH   4   5
TORSDOF 6
ENDMDL
MODEL      282
REMARK 921   NORMALIZED FREE ENERGY PREDICTED BY IDOCK:   -4.17 KCAL/MOL
REMARK 922        TOTAL FREE ENERGY PREDICTED BY IDOCK:   -6.59 KCAL/MOL
REMARK 923 INTER-LIGAND FREE ENERGY PREDICTED BY IDOCK:   -6.75 KCAL/MOL
REMARK 924 INTRA-LIGAND FREE ENERGY PREDICTED BY IDOCK:    0.16 KCAL/MOL
REMARK 927      BINDING AFFINITY PREDICTED BY RF-SCORE:    0.00 PKD
ROOT
HETATM    1  O   UNL     1      -9.101  12.875  66.610  1.00  0.00    -0.225 OA 
HETATM    2  C   UNL     1      -8.069  13.208  67.422  1.00  0.00    -0.179 C  
HETATM    3  O   UNL     1      -7.590  12.417  68.219  1.00  0.00    -0.115 OA 
HETATM    4  C   UNL     1      -7.595  14.644  67.225  1.00  0.00    -0.143 C  
ENDROOT
BRANCH   4   5
HETATM    5  O   UNL     1      -6.551  14.963  68.155  1.00  0.00    -0.106 OA 
BRANCH   5   6
HETATM    6  C   UNL     1      -6.605  16.200  68.715  1.00  0.00    -0.129 C  
HETATM    7  O   UNL     1      -5.649  16.940  68.879  1.00  0.00    -0.131 OA 
BRANCH   6   8
HETATM    8  C   UNL     1      -8.031  16.530  69.116  1.00  0.00    -0.182 C  
BRANCH   8   9
HETATM    9  C   UNL     1      -8.667  17.621  68.286  1.00  0.00    -0.276 A  
HETATM   10  C   UNL     1      -7.822  18.359  67.432  1.00  0.00    -0.237 A  
HETATM   11  C   UNL     1      -8.327  19.363  66.608  1.00  0.00    -0.326 A  
HETATM   12  C   UNL     1      -9.689  19.621  66.593  1.00  0.00    -0.494 A  
HETATM   13  C   UNL     1     -10.536  18.918  67.451  1.00  0.00    -0.534 A  
HETATM   14  C   UNL     1     -10.039  17.956  68.341  1.00  0.00    -0.383 A  
BRANCH  14  15
HETATM   15  N   UNL     1     -10.906  17.405  69.310  1.00  0.00    -0.296 NA 
HETATM   16  H   UNL     1     -11.240  18.077  70.001  1.00  0.00     0.000 HD 
BRANCH  15  17
HETATM   17  C   UNL     1     -11.400  16.079  69.500  1.00  0.00    -0.344 A  
HETATM   18  C   UNL     1     -11.442  15.232  68.364  1.00  0.00    -0.345 A  
HETATM   19  C   UNL     1     -11.729  13.865  68.463  1.00  0.00    -0.390 A  
HETATM   20 CL   UNL     1     -11.133  15.856  66.775  1.00  0.00    -0.148 Cl 
HETATM   21  C   UNL     1     -12.003  13.303  69.701  1.00  0.00    -0.376 A  
HETATM   22  C   UNL     1     -12.066  14.126  70.821  1.00  0.00    -0.419 A  
HETATM   23  C   UNL     1     -11.791  15.503  70.729  1.00  0.00    -0.367 A  
HETATM   24 CL   UNL     1     -11.886  16.351  72.233  1.00  0.00    -0.604 Cl 
ENDBRANCH  15  17
ENDBRANCH  14  15
ENDBRANCH   8   9
ENDBRANCH   6   8
ENDBRANCH   5   6
ENDBRANCH   4   5
TORSDOF 6
ENDMDL
MODEL      283
REMARK 921   NORMALIZED FREE ENERGY PREDICTED BY IDOCK:   -4.17 KCAL/MOL
REMARK 922        TOTAL FREE ENERGY PREDICTED BY IDOCK:   -6.59 KCAL/MOL
REMARK 923 INTER-LIGAND FREE ENERGY PREDICTED BY IDOCK:   -6.07 KCAL/MOL
REMARK 924 INTRA-LIGAND FREE ENERGY PREDICTED BY IDOCK:   -0.52 KCAL/MOL
REMARK 927      BINDING AFFINITY PREDICTED BY RF-SCORE:    0.00 PKD
ROOT
HETATM    1  O   UNL     1     -12.513  14.286  70.561  1.00  0.00    -0.324 OA 
HETATM    2  C   UNL     1     -13.126  13.364  71.343  1.00  0.00    -0.291 C  
HETATM    3  O   UNL     1     -13.969  13.674  72.171  1.00  0.00    -0.492 OA 
HETATM    4  C   UNL     1     -12.650  11.941  71.070  1.00  0.00    -0.283 C  
ENDROOT
BRANCH   4   5
HETATM    5  O   UNL     1     -13.280  11.018  71.969  1.00  0.00    -0.499 OA 
BRANCH   5   6
HETATM    6  C   UNL     1     -13.108   9.700  71.690  1.00  0.00    -0.412 C  
HETATM    7  O   UNL     1     -13.997   8.864  71.661  1.00  0.00    -0.392 OA 
BRANCH   6   8
HETATM    8  C   UNL     1     -11.642   9.409  71.423  1.00  0.00    -0.451 C  
BRANCH   8   9
HETATM    9  C   UNL     1     -11.220   8.001  71.772  1.00  0.00    -0.317 A  
HETATM   10  C   UNL     1     -11.090   7.685  73.141  1.00  0.00    -0.373 A  
HETATM   11  C   UNL     1     -10.736   6.404  73.556  1.00  0.00    -0.267 A  
HETATM   12  C   UNL     1     -10.543   5.403  72.615  1.00  0.00    -0.274 A  
HETATM   13  C   UNL     1     -10.642   5.704  71.255  1.00  0.00    -0.321 A  
HETATM   14  C   UNL     1     -10.924   7.005  70.814  1.00  0.00    -0.255 A  
BRANCH  14  15
HETATM   15  N   UNL     1     -10.836   7.296  69.435  1.00  0.00    -0.346 NA 
HETATM   16  H   UNL     1     -11.703   7.645  69.026  1.00  0.00     0.000 HD 
BRANCH  15  17
HETATM   17  C   UNL     1      -9.755   7.191  68.508  1.00  0.00    -0.143 A  
HETATM   18  C   UNL     1      -8.481   7.640  68.940  1.00  0.00    -0.129 A  
HETATM   19  C   UNL     1      -7.319   7.416  68.193  1.00  0.00    -0.100 A  
HETATM   20 CL   UNL     1      -8.300   8.497  70.439  1.00  0.00    -0.117 Cl 
HETATM   21  C   UNL     1      -7.394   6.753  66.978  1.00  0.00    -0.082 A  
HETATM   22  C   UNL     1      -8.640   6.387  66.480  1.00  0.00    -0.125 A  
HETATM   23  C   UNL     1      -9.815   6.618  67.219  1.00  0.00    -0.146 A  
HETATM   24 CL   UNL     1     -11.262   6.062  66.450  1.00  0.00     0.067 Cl 
ENDBRANCH  15  17
ENDBRANCH  14  15
ENDBRANCH   8   9
ENDBRANCH   6   8
ENDBRANCH   5   6
ENDBRANCH   4   5
TORSDOF 6
ENDMDL
MODEL      284
REMARK 921   NORMALIZED FREE ENERGY PREDICTED BY IDOCK:   -4.14 KCAL/MOL
REMARK 922        TOTAL FREE ENERGY PREDICTED BY IDOCK:   -6.56 KCAL/MOL
REMARK 923 INTER-LIGAND FREE ENERGY PREDICTED BY IDOCK:   -6.12 KCAL/MOL
REMARK 924 INTRA-LIGAND FREE ENERGY PREDICTED BY IDOCK:   -0.44 KCAL/MOL
REMARK 927      BINDING AFFINITY PREDICTED BY RF-SCORE:    0.00 PKD
ROOT
HETATM    1  O   UNL     1     -11.577   7.149  71.635  1.00  0.00    -0.256 OA 
HETATM    2  C   UNL     1     -11.172   8.397  71.297  1.00  0.00    -0.259 C  
HETATM    3  O   UNL     1     -11.255   9.337  72.071  1.00  0.00    -0.343 OA 
HETATM    4  C   UNL     1     -10.619   8.480  69.878  1.00  0.00    -0.228 C  
ENDROOT
BRANCH   4   5
HETATM    5  O   UNL     1     -10.271   9.832  69.550  1.00  0.00    -0.193 OA 
BRANCH   5   6
HETATM    6  C   UNL     1     -10.582  10.242  68.293  1.00  0.00    -0.221 C  
HETATM    7  O   UNL     1     -11.704  10.520  67.901  1.00  0.00    -0.453 OA 
BRANCH   6   8
HETATM    8  C   UNL     1      -9.329  10.301  67.438  1.00  0.00    -0.163 C  
BRANCH   8   9
HETATM    9  C   UNL     1      -8.275  11.253  67.954  1.00  0.00    -0.123 A  
HETATM   10  C   UNL     1      -7.614  10.899  69.149  1.00  0.00    -0.133 A  
HETATM   11  C   UNL     1      -6.608  11.701  69.682  1.00  0.00    -0.096 A  
HETATM   12  C   UNL     1      -6.215  12.850  69.011  1.00  0.00    -0.095 A  
HETATM   13  C   UNL     1      -6.876  13.229  67.842  1.00  0.00    -0.140 A  
HETATM   14  C   UNL     1      -7.942  12.476  67.329  1.00  0.00    -0.173 A  
BRANCH  14  15
HETATM   15  N   UNL     1      -8.692  12.994  66.250  1.00  0.00    -0.397 NA 
HETATM   16  H   UNL     1      -8.124  13.357  65.485  1.00  0.00     0.000 HD 
BRANCH  15  17
HETATM   17  C   UNL     1     -10.099  13.103  66.035  1.00  0.00    -0.286 A  
HETATM   18  C   UNL     1     -10.841  13.871  66.968  1.00  0.00    -0.285 A  
HETATM   19  C   UNL     1     -12.185  14.201  66.760  1.00  0.00    -0.429 A  
HETATM   20 CL   UNL     1     -10.108  14.449  68.431  1.00  0.00    -0.237 Cl 
HETATM   21  C   UNL     1     -12.839  13.757  65.620  1.00  0.00    -0.456 A  
HETATM   22  C   UNL     1     -12.167  12.921  64.735  1.00  0.00    -0.499 A  
HETATM   23  C   UNL     1     -10.819  12.574  64.942  1.00  0.00    -0.293 A  
HETATM   24 CL   UNL     1     -10.148  11.555  63.716  1.00  0.00    -0.362 Cl 
ENDBRANCH  15  17
ENDBRANCH  14  15
ENDBRANCH   8   9
ENDBRANCH   6   8
ENDBRANCH   5   6
ENDBRANCH   4   5
TORSDOF 6
ENDMDL
MODEL      285
REMARK 921   NORMALIZED FREE ENERGY PREDICTED BY IDOCK:   -4.14 KCAL/MOL
REMARK 922        TOTAL FREE ENERGY PREDICTED BY IDOCK:   -6.56 KCAL/MOL
REMARK 923 INTER-LIGAND FREE ENERGY PREDICTED BY IDOCK:   -5.57 KCAL/MOL
REMARK 924 INTRA-LIGAND FREE ENERGY PREDICTED BY IDOCK:   -0.99 KCAL/MOL
REMARK 927      BINDING AFFINITY PREDICTED BY RF-SCORE:    0.00 PKD
ROOT
HETATM    1  O   UNL     1     -10.693   8.622  67.771  1.00  0.00    -0.207 OA 
HETATM    2  C   UNL     1      -9.574   9.361  67.968  1.00  0.00    -0.138 C  
HETATM    3  O   UNL     1      -8.456   8.904  67.787  1.00  0.00    -0.123 OA 
HETATM    4  C   UNL     1      -9.873  10.784  68.426  1.00  0.00    -0.169 C  
ENDROOT
BRANCH   4   5
HETATM    5  O   UNL     1      -8.656  11.498  68.684  1.00  0.00    -0.158 OA 
BRANCH   5   6
HETATM    6  C   UNL     1      -8.436  12.601  67.922  1.00  0.00    -0.173 C  
HETATM    7  O   UNL     1      -7.546  12.720  67.096  1.00  0.00    -0.132 OA 
BRANCH   6   8
HETATM    8  C   UNL     1      -9.458  13.674  68.250  1.00  0.00    -0.213 C  
BRANCH   8   9
HETATM    9  C   UNL     1      -9.938  14.456  67.049  1.00  0.00    -0.257 A  
HETATM   10  C   UNL     1     -10.423  13.717  65.950  1.00  0.00    -0.300 A  
HETATM   11  C   UNL     1     -10.914  14.354  64.813  1.00  0.00    -0.409 A  
HETATM   12  C   UNL     1     -10.968  15.739  64.768  1.00  0.00    -0.410 A  
HETATM   13  C   UNL     1     -10.469  16.486  65.836  1.00  0.00    -0.335 A  
HETATM   14  C   UNL     1      -9.901  15.865  66.958  1.00  0.00    -0.232 A  
BRANCH  14  15
HETATM   15  N   UNL     1      -9.250  16.661  67.927  1.00  0.00    -0.217 NA 
HETATM   16  H   UNL     1      -9.605  16.538  68.874  1.00  0.00     0.000 HD 
BRANCH  15  17
HETATM   17  C   UNL     1      -8.186  17.606  67.821  1.00  0.00    -0.225 A  
HETATM   18  C   UNL     1      -8.530  18.982  67.868  1.00  0.00    -0.296 A  
HETATM   19  C   UNL     1      -7.563  19.990  67.961  1.00  0.00    -0.313 A  
HETATM   20 CL   UNL     1     -10.189  19.487  67.815  1.00  0.00    -0.513 Cl 
HETATM   21  C   UNL     1      -6.217  19.657  67.989  1.00  0.00    -0.246 A  
HETATM   22  C   UNL     1      -5.843  18.325  67.846  1.00  0.00    -0.164 A  
HETATM   23  C   UNL     1      -6.808  17.306  67.741  1.00  0.00    -0.160 A  
HETATM   24 CL   UNL     1      -6.150  15.712  67.605  1.00  0.00    -0.175 Cl 
ENDBRANCH  15  17
ENDBRANCH  14  15
ENDBRANCH   8   9
ENDBRANCH   6   8
ENDBRANCH   5   6
ENDBRANCH   4   5
TORSDOF 6
ENDMDL
MODEL      286
REMARK 921   NORMALIZED FREE ENERGY PREDICTED BY IDOCK:   -4.13 KCAL/MOL
REMARK 922        TOTAL FREE ENERGY PREDICTED BY IDOCK:   -6.54 KCAL/MOL
REMARK 923 INTER-LIGAND FREE ENERGY PREDICTED BY IDOCK:   -5.62 KCAL/MOL
REMARK 924 INTRA-LIGAND FREE ENERGY PREDICTED BY IDOCK:   -0.92 KCAL/MOL
REMARK 927      BINDING AFFINITY PREDICTED BY RF-SCORE:    0.00 PKD
ROOT
HETATM    1  O   UNL     1     -10.664  17.578  68.277  1.00  0.00    -0.371 OA 
HETATM    2  C   UNL     1     -10.884  16.366  68.841  1.00  0.00    -0.334 C  
HETATM    3  O   UNL     1     -10.454  16.078  69.947  1.00  0.00    -0.290 OA 
HETATM    4  C   UNL     1     -11.707  15.437  67.955  1.00  0.00    -0.184 C  
ENDROOT
BRANCH   4   5
HETATM    5  O   UNL     1     -11.851  14.150  68.569  1.00  0.00    -0.329 OA 
BRANCH   5   6
HETATM    6  C   UNL     1     -11.802  13.079  67.734  1.00  0.00    -0.347 C  
HETATM    7  O   UNL     1     -12.281  11.982  67.968  1.00  0.00    -0.454 OA 
BRANCH   6   8
HETATM    8  C   UNL     1     -11.057  13.442  66.462  1.00  0.00    -0.312 C  
BRANCH   8   9
HETATM    9  C   UNL     1     -10.342  12.279  65.814  1.00  0.00    -0.287 A  
HETATM   10  C   UNL     1     -10.775  11.888  64.531  1.00  0.00    -0.361 A  
HETATM   11  C   UNL     1     -10.154  10.846  63.846  1.00  0.00    -0.422 A  
HETATM   12  C   UNL     1      -9.063  10.203  64.412  1.00  0.00    -0.284 A  
HETATM   13  C   UNL     1      -8.637  10.560  65.692  1.00  0.00    -0.182 A  
HETATM   14  C   UNL     1      -9.295  11.555  66.429  1.00  0.00    -0.209 A  
BRANCH  14  15
HETATM   15  N   UNL     1      -8.942  11.754  67.782  1.00  0.00    -0.167 NA 
HETATM   16  H   UNL     1      -9.206  12.667  68.152  1.00  0.00     0.000 HD 
BRANCH  15  17
HETATM   17  C   UNL     1      -8.282  10.911  68.726  1.00  0.00    -0.151 A  
HETATM   18  C   UNL     1      -6.877  11.057  68.858  1.00  0.00    -0.079 A  
HETATM   19  C   UNL     1      -6.153  10.423  69.875  1.00  0.00    -0.068 A  
HETATM   20 CL   UNL     1      -5.976  12.044  67.751  1.00  0.00    -0.067 Cl 
HETATM   21  C   UNL     1      -6.808   9.605  70.783  1.00  0.00    -0.091 A  
HETATM   22  C   UNL     1      -8.168   9.363  70.622  1.00  0.00    -0.207 A  
HETATM   23  C   UNL     1      -8.902   9.988  69.596  1.00  0.00    -0.199 A  
HETATM   24 CL   UNL     1     -10.585   9.591  69.580  1.00  0.00    -0.223 Cl 
ENDBRANCH  15  17
ENDBRANCH  14  15
ENDBRANCH   8   9
ENDBRANCH   6   8
ENDBRANCH   5   6
ENDBRANCH   4   5
TORSDOF 6
ENDMDL
MODEL      287
REMARK 921   NORMALIZED FREE ENERGY PREDICTED BY IDOCK:   -4.12 KCAL/MOL
REMARK 922        TOTAL FREE ENERGY PREDICTED BY IDOCK:   -6.53 KCAL/MOL
REMARK 923 INTER-LIGAND FREE ENERGY PREDICTED BY IDOCK:   -5.99 KCAL/MOL
REMARK 924 INTRA-LIGAND FREE ENERGY PREDICTED BY IDOCK:   -0.54 KCAL/MOL
REMARK 927      BINDING AFFINITY PREDICTED BY RF-SCORE:    0.00 PKD
ROOT
HETATM    1  O   UNL     1     -13.049  11.998  71.082  1.00  0.00    -0.225 OA 
HETATM    2  C   UNL     1     -12.341  10.850  71.218  1.00  0.00    -0.343 C  
HETATM    3  O   UNL     1     -11.285  10.667  70.634  1.00  0.00    -0.289 OA 
HETATM    4  C   UNL     1     -13.004   9.850  72.159  1.00  0.00    -0.379 C  
ENDROOT
BRANCH   4   5
HETATM    5  O   UNL     1     -12.251   8.632  72.213  1.00  0.00    -0.362 OA 
BRANCH   5   6
HETATM    6  C   UNL     1     -12.715   7.606  71.453  1.00  0.00    -0.327 C  
HETATM    7  O   UNL     1     -13.880   7.246  71.393  1.00  0.00    -0.394 OA 
BRANCH   6   8
HETATM    8  C   UNL     1     -11.572   6.962  70.690  1.00  0.00    -0.402 C  
BRANCH   8   9
HETATM    9  C   UNL     1     -11.014   5.721  71.348  1.00  0.00    -0.304 A  
HETATM   10  C   UNL     1     -11.418   5.455  72.673  1.00  0.00    -0.305 A  
HETATM   11  C   UNL     1     -10.977   4.319  73.348  1.00  0.00    -0.366 A  
HETATM   12  C   UNL     1     -10.158   3.407  72.699  1.00  0.00    -0.233 A  
HETATM   13  C   UNL     1      -9.728   3.668  71.397  1.00  0.00    -0.241 A  
HETATM   14  C   UNL     1     -10.099   4.842  70.727  1.00  0.00    -0.216 A  
BRANCH  14  15
HETATM   15  N   UNL     1      -9.495   5.144  69.486  1.00  0.00    -0.135 NA 
HETATM   16  H   UNL     1      -8.955   6.009  69.486  1.00  0.00     0.000 HD 
BRANCH  15  17
HETATM   17  C   UNL     1      -9.503   4.461  68.233  1.00  0.00    -0.153 A  
HETATM   18  C   UNL     1     -10.222   5.062  67.169  1.00  0.00    -0.186 A  
HETATM   19  C   UNL     1     -10.147   4.584  65.855  1.00  0.00    -0.279 A  
HETATM   20 CL   UNL     1     -11.240   6.439  67.448  1.00  0.00    -0.386 Cl 
HETATM   21  C   UNL     1      -9.366   3.476  65.564  1.00  0.00    -0.158 A  
HETATM   22  C   UNL     1      -8.727   2.805  66.602  1.00  0.00    -0.128 A  
HETATM   23  C   UNL     1      -8.805   3.272  67.927  1.00  0.00    -0.126 A  
HETATM   24 CL   UNL     1      -7.916   2.325  69.070  1.00  0.00    -0.056 Cl 
ENDBRANCH  15  17
ENDBRANCH  14  15
ENDBRANCH   8   9
ENDBRANCH   6   8
ENDBRANCH   5   6
ENDBRANCH   4   5
TORSDOF 6
ENDMDL
MODEL      288
REMARK 921   NORMALIZED FREE ENERGY PREDICTED BY IDOCK:   -4.12 KCAL/MOL
REMARK 922        TOTAL FREE ENERGY PREDICTED BY IDOCK:   -6.53 KCAL/MOL
REMARK 923 INTER-LIGAND FREE ENERGY PREDICTED BY IDOCK:   -5.86 KCAL/MOL
REMARK 924 INTRA-LIGAND FREE ENERGY PREDICTED BY IDOCK:   -0.67 KCAL/MOL
REMARK 927      BINDING AFFINITY PREDICTED BY RF-SCORE:    0.00 PKD
ROOT
HETATM    1  O   UNL     1      -8.633  16.850  65.510  1.00  0.00    -0.296 OA 
HETATM    2  C   UNL     1      -9.285  16.586  66.669  1.00  0.00    -0.250 C  
HETATM    3  O   UNL     1      -8.871  16.978  67.749  1.00  0.00    -0.217 OA 
HETATM    4  C   UNL     1     -10.554  15.767  66.464  1.00  0.00    -0.306 C  
ENDROOT
BRANCH   4   5
HETATM    5  O   UNL     1     -11.165  15.460  67.725  1.00  0.00    -0.316 OA 
BRANCH   5   6
HETATM    6  C   UNL     1     -10.738  14.323  68.335  1.00  0.00    -0.251 C  
HETATM    7  O   UNL     1      -9.761  14.239  69.062  1.00  0.00    -0.154 OA 
BRANCH   6   8
HETATM    8  C   UNL     1     -11.652  13.164  67.979  1.00  0.00    -0.371 C  
BRANCH   8   9
HETATM    9  C   UNL     1     -11.254  11.850  68.611  1.00  0.00    -0.311 A  
HETATM   10  C   UNL     1     -11.867  11.511  69.835  1.00  0.00    -0.430 A  
HETATM   11  C   UNL     1     -11.584  10.306  70.474  1.00  0.00    -0.424 A  
HETATM   12  C   UNL     1     -10.715   9.400  69.883  1.00  0.00    -0.258 A  
HETATM   13  C   UNL     1     -10.081   9.731  68.684  1.00  0.00    -0.186 A  
HETATM   14  C   UNL     1     -10.294  10.970  68.063  1.00  0.00    -0.185 A  
BRANCH  14  15
HETATM   15  N   UNL     1      -9.496  11.329  66.954  1.00  0.00    -0.175 NA 
HETATM   16  H   UNL     1      -8.988  12.205  67.074  1.00  0.00     0.000 HD 
BRANCH  15  17
HETATM   17  C   UNL     1      -9.271  10.690  65.698  1.00  0.00    -0.196 A  
HETATM   18  C   UNL     1      -9.797  11.322  64.543  1.00  0.00    -0.270 A  
HETATM   19  C   UNL     1      -9.483  10.891  63.249  1.00  0.00    -0.347 A  
HETATM   20 CL   UNL     1     -10.869  12.680  64.681  1.00  0.00    -0.328 Cl 
HETATM   21  C   UNL     1      -8.646   9.800  63.066  1.00  0.00    -0.196 A  
HETATM   22  C   UNL     1      -8.193   9.099  64.178  1.00  0.00    -0.162 A  
HETATM   23  C   UNL     1      -8.513   9.518  65.483  1.00  0.00    -0.140 A  
HETATM   24 CL   UNL     1      -7.828   8.539  66.734  1.00  0.00    -0.090 Cl 
ENDBRANCH  15  17
ENDBRANCH  14  15
ENDBRANCH   8   9
ENDBRANCH   6   8
ENDBRANCH   5   6
ENDBRANCH   4   5
TORSDOF 6
ENDMDL
MODEL      289
REMARK 921   NORMALIZED FREE ENERGY PREDICTED BY IDOCK:   -4.11 KCAL/MOL
REMARK 922        TOTAL FREE ENERGY PREDICTED BY IDOCK:   -6.52 KCAL/MOL
REMARK 923 INTER-LIGAND FREE ENERGY PREDICTED BY IDOCK:   -5.47 KCAL/MOL
REMARK 924 INTRA-LIGAND FREE ENERGY PREDICTED BY IDOCK:   -1.04 KCAL/MOL
REMARK 927      BINDING AFFINITY PREDICTED BY RF-SCORE:    0.00 PKD
ROOT
HETATM    1  O   UNL     1     -11.641  12.939  68.428  1.00  0.00    -0.289 OA 
HETATM    2  C   UNL     1     -11.244  11.756  68.957  1.00  0.00    -0.265 C  
HETATM    3  O   UNL     1     -10.108  11.333  68.818  1.00  0.00    -0.197 OA 
HETATM    4  C   UNL     1     -12.355  11.044  69.722  1.00  0.00    -0.262 C  
ENDROOT
BRANCH   4   5
HETATM    5  O   UNL     1     -11.901   9.771  70.201  1.00  0.00    -0.196 OA 
BRANCH   5   6
HETATM    6  C   UNL     1     -12.525   9.291  71.308  1.00  0.00    -0.316 C  
HETATM    7  O   UNL     1     -13.175   9.960  72.095  1.00  0.00    -0.438 OA 
BRANCH   6   8
HETATM    8  C   UNL     1     -12.291   7.796  71.433  1.00  0.00    -0.346 C  
BRANCH   8   9
HETATM    9  C   UNL     1     -10.874   7.423  71.801  1.00  0.00    -0.253 A  
HETATM   10  C   UNL     1     -10.200   8.263  72.711  1.00  0.00    -0.325 A  
HETATM   11  C   UNL     1      -8.903   7.979  73.131  1.00  0.00    -0.318 A  
HETATM   12  C   UNL     1      -8.268   6.831  72.680  1.00  0.00    -0.109 A  
HETATM   13  C   UNL     1      -8.911   6.002  71.759  1.00  0.00    -0.138 A  
HETATM   14  C   UNL     1     -10.188   6.309  71.267  1.00  0.00    -0.200 A  
BRANCH  14  15
HETATM   15  N   UNL     1     -10.717   5.541  70.206  1.00  0.00    -0.290 NA 
HETATM   16  H   UNL     1     -11.630   5.130  70.405  1.00  0.00     0.000 HD 
BRANCH  15  17
HETATM   17  C   UNL     1     -10.209   5.234  68.908  1.00  0.00    -0.178 A  
HETATM   18  C   UNL     1      -9.651   3.944  68.717  1.00  0.00    -0.116 A  
HETATM   19  C   UNL     1      -9.294   3.467  67.450  1.00  0.00    -0.243 A  
HETATM   20 CL   UNL     1      -9.382   2.881  70.062  1.00  0.00    -0.218 Cl 
HETATM   21  C   UNL     1      -9.466   4.272  66.333  1.00  0.00    -0.191 A  
HETATM   22  C   UNL     1      -9.919   5.576  66.500  1.00  0.00    -0.214 A  
HETATM   23  C   UNL     1     -10.269   6.068  67.771  1.00  0.00    -0.179 A  
HETATM   24 CL   UNL     1     -10.844   7.700  67.770  1.00  0.00    -0.194 Cl 
ENDBRANCH  15  17
ENDBRANCH  14  15
ENDBRANCH   8   9
ENDBRANCH   6   8
ENDBRANCH   5   6
ENDBRANCH   4   5
TORSDOF 6
ENDMDL
MODEL      290
REMARK 921   NORMALIZED FREE ENERGY PREDICTED BY IDOCK:   -4.11 KCAL/MOL
REMARK 922        TOTAL FREE ENERGY PREDICTED BY IDOCK:   -6.52 KCAL/MOL
REMARK 923 INTER-LIGAND FREE ENERGY PREDICTED BY IDOCK:   -5.91 KCAL/MOL
REMARK 924 INTRA-LIGAND FREE ENERGY PREDICTED BY IDOCK:   -0.61 KCAL/MOL
REMARK 927      BINDING AFFINITY PREDICTED BY RF-SCORE:    0.00 PKD
ROOT
HETATM    1  O   UNL     1      -7.812   7.255  70.011  1.00  0.00    -0.107 OA 
HETATM    2  C   UNL     1      -8.081   8.554  69.732  1.00  0.00    -0.116 C  
HETATM    3  O   UNL     1      -8.318   9.369  70.609  1.00  0.00    -0.186 OA 
HETATM    4  C   UNL     1      -8.051   8.861  68.239  1.00  0.00    -0.109 C  
ENDROOT
BRANCH   4   5
HETATM    5  O   UNL     1      -8.408  10.228  67.997  1.00  0.00    -0.112 OA 
BRANCH   5   6
HETATM    6  C   UNL     1      -9.726  10.473  67.777  1.00  0.00    -0.160 C  
HETATM    7  O   UNL     1     -10.512   9.690  67.269  1.00  0.00    -0.239 OA 
BRANCH   6   8
HETATM    8  C   UNL     1     -10.084  11.870  68.251  1.00  0.00    -0.203 C  
BRANCH   8   9
HETATM    9  C   UNL     1     -10.581  12.784  67.155  1.00  0.00    -0.249 A  
HETATM   10  C   UNL     1      -9.774  12.913  66.006  1.00  0.00    -0.228 A  
HETATM   11  C   UNL     1     -10.167  13.709  64.933  1.00  0.00    -0.363 A  
HETATM   12  C   UNL     1     -11.392  14.359  64.969  1.00  0.00    -0.373 A  
HETATM   13  C   UNL     1     -12.191  14.263  66.109  1.00  0.00    -0.430 A  
HETATM   14  C   UNL     1     -11.781  13.527  67.230  1.00  0.00    -0.383 A  
BRANCH  14  15
HETATM   15  N   UNL     1     -12.538  13.609  68.420  1.00  0.00    -0.028 NA 
HETATM   16  H   UNL     1     -13.509  13.316  68.316  1.00  0.00     0.000 HD 
BRANCH  15  17
HETATM   17  C   UNL     1     -12.192  14.025  69.740  1.00  0.00    -0.341 A  
HETATM   18  C   UNL     1     -11.707  15.349  69.899  1.00  0.00    -0.336 A  
HETATM   19  C   UNL     1     -11.515  15.926  71.160  1.00  0.00    -0.471 A  
HETATM   20 CL   UNL     1     -11.328  16.330  68.519  1.00  0.00    -0.367 Cl 
HETATM   21  C   UNL     1     -11.781  15.192  72.306  1.00  0.00    -0.496 A  
HETATM   22  C   UNL     1     -12.163  13.860  72.185  1.00  0.00     0.101 A  
HETATM   23  C   UNL     1     -12.349  13.268  70.922  1.00  0.00    -0.329 A  
HETATM   24 CL   UNL     1     -12.858  11.615  70.977  1.00  0.00    -0.386 Cl 
ENDBRANCH  15  17
ENDBRANCH  14  15
ENDBRANCH   8   9
ENDBRANCH   6   8
ENDBRANCH   5   6
ENDBRANCH   4   5
TORSDOF 6
ENDMDL
MODEL      291
REMARK 921   NORMALIZED FREE ENERGY PREDICTED BY IDOCK:   -4.11 KCAL/MOL
REMARK 922        TOTAL FREE ENERGY PREDICTED BY IDOCK:   -6.52 KCAL/MOL
REMARK 923 INTER-LIGAND FREE ENERGY PREDICTED BY IDOCK:   -5.38 KCAL/MOL
REMARK 924 INTRA-LIGAND FREE ENERGY PREDICTED BY IDOCK:   -1.14 KCAL/MOL
REMARK 927      BINDING AFFINITY PREDICTED BY RF-SCORE:    0.00 PKD
ROOT
HETATM    1  O   UNL     1      -9.441   3.035  66.116  1.00  0.00    -0.110 OA 
HETATM    2  C   UNL     1      -9.767   4.350  66.073  1.00  0.00    -0.213 C  
HETATM    3  O   UNL     1     -10.927   4.730  66.069  1.00  0.00    -0.213 OA 
HETATM    4  C   UNL     1      -8.548   5.264  66.031  1.00  0.00    -0.124 C  
ENDROOT
BRANCH   4   5
HETATM    5  O   UNL     1      -8.949   6.636  65.917  1.00  0.00    -0.147 OA 
BRANCH   5   6
HETATM    6  C   UNL     1      -8.649   7.437  66.973  1.00  0.00    -0.119 C  
HETATM    7  O   UNL     1      -7.597   7.423  67.590  1.00  0.00    -0.101 OA 
BRANCH   6   8
HETATM    8  C   UNL     1      -9.819   8.355  67.281  1.00  0.00    -0.264 C  
BRANCH   8   9
HETATM    9  C   UNL     1     -10.331   8.243  68.698  1.00  0.00    -0.225 A  
HETATM   10  C   UNL     1     -11.057   7.082  69.034  1.00  0.00    -0.121 A  
HETATM   11  C   UNL     1     -11.541   6.881  70.325  1.00  0.00    -0.362 A  
HETATM   12  C   UNL     1     -11.274   7.816  71.314  1.00  0.00    -0.280 A  
HETATM   13  C   UNL     1     -10.580   8.983  70.993  1.00  0.00    -0.341 A  
HETATM   14  C   UNL     1     -10.149   9.240  69.684  1.00  0.00    -0.197 A  
BRANCH  14  15
HETATM   15  N   UNL     1      -9.614  10.510  69.374  1.00  0.00    -0.357 NA 
HETATM   16  H   UNL     1      -8.651  10.642  69.684  1.00  0.00     0.000 HD 
BRANCH  15  17
HETATM   17  C   UNL     1     -10.173  11.641  68.707  1.00  0.00    -0.177 A  
HETATM   18  C   UNL     1      -9.538  12.072  67.514  1.00  0.00    -0.177 A  
HETATM   19  C   UNL     1     -10.101  13.046  66.680  1.00  0.00    -0.251 A  
HETATM   20 CL   UNL     1      -8.015  11.402  67.023  1.00  0.00    -0.151 Cl 
HETATM   21  C   UNL     1     -11.309  13.636  67.022  1.00  0.00    -0.344 A  
HETATM   22  C   UNL     1     -11.907  13.307  68.234  1.00  0.00    -0.389 A  
HETATM   23  C   UNL     1     -11.342  12.337  69.084  1.00  0.00    -0.272 A  
HETATM   24 CL   UNL     1     -12.249  12.040  70.527  1.00  0.00    -0.446 Cl 
ENDBRANCH  15  17
ENDBRANCH  14  15
ENDBRANCH   8   9
ENDBRANCH   6   8
ENDBRANCH   5   6
ENDBRANCH   4   5
TORSDOF 6
ENDMDL
MODEL      292
REMARK 921   NORMALIZED FREE ENERGY PREDICTED BY IDOCK:   -4.11 KCAL/MOL
REMARK 922        TOTAL FREE ENERGY PREDICTED BY IDOCK:   -6.52 KCAL/MOL
REMARK 923 INTER-LIGAND FREE ENERGY PREDICTED BY IDOCK:   -5.79 KCAL/MOL
REMARK 924 INTRA-LIGAND FREE ENERGY PREDICTED BY IDOCK:   -0.73 KCAL/MOL
REMARK 927      BINDING AFFINITY PREDICTED BY RF-SCORE:    0.00 PKD
ROOT
HETATM    1  O   UNL     1      -8.932   8.704  72.828  1.00  0.00    -0.356 OA 
HETATM    2  C   UNL     1      -9.545   8.327  71.680  1.00  0.00    -0.198 C  
HETATM    3  O   UNL     1     -10.391   7.447  71.657  1.00  0.00    -0.197 OA 
HETATM    4  C   UNL     1      -9.062   9.108  70.463  1.00  0.00    -0.241 C  
ENDROOT
BRANCH   4   5
HETATM    5  O   UNL     1      -9.692   8.622  69.270  1.00  0.00    -0.168 OA 
BRANCH   5   6
HETATM    6  C   UNL     1     -10.538   9.482  68.646  1.00  0.00    -0.210 C  
HETATM    7  O   UNL     1     -11.232  10.316  69.206  1.00  0.00    -0.231 OA 
BRANCH   6   8
HETATM    8  C   UNL     1     -10.503   9.254  67.146  1.00  0.00    -0.319 C  
BRANCH   8   9
HETATM    9  C   UNL     1      -9.127   9.387  66.535  1.00  0.00    -0.188 A  
HETATM   10  C   UNL     1      -8.338   8.221  66.463  1.00  0.00    -0.112 A  
HETATM   11  C   UNL     1      -7.069   8.243  65.888  1.00  0.00    -0.071 A  
HETATM   12  C   UNL     1      -6.582   9.419  65.338  1.00  0.00    -0.071 A  
HETATM   13  C   UNL     1      -7.340  10.588  65.424  1.00  0.00    -0.084 A  
HETATM   14  C   UNL     1      -8.587  10.605  66.065  1.00  0.00    -0.173 A  
BRANCH  14  15
HETATM   15  N   UNL     1      -9.230  11.843  66.283  1.00  0.00    -0.222 NA 
HETATM   16  H   UNL     1      -8.805  12.409  67.018  1.00  0.00     0.000 HD 
BRANCH  15  17
HETATM   17  C   UNL     1     -10.365  12.448  65.665  1.00  0.00    -0.258 A  
HETATM   18  C   UNL     1     -11.213  13.233  66.487  1.00  0.00    -0.304 A  
HETATM   19  C   UNL     1     -12.243  14.021  65.959  1.00  0.00    -0.484 A  
HETATM   20 CL   UNL     1     -11.008  13.259  68.210  1.00  0.00    -0.266 Cl 
HETATM   21  C   UNL     1     -12.473  14.033  64.591  1.00  0.00    -0.366 A  
HETATM   22  C   UNL     1     -11.724  13.199  63.769  1.00  0.00    -0.519 A  
HETATM   23  C   UNL     1     -10.693  12.395  64.292  1.00  0.00    -0.357 A  
HETATM   24 CL   UNL     1      -9.852  11.454  63.109  1.00  0.00    -0.395 Cl 
ENDBRANCH  15  17
ENDBRANCH  14  15
ENDBRANCH   8   9
ENDBRANCH   6   8
ENDBRANCH   5   6
ENDBRANCH   4   5
TORSDOF 6
ENDMDL
MODEL      293
REMARK 921   NORMALIZED FREE ENERGY PREDICTED BY IDOCK:   -4.10 KCAL/MOL
REMARK 922        TOTAL FREE ENERGY PREDICTED BY IDOCK:   -6.50 KCAL/MOL
REMARK 923 INTER-LIGAND FREE ENERGY PREDICTED BY IDOCK:   -5.47 KCAL/MOL
REMARK 924 INTRA-LIGAND FREE ENERGY PREDICTED BY IDOCK:   -1.02 KCAL/MOL
REMARK 927      BINDING AFFINITY PREDICTED BY RF-SCORE:    0.00 PKD
ROOT
HETATM    1  O   UNL     1      -7.590   4.234  68.682  1.00  0.00    -0.062 OA 
HETATM    2  C   UNL     1      -7.522   4.965  69.822  1.00  0.00    -0.056 C  
HETATM    3  O   UNL     1      -6.733   4.699  70.715  1.00  0.00    -0.033 OA 
HETATM    4  C   UNL     1      -8.517   6.119  69.850  1.00  0.00    -0.129 C  
ENDROOT
BRANCH   4   5
HETATM    5  O   UNL     1      -8.449   6.814  71.102  1.00  0.00    -0.123 OA 
BRANCH   5   6
HETATM    6  C   UNL     1      -8.875   8.104  71.095  1.00  0.00    -0.146 C  
HETATM    7  O   UNL     1      -8.475   8.981  71.843  1.00  0.00    -0.363 OA 
BRANCH   6   8
HETATM    8  C   UNL     1      -9.931   8.299  70.022  1.00  0.00    -0.188 C  
BRANCH   8   9
HETATM    9  C   UNL     1     -10.929   9.391  70.332  1.00  0.00    -0.317 A  
HETATM   10  C   UNL     1     -11.810   9.174  71.411  1.00  0.00    -0.415 A  
HETATM   11  C   UNL     1     -12.742  10.139  71.787  1.00  0.00    -0.534 A  
HETATM   12  C   UNL     1     -12.784  11.354  71.119  1.00  0.00    -0.479 A  
HETATM   13  C   UNL     1     -11.937  11.575  70.032  1.00  0.00    -0.435 A  
HETATM   14  C   UNL     1     -11.043  10.589  69.590  1.00  0.00    -0.283 A  
BRANCH  14  15
HETATM   15  N   UNL     1     -10.340  10.791  68.382  1.00  0.00    -0.171 NA 
HETATM   16  H   UNL     1     -10.473  10.050  67.694  1.00  0.00     0.000 HD 
BRANCH  15  17
HETATM   17  C   UNL     1      -9.477  11.842  67.949  1.00  0.00    -0.194 A  
HETATM   18  C   UNL     1     -10.015  12.796  67.047  1.00  0.00    -0.231 A  
HETATM   19  C   UNL     1      -9.329  13.966  66.702  1.00  0.00    -0.282 A  
HETATM   20 CL   UNL     1     -11.574  12.556  66.322  1.00  0.00    -0.425 Cl 
HETATM   21  C   UNL     1      -8.071  14.212  67.232  1.00  0.00    -0.188 A  
HETATM   22  C   UNL     1      -7.474  13.251  68.040  1.00  0.00    -0.138 A  
HETATM   23  C   UNL     1      -8.153  12.067  68.384  1.00  0.00    -0.154 A  
HETATM   24 CL   UNL     1      -7.262  11.012  69.426  1.00  0.00    -0.127 Cl 
ENDBRANCH  15  17
ENDBRANCH  14  15
ENDBRANCH   8   9
ENDBRANCH   6   8
ENDBRANCH   5   6
ENDBRANCH   4   5
TORSDOF 6
ENDMDL
MODEL      294
REMARK 921   NORMALIZED FREE ENERGY PREDICTED BY IDOCK:   -4.07 KCAL/MOL
REMARK 922        TOTAL FREE ENERGY PREDICTED BY IDOCK:   -6.46 KCAL/MOL
REMARK 923 INTER-LIGAND FREE ENERGY PREDICTED BY IDOCK:   -5.43 KCAL/MOL
REMARK 924 INTRA-LIGAND FREE ENERGY PREDICTED BY IDOCK:   -1.03 KCAL/MOL
REMARK 927      BINDING AFFINITY PREDICTED BY RF-SCORE:    0.00 PKD
ROOT
HETATM    1  O   UNL     1      -8.821   4.806  70.632  1.00  0.00    -0.107 OA 
HETATM    2  C   UNL     1      -8.508   5.769  69.731  1.00  0.00    -0.123 C  
HETATM    3  O   UNL     1      -7.604   5.631  68.923  1.00  0.00    -0.085 OA 
HETATM    4  C   UNL     1      -9.393   7.005  69.849  1.00  0.00    -0.150 C  
ENDROOT
BRANCH   4   5
HETATM    5  O   UNL     1      -8.975   8.016  68.922  1.00  0.00    -0.141 OA 
BRANCH   5   6
HETATM    6  C   UNL     1      -9.895   8.398  67.998  1.00  0.00    -0.169 C  
HETATM    7  O   UNL     1     -10.879   7.752  67.676  1.00  0.00    -0.187 OA 
BRANCH   6   8
HETATM    8  C   UNL     1      -9.520   9.749  67.416  1.00  0.00    -0.178 C  
BRANCH   8   9
HETATM    9  C   UNL     1      -9.240   9.723  65.931  1.00  0.00    -0.236 A  
HETATM   10  C   UNL     1      -8.245   8.833  65.476  1.00  0.00    -0.133 A  
HETATM   11  C   UNL     1      -7.942   8.720  64.121  1.00  0.00    -0.154 A  
HETATM   12  C   UNL     1      -8.656   9.463  63.191  1.00  0.00    -0.222 A  
HETATM   13  C   UNL     1      -9.626  10.366  63.626  1.00  0.00    -0.364 A  
HETATM   14  C   UNL     1      -9.894  10.550  64.990  1.00  0.00    -0.306 A  
BRANCH  14  15
HETATM   15  N   UNL     1     -10.752  11.600  65.386  1.00  0.00    -0.283 NA 
HETATM   16  H   UNL     1     -11.637  11.287  65.786  1.00  0.00     0.000 HD 
BRANCH  15  17
HETATM   17  C   UNL     1     -10.608  13.019  65.328  1.00  0.00    -0.304 A  
HETATM   18  C   UNL     1     -11.511  13.731  64.497  1.00  0.00    -0.384 A  
HETATM   19  C   UNL     1     -11.587  15.129  64.504  1.00  0.00    -0.330 A  
HETATM   20 CL   UNL     1     -12.583  12.892  63.421  1.00  0.00    -0.368 Cl 
HETATM   21  C   UNL     1     -10.747  15.863  65.328  1.00  0.00    -0.442 A  
HETATM   22  C   UNL     1      -9.783  15.200  66.081  1.00  0.00    -0.338 A  
HETATM   23  C   UNL     1      -9.693  13.796  66.071  1.00  0.00    -0.237 A  
HETATM   24 CL   UNL     1      -8.457  13.154  67.098  1.00  0.00    -0.190 Cl 
ENDBRANCH  15  17
ENDBRANCH  14  15
ENDBRANCH   8   9
ENDBRANCH   6   8
ENDBRANCH   5   6
ENDBRANCH   4   5
TORSDOF 6
ENDMDL
MODEL      295
REMARK 921   NORMALIZED FREE ENERGY PREDICTED BY IDOCK:   -4.07 KCAL/MOL
REMARK 922        TOTAL FREE ENERGY PREDICTED BY IDOCK:   -6.46 KCAL/MOL
REMARK 923 INTER-LIGAND FREE ENERGY PREDICTED BY IDOCK:   -5.90 KCAL/MOL
REMARK 924 INTRA-LIGAND FREE ENERGY PREDICTED BY IDOCK:   -0.56 KCAL/MOL
REMARK 927      BINDING AFFINITY PREDICTED BY RF-SCORE:    0.00 PKD
ROOT
HETATM    1  O   UNL     1      -8.260  20.010  67.779  1.00  0.00    -0.304 OA 
HETATM    2  C   UNL     1      -8.252  18.710  68.160  1.00  0.00    -0.303 C  
HETATM    3  O   UNL     1      -7.252  18.014  68.071  1.00  0.00    -0.218 OA 
HETATM    4  C   UNL     1      -9.600  18.238  68.695  1.00  0.00    -0.335 C  
ENDROOT
BRANCH   4   5
HETATM    5  O   UNL     1      -9.553  16.842  69.018  1.00  0.00    -0.259 OA 
BRANCH   5   6
HETATM    6  C   UNL     1     -10.352  16.029  68.279  1.00  0.00    -0.261 C  
HETATM    7  O   UNL     1     -11.551  15.878  68.446  1.00  0.00    -0.371 OA 
BRANCH   6   8
HETATM    8  C   UNL     1      -9.534  15.326  67.210  1.00  0.00    -0.212 C  
BRANCH   8   9
HETATM    9  C   UNL     1      -8.667  14.206  67.736  1.00  0.00    -0.182 A  
HETATM   10  C   UNL     1      -7.392  14.552  68.228  1.00  0.00    -0.120 A  
HETATM   11  C   UNL     1      -6.537  13.589  68.760  1.00  0.00    -0.102 A  
HETATM   12  C   UNL     1      -6.955  12.269  68.847  1.00  0.00    -0.098 A  
HETATM   13  C   UNL     1      -8.204  11.905  68.341  1.00  0.00    -0.160 A  
HETATM   14  C   UNL     1      -9.049  12.845  67.734  1.00  0.00    -0.197 A  
BRANCH  14  15
HETATM   15  N   UNL     1     -10.217  12.396  67.079  1.00  0.00    -0.219 NA 
HETATM   16  H   UNL     1     -10.948  12.069  67.710  1.00  0.00     0.000 HD 
BRANCH  15  17
HETATM   17  C   UNL     1     -10.561  12.316  65.696  1.00  0.00    -0.260 A  
HETATM   18  C   UNL     1      -9.805  11.428  64.888  1.00  0.00    -0.258 A  
HETATM   19  C   UNL     1     -10.168  11.128  63.570  1.00  0.00    -0.446 A  
HETATM   20 CL   UNL     1      -8.378  10.658  65.505  1.00  0.00    -0.167 Cl 
HETATM   21  C   UNL     1     -11.288  11.722  63.008  1.00  0.00    -0.008 A  
HETATM   22  C   UNL     1     -11.993  12.671  63.740  1.00  0.00    -0.588 A  
HETATM   23  C   UNL     1     -11.629  12.987  65.062  1.00  0.00    -0.325 A  
HETATM   24 CL   UNL     1     -12.647  14.164  65.820  1.00  0.00    -0.506 Cl 
ENDBRANCH  15  17
ENDBRANCH  14  15
ENDBRANCH   8   9
ENDBRANCH   6   8
ENDBRANCH   5   6
ENDBRANCH   4   5
TORSDOF 6
ENDMDL
MODEL      296
REMARK 921   NORMALIZED FREE ENERGY PREDICTED BY IDOCK:   -4.07 KCAL/MOL
REMARK 922        TOTAL FREE ENERGY PREDICTED BY IDOCK:   -6.46 KCAL/MOL
REMARK 923 INTER-LIGAND FREE ENERGY PREDICTED BY IDOCK:   -6.11 KCAL/MOL
REMARK 924 INTRA-LIGAND FREE ENERGY PREDICTED BY IDOCK:   -0.35 KCAL/MOL
REMARK 927      BINDING AFFINITY PREDICTED BY RF-SCORE:    0.00 PKD
ROOT
HETATM    1  O   UNL     1     -13.228  11.015  71.686  1.00  0.00    -0.414 OA 
HETATM    2  C   UNL     1     -12.188  10.998  70.816  1.00  0.00    -0.380 C  
HETATM    3  O   UNL     1     -11.462  10.025  70.694  1.00  0.00    -0.293 OA 
HETATM    4  C   UNL     1     -12.042  12.301  70.038  1.00  0.00    -0.273 C  
ENDROOT
BRANCH   4   5
HETATM    5  O   UNL     1     -10.890  12.254  69.186  1.00  0.00    -0.194 OA 
BRANCH   5   6
HETATM    6  C   UNL     1     -10.862  13.150  68.165  1.00  0.00    -0.251 C  
HETATM    7  O   UNL     1     -11.416  13.007  67.087  1.00  0.00    -0.296 OA 
BRANCH   6   8
HETATM    8  C   UNL     1     -10.034  14.361  68.556  1.00  0.00    -0.237 C  
BRANCH   8   9
HETATM    9  C   UNL     1      -8.559  14.221  68.257  1.00  0.00    -0.176 A  
HETATM   10  C   UNL     1      -8.057  12.915  68.079  1.00  0.00    -0.159 A  
HETATM   11  C   UNL     1      -6.717  12.693  67.770  1.00  0.00    -0.127 A  
HETATM   12  C   UNL     1      -5.863  13.772  67.593  1.00  0.00    -0.047 A  
HETATM   13  C   UNL     1      -6.337  15.069  67.790  1.00  0.00    -0.176 A  
HETATM   14  C   UNL     1      -7.664  15.311  68.175  1.00  0.00    -0.117 A  
BRANCH  14  15
HETATM   15  N   UNL     1      -8.046  16.622  68.536  1.00  0.00    -0.214 NA 
HETATM   16  H   UNL     1      -7.833  16.866  69.504  1.00  0.00     0.000 HD 
BRANCH  15  17
HETATM   17  C   UNL     1      -8.675  17.668  67.796  1.00  0.00    -0.232 A  
HETATM   18  C   UNL     1      -9.970  18.070  68.210  1.00  0.00    -0.371 A  
HETATM   19  C   UNL     1     -10.604  19.202  67.683  1.00  0.00    -0.546 A  
HETATM   20 CL   UNL     1     -10.842  17.169  69.410  1.00  0.00    -0.117 Cl 
HETATM   21  C   UNL     1      -9.971  19.958  66.708  1.00  0.00    -0.569 A  
HETATM   22  C   UNL     1      -8.743  19.535  66.210  1.00  0.00    -0.383 A  
HETATM   23  C   UNL     1      -8.104  18.392  66.726  1.00  0.00    -0.251 A  
HETATM   24 CL   UNL     1      -6.570  18.046  66.004  1.00  0.00    -0.284 Cl 
ENDBRANCH  15  17
ENDBRANCH  14  15
ENDBRANCH   8   9
ENDBRANCH   6   8
ENDBRANCH   5   6
ENDBRANCH   4   5
TORSDOF 6
ENDMDL
MODEL      297
REMARK 921   NORMALIZED FREE ENERGY PREDICTED BY IDOCK:   -4.07 KCAL/MOL
REMARK 922        TOTAL FREE ENERGY PREDICTED BY IDOCK:   -6.45 KCAL/MOL
REMARK 923 INTER-LIGAND FREE ENERGY PREDICTED BY IDOCK:   -5.40 KCAL/MOL
REMARK 924 INTRA-LIGAND FREE ENERGY PREDICTED BY IDOCK:   -1.06 KCAL/MOL
REMARK 927      BINDING AFFINITY PREDICTED BY RF-SCORE:    0.00 PKD
ROOT
HETATM    1  O   UNL     1     -13.597  13.124  72.820  1.00  0.00    -0.598 OA 
HETATM    2  C   UNL     1     -13.119  12.583  71.673  1.00  0.00    -0.315 C  
HETATM    3  O   UNL     1     -12.747  13.273  70.737  1.00  0.00    -0.288 OA 
HETATM    4  C   UNL     1     -13.105  11.058  71.695  1.00  0.00    -0.438 C  
ENDROOT
BRANCH   4   5
HETATM    5  O   UNL     1     -12.657  10.540  70.436  1.00  0.00    -0.320 OA 
BRANCH   5   6
HETATM    6  C   UNL     1     -11.312  10.423  70.282  1.00  0.00    -0.328 C  
HETATM    7  O   UNL     1     -10.665  10.902  69.365  1.00  0.00    -0.224 OA 
BRANCH   6   8
HETATM    8  C   UNL     1     -10.725   9.602  71.416  1.00  0.00    -0.246 C  
BRANCH   8   9
HETATM    9  C   UNL     1     -10.627   8.123  71.118  1.00  0.00    -0.242 A  
HETATM   10  C   UNL     1     -11.322   7.245  71.975  1.00  0.00    -0.295 A  
HETATM   11  C   UNL     1     -11.313   5.869  71.759  1.00  0.00    -0.289 A  
HETATM   12  C   UNL     1     -10.644   5.348  70.661  1.00  0.00    -0.302 A  
HETATM   13  C   UNL     1      -9.929   6.201  69.818  1.00  0.00    -0.213 A  
HETATM   14  C   UNL     1      -9.864   7.580  70.060  1.00  0.00    -0.180 A  
BRANCH  14  15
HETATM   15  N   UNL     1      -8.985   8.372  69.288  1.00  0.00    -0.149 NA 
HETATM   16  H   UNL     1      -8.836   9.310  69.658  1.00  0.00     0.000 HD 
BRANCH  15  17
HETATM   17  C   UNL     1      -8.268   8.099  68.085  1.00  0.00    -0.129 A  
HETATM   18  C   UNL     1      -8.946   8.321  66.859  1.00  0.00    -0.146 A  
HETATM   19  C   UNL     1      -8.290   8.267  65.623  1.00  0.00    -0.154 A  
HETATM   20 CL   UNL     1     -10.644   8.678  66.832  1.00  0.00    -0.330 Cl 
HETATM   21  C   UNL     1      -6.936   7.969  65.571  1.00  0.00    -0.059 A  
HETATM   22  C   UNL     1      -6.265   7.649  66.746  1.00  0.00    -0.049 A  
HETATM   23  C   UNL     1      -6.919   7.690  67.992  1.00  0.00    -0.079 A  
HETATM   24 CL   UNL     1      -5.910   7.296  69.341  1.00  0.00    -0.026 Cl 
ENDBRANCH  15  17
ENDBRANCH  14  15
ENDBRANCH   8   9
ENDBRANCH   6   8
ENDBRANCH   5   6
ENDBRANCH   4   5
TORSDOF 6
ENDMDL
MODEL      298
REMARK 921   NORMALIZED FREE ENERGY PREDICTED BY IDOCK:   -4.06 KCAL/MOL
REMARK 922        TOTAL FREE ENERGY PREDICTED BY IDOCK:   -6.45 KCAL/MOL
REMARK 923 INTER-LIGAND FREE ENERGY PREDICTED BY IDOCK:   -5.28 KCAL/MOL
REMARK 924 INTRA-LIGAND FREE ENERGY PREDICTED BY IDOCK:   -1.17 KCAL/MOL
REMARK 927      BINDING AFFINITY PREDICTED BY RF-SCORE:    0.00 PKD
ROOT
HETATM    1  O   UNL     1     -13.229  11.242  72.090  1.00  0.00    -0.481 OA 
HETATM    2  C   UNL     1     -12.633  10.420  71.192  1.00  0.00    -0.410 C  
HETATM    3  O   UNL     1     -12.608  10.675  69.998  1.00  0.00    -0.306 OA 
HETATM    4  C   UNL     1     -12.018   9.181  71.834  1.00  0.00    -0.373 C  
ENDROOT
BRANCH   4   5
HETATM    5  O   UNL     1     -11.463   8.317  70.833  1.00  0.00    -0.274 OA 
BRANCH   5   6
HETATM    6  C   UNL     1     -11.678   6.987  71.006  1.00  0.00    -0.333 C  
HETATM    7  O   UNL     1     -12.017   6.458  72.052  1.00  0.00    -0.329 OA 
BRANCH   6   8
HETATM    8  C   UNL     1     -11.428   6.245  69.705  1.00  0.00    -0.425 C  
BRANCH   8   9
HETATM    9  C   UNL     1      -9.966   6.062  69.371  1.00  0.00    -0.220 A  
HETATM   10  C   UNL     1      -9.333   4.898  69.854  1.00  0.00    -0.204 A  
HETATM   11  C   UNL     1      -7.996   4.633  69.570  1.00  0.00    -0.062 A  
HETATM   12  C   UNL     1      -7.276   5.503  68.764  1.00  0.00    -0.070 A  
HETATM   13  C   UNL     1      -7.880   6.672  68.298  1.00  0.00    -0.110 A  
HETATM   14  C   UNL     1      -9.202   6.996  68.635  1.00  0.00    -0.131 A  
BRANCH  14  15
HETATM   15  N   UNL     1      -9.706   8.270  68.291  1.00  0.00    -0.154 NA 
HETATM   16  H   UNL     1     -10.722   8.312  68.225  1.00  0.00     0.000 HD 
BRANCH  15  17
HETATM   17  C   UNL     1      -9.052   9.510  68.019  1.00  0.00    -0.123 A  
HETATM   18  C   UNL     1      -8.325  10.108  69.080  1.00  0.00    -0.138 A  
HETATM   19  C   UNL     1      -7.496  11.219  68.883  1.00  0.00    -0.123 A  
HETATM   20 CL   UNL     1      -8.428   9.482  70.695  1.00  0.00    -0.226 Cl 
HETATM   21  C   UNL     1      -7.381  11.781  67.620  1.00  0.00    -0.119 A  
HETATM   22  C   UNL     1      -8.156  11.279  66.580  1.00  0.00    -0.160 A  
HETATM   23  C   UNL     1      -9.001  10.169  66.772  1.00  0.00    -0.132 A  
HETATM   24 CL   UNL     1      -9.856   9.670  65.353  1.00  0.00    -0.380 Cl 
ENDBRANCH  15  17
ENDBRANCH  14  15
ENDBRANCH   8   9
ENDBRANCH   6   8
ENDBRANCH   5   6
ENDBRANCH   4   5
TORSDOF 6
ENDMDL
MODEL      299
REMARK 921   NORMALIZED FREE ENERGY PREDICTED BY IDOCK:   -4.05 KCAL/MOL
REMARK 922        TOTAL FREE ENERGY PREDICTED BY IDOCK:   -6.43 KCAL/MOL
REMARK 923 INTER-LIGAND FREE ENERGY PREDICTED BY IDOCK:   -5.28 KCAL/MOL
REMARK 924 INTRA-LIGAND FREE ENERGY PREDICTED BY IDOCK:   -1.15 KCAL/MOL
REMARK 927      BINDING AFFINITY PREDICTED BY RF-SCORE:    0.00 PKD
ROOT
HETATM    1  O   UNL     1      -9.842  17.092  66.303  1.00  0.00    -0.281 OA 
HETATM    2  C   UNL     1     -10.214  17.127  67.606  1.00  0.00    -0.329 C  
HETATM    3  O   UNL     1      -9.744  17.934  68.392  1.00  0.00    -0.306 OA 
HETATM    4  C   UNL     1     -11.256  16.071  67.956  1.00  0.00    -0.303 C  
ENDROOT
BRANCH   4   5
HETATM    5  O   UNL     1     -11.561  16.108  69.356  1.00  0.00    -0.321 OA 
BRANCH   5   6
HETATM    6  C   UNL     1     -11.552  14.913  70.003  1.00  0.00    -0.289 C  
HETATM    7  O   UNL     1     -11.190  14.740  71.156  1.00  0.00    -0.208 OA 
BRANCH   6   8
HETATM    8  C   UNL     1     -12.053  13.816  69.081  1.00  0.00    -0.374 C  
BRANCH   8   9
HETATM    9  C   UNL     1     -11.517  12.442  69.411  1.00  0.00    -0.336 A  
HETATM   10  C   UNL     1     -12.127  11.748  70.476  1.00  0.00    -0.439 A  
HETATM   11  C   UNL     1     -11.718  10.465  70.830  1.00  0.00    -0.464 A  
HETATM   12  C   UNL     1     -10.720   9.834  70.101  1.00  0.00    -0.339 A  
HETATM   13  C   UNL     1     -10.087  10.516  69.061  1.00  0.00    -0.230 A  
HETATM   14  C   UNL     1     -10.432  11.836  68.737  1.00  0.00    -0.198 A  
BRANCH  14  15
HETATM   15  N   UNL     1      -9.644  12.542  67.800  1.00  0.00    -0.197 NA 
HETATM   16  H   UNL     1     -10.169  13.206  67.231  1.00  0.00     0.000 HD 
BRANCH  15  17
HETATM   17  C   UNL     1      -8.248  12.495  67.505  1.00  0.00    -0.175 A  
HETATM   18  C   UNL     1      -7.388  13.291  68.303  1.00  0.00    -0.113 A  
HETATM   19  C   UNL     1      -5.994  13.185  68.230  1.00  0.00    -0.090 A  
HETATM   20 CL   UNL     1      -8.030  14.448  69.426  1.00  0.00     0.063 Cl 
HETATM   21  C   UNL     1      -5.413  12.293  67.342  1.00  0.00    -0.127 A  
HETATM   22  C   UNL     1      -6.226  11.569  66.476  1.00  0.00    -0.072 A  
HETATM   23  C   UNL     1      -7.628  11.678  66.535  1.00  0.00     0.016 A  
HETATM   24 CL   UNL     1      -8.469  10.674  65.404  1.00  0.00    -0.170 Cl 
ENDBRANCH  15  17
ENDBRANCH  14  15
ENDBRANCH   8   9
ENDBRANCH   6   8
ENDBRANCH   5   6
ENDBRANCH   4   5
TORSDOF 6
ENDMDL
MODEL      300
REMARK 921   NORMALIZED FREE ENERGY PREDICTED BY IDOCK:   -4.04 KCAL/MOL
REMARK 922        TOTAL FREE ENERGY PREDICTED BY IDOCK:   -6.42 KCAL/MOL
REMARK 923 INTER-LIGAND FREE ENERGY PREDICTED BY IDOCK:   -6.97 KCAL/MOL
REMARK 924 INTRA-LIGAND FREE ENERGY PREDICTED BY IDOCK:    0.54 KCAL/MOL
REMARK 927      BINDING AFFINITY PREDICTED BY RF-SCORE:    0.00 PKD
ROOT
HETATM    1  O   UNL     1      -9.502  11.180  62.614  1.00  0.00    -0.322 OA 
HETATM    2  C   UNL     1     -10.313  11.379  63.682  1.00  0.00    -0.410 C  
HETATM    3  O   UNL     1     -10.059  10.915  64.782  1.00  0.00    -0.273 OA 
HETATM    4  C   UNL     1     -11.538  12.224  63.350  1.00  0.00    -0.447 C  
ENDROOT
BRANCH   4   5
HETATM    5  O   UNL     1     -12.392  12.345  64.495  1.00  0.00    -0.439 OA 
BRANCH   5   6
HETATM    6  C   UNL     1     -12.530  13.594  65.010  1.00  0.00    -0.414 C  
HETATM    7  O   UNL     1     -13.578  14.084  65.397  1.00  0.00    -0.593 OA 
BRANCH   6   8
HETATM    8  C   UNL     1     -11.187  14.303  65.029  1.00  0.00    -0.364 C  
BRANCH   8   9
HETATM    9  C   UNL     1     -10.976  15.189  66.234  1.00  0.00    -0.335 A  
HETATM   10  C   UNL     1     -10.650  16.540  65.994  1.00  0.00    -0.259 A  
HETATM   11  C   UNL     1     -10.467  17.436  67.044  1.00  0.00    -0.284 A  
HETATM   12  C   UNL     1     -10.646  17.011  68.352  1.00  0.00    -0.375 A  
HETATM   13  C   UNL     1     -10.943  15.672  68.609  1.00  0.00    -0.294 A  
HETATM   14  C   UNL     1     -11.058  14.736  67.571  1.00  0.00    -0.319 A  
BRANCH  14  15
HETATM   15  N   UNL     1     -11.180  13.366  67.891  1.00  0.00    -0.263 NA 
HETATM   16  H   UNL     1     -12.139  13.019  67.876  1.00  0.00     0.000 HD 
BRANCH  15  17
HETATM   17  C   UNL     1     -10.207  12.379  68.232  1.00  0.00    -0.229 A  
HETATM   18  C   UNL     1      -8.862  12.638  67.867  1.00  0.00    -0.182 A  
HETATM   19  C   UNL     1      -7.801  11.838  68.309  1.00  0.00    -0.137 A  
HETATM   20 CL   UNL     1      -8.459  13.980  66.842  1.00  0.00    -0.159 Cl 
HETATM   21  C   UNL     1      -8.054  10.739  69.116  1.00  0.00    -0.133 A  
HETATM   22  C   UNL     1      -9.370  10.401  69.411  1.00  0.00    -0.186 A  
HETATM   23  C   UNL     1     -10.443  11.193  68.961  1.00  0.00    -0.206 A  
HETATM   24 CL   UNL     1     -12.002  10.631  69.459  1.00  0.00    -0.341 Cl 
ENDBRANCH  15  17
ENDBRANCH  14  15
ENDBRANCH   8   9
ENDBRANCH   6   8
ENDBRANCH   5   6
ENDBRANCH   4   5
TORSDOF 6
ENDMDL
MODEL      301
REMARK 921   NORMALIZED FREE ENERGY PREDICTED BY IDOCK:   -4.04 KCAL/MOL
REMARK 922        TOTAL FREE ENERGY PREDICTED BY IDOCK:   -6.41 KCAL/MOL
REMARK 923 INTER-LIGAND FREE ENERGY PREDICTED BY IDOCK:   -5.89 KCAL/MOL
REMARK 924 INTRA-LIGAND FREE ENERGY PREDICTED BY IDOCK:   -0.52 KCAL/MOL
REMARK 927      BINDING AFFINITY PREDICTED BY RF-SCORE:    0.00 PKD
ROOT
HETATM    1  O   UNL     1      -9.577   8.673  72.790  1.00  0.00    -0.224 OA 
HETATM    2  C   UNL     1     -10.516   8.863  71.831  1.00  0.00    -0.345 C  
HETATM    3  O   UNL     1     -11.661   8.459  71.956  1.00  0.00    -0.304 OA 
HETATM    4  C   UNL     1      -9.983   9.618  70.618  1.00  0.00    -0.231 C  
ENDROOT
BRANCH   4   5
HETATM    5  O   UNL     1     -10.995   9.731  69.609  1.00  0.00    -0.233 OA 
BRANCH   5   6
HETATM    6  C   UNL     1     -11.170  10.967  69.072  1.00  0.00    -0.266 C  
HETATM    7  O   UNL     1     -11.085  12.019  69.684  1.00  0.00    -0.146 OA 
BRANCH   6   8
HETATM    8  C   UNL     1     -11.494  10.852  67.593  1.00  0.00    -0.281 C  
BRANCH   8   9
HETATM    9  C   UNL     1     -10.386  10.244  66.765  1.00  0.00    -0.288 A  
HETATM   10  C   UNL     1     -10.110   8.875  66.962  1.00  0.00    -0.331 A  
HETATM   11  C   UNL     1      -9.126   8.224  66.221  1.00  0.00    -0.235 A  
HETATM   12  C   UNL     1      -8.429   8.916  65.242  1.00  0.00    -0.185 A  
HETATM   13  C   UNL     1      -8.672  10.277  65.052  1.00  0.00    -0.195 A  
HETATM   14  C   UNL     1      -9.604  10.970  65.839  1.00  0.00    -0.218 A  
BRANCH  14  15
HETATM   15  N   UNL     1      -9.683  12.376  65.731  1.00  0.00    -0.341 NA 
HETATM   16  H   UNL     1      -9.658  12.722  64.772  1.00  0.00     0.000 HD 
BRANCH  15  17
HETATM   17  C   UNL     1      -9.792  13.400  66.719  1.00  0.00    -0.265 A  
HETATM   18  C   UNL     1      -8.641  13.674  67.501  1.00  0.00    -0.197 A  
HETATM   19  C   UNL     1      -8.570  14.774  68.365  1.00  0.00    -0.166 A  
HETATM   20 CL   UNL     1      -7.243  12.648  67.420  1.00  0.00    -0.148 Cl 
HETATM   21  C   UNL     1      -9.657  15.625  68.491  1.00  0.00    -0.199 A  
HETATM   22  C   UNL     1     -10.835  15.328  67.814  1.00  0.00    -0.295 A  
HETATM   23  C   UNL     1     -10.918  14.219  66.952  1.00  0.00    -0.304 A  
HETATM   24 CL   UNL     1     -12.452  14.035  66.172  1.00  0.00    -0.496 Cl 
ENDBRANCH  15  17
ENDBRANCH  14  15
ENDBRANCH   8   9
ENDBRANCH   6   8
ENDBRANCH   5   6
ENDBRANCH   4   5
TORSDOF 6
ENDMDL
MODEL      302
REMARK 921   NORMALIZED FREE ENERGY PREDICTED BY IDOCK:   -4.04 KCAL/MOL
REMARK 922        TOTAL FREE ENERGY PREDICTED BY IDOCK:   -6.41 KCAL/MOL
REMARK 923 INTER-LIGAND FREE ENERGY PREDICTED BY IDOCK:   -5.62 KCAL/MOL
REMARK 924 INTRA-LIGAND FREE ENERGY PREDICTED BY IDOCK:   -0.80 KCAL/MOL
REMARK 927      BINDING AFFINITY PREDICTED BY RF-SCORE:    0.00 PKD
ROOT
HETATM    1  O   UNL     1     -11.617   7.425  70.283  1.00  0.00    -0.232 OA 
HETATM    2  C   UNL     1     -10.512   7.422  69.498  1.00  0.00    -0.232 C  
HETATM    3  O   UNL     1      -9.479   6.865  69.836  1.00  0.00    -0.157 OA 
HETATM    4  C   UNL     1     -10.711   8.174  68.187  1.00  0.00    -0.029 C  
ENDROOT
BRANCH   4   5
HETATM    5  O   UNL     1      -9.494   8.198  67.429  1.00  0.00    -0.146 OA 
BRANCH   5   6
HETATM    6  C   UNL     1      -8.709   9.295  67.591  1.00  0.00    -0.116 C  
HETATM    7  O   UNL     1      -7.572   9.287  68.035  1.00  0.00    -0.084 OA 
BRANCH   6   8
HETATM    8  C   UNL     1      -9.453  10.541  67.147  1.00  0.00    -0.182 C  
BRANCH   8   9
HETATM    9  C   UNL     1      -9.464  10.750  65.650  1.00  0.00    -0.250 A  
HETATM   10  C   UNL     1      -8.798   9.791  64.859  1.00  0.00    -0.230 A  
HETATM   11  C   UNL     1      -8.783   9.887  63.469  1.00  0.00    -0.223 A  
HETATM   12  C   UNL     1      -9.467  10.918  62.842  1.00  0.00    -0.377 A  
HETATM   13  C   UNL     1     -10.110  11.890  63.611  1.00  0.00    -0.450 A  
HETATM   14  C   UNL     1     -10.074  11.854  65.012  1.00  0.00    -0.264 A  
BRANCH  14  15
HETATM   15  N   UNL     1     -10.583  12.952  65.740  1.00  0.00    -0.271 NA 
HETATM   16  H   UNL     1     -11.463  12.762  66.219  1.00  0.00     0.000 HD 
BRANCH  15  17
HETATM   17  C   UNL     1     -10.091  14.279  65.928  1.00  0.00    -0.326 A  
HETATM   18  C   UNL     1     -10.868  15.341  65.401  1.00  0.00    -0.387 A  
HETATM   19  C   UNL     1     -10.586  16.683  65.683  1.00  0.00    -0.282 A  
HETATM   20 CL   UNL     1     -12.227  15.025  64.369  1.00  0.00    -0.443 Cl 
HETATM   21  C   UNL     1      -9.503  17.008  66.486  1.00  0.00    -0.295 A  
HETATM   22  C   UNL     1      -8.664  15.995  66.938  1.00  0.00    -0.259 A  
HETATM   23  C   UNL     1      -8.934  14.644  66.650  1.00  0.00    -0.238 A  
HETATM   24 CL   UNL     1      -7.797  13.530  67.328  1.00  0.00    -0.144 Cl 
ENDBRANCH  15  17
ENDBRANCH  14  15
ENDBRANCH   8   9
ENDBRANCH   6   8
ENDBRANCH   5   6
ENDBRANCH   4   5
TORSDOF 6
ENDMDL
MODEL      303
REMARK 921   NORMALIZED FREE ENERGY PREDICTED BY IDOCK:   -4.03 KCAL/MOL
REMARK 922        TOTAL FREE ENERGY PREDICTED BY IDOCK:   -6.41 KCAL/MOL
REMARK 923 INTER-LIGAND FREE ENERGY PREDICTED BY IDOCK:   -5.65 KCAL/MOL
REMARK 924 INTRA-LIGAND FREE ENERGY PREDICTED BY IDOCK:   -0.76 KCAL/MOL
REMARK 927      BINDING AFFINITY PREDICTED BY RF-SCORE:    0.00 PKD
ROOT
HETATM    1  O   UNL     1     -13.181   9.741  72.282  1.00  0.00    -0.437 OA 
HETATM    2  C   UNL     1     -12.412   9.624  71.172  1.00  0.00    -0.332 C  
HETATM    3  O   UNL     1     -11.879   8.570  70.861  1.00  0.00    -0.281 OA 
HETATM    4  C   UNL     1     -12.297  10.926  70.387  1.00  0.00    -0.351 C  
ENDROOT
BRANCH   4   5
HETATM    5  O   UNL     1     -11.419  10.764  69.265  1.00  0.00    -0.254 OA 
BRANCH   5   6
HETATM    6  C   UNL     1     -11.427  11.766  68.348  1.00  0.00    -0.294 C  
HETATM    7  O   UNL     1     -12.073  11.767  67.312  1.00  0.00    -0.595 OA 
BRANCH   6   8
HETATM    8  C   UNL     1     -10.509  12.889  68.794  1.00  0.00    -0.183 C  
BRANCH   8   9
HETATM    9  C   UNL     1      -9.106  12.793  68.242  1.00  0.00    -0.180 A  
HETATM   10  C   UNL     1      -8.659  11.521  67.830  1.00  0.00    -0.138 A  
HETATM   11  C   UNL     1      -7.391  11.344  67.280  1.00  0.00    -0.130 A  
HETATM   12  C   UNL     1      -6.562  12.440  67.094  1.00  0.00    -0.092 A  
HETATM   13  C   UNL     1      -6.978  13.702  67.520  1.00  0.00    -0.157 A  
HETATM   14  C   UNL     1      -8.220  13.890  68.144  1.00  0.00    -0.158 A  
BRANCH  14  15
HETATM   15  N   UNL     1      -8.517  15.147  68.717  1.00  0.00    -0.169 NA 
HETATM   16  H   UNL     1      -8.831  15.098  69.686  1.00  0.00     0.000 HD 
BRANCH  15  17
HETATM   17  C   UNL     1      -8.459  16.471  68.188  1.00  0.00    -0.191 A  
HETATM   18  C   UNL     1      -7.386  17.295  68.613  1.00  0.00    -0.238 A  
HETATM   19  C   UNL     1      -7.121  18.537  68.025  1.00  0.00    -0.246 A  
HETATM   20 CL   UNL     1      -6.333  16.794  69.898  1.00  0.00    -0.169 Cl 
HETATM   21  C   UNL     1      -7.934  19.007  67.004  1.00  0.00    -0.269 A  
HETATM   22  C   UNL     1      -9.052  18.268  66.632  1.00  0.00    -0.294 A  
HETATM   23  C   UNL     1      -9.332  17.023  67.225  1.00  0.00    -0.237 A  
HETATM   24 CL   UNL     1     -10.745  16.239  66.606  1.00  0.00    -0.252 Cl 
ENDBRANCH  15  17
ENDBRANCH  14  15
ENDBRANCH   8   9
ENDBRANCH   6   8
ENDBRANCH   5   6
ENDBRANCH   4   5
TORSDOF 6
ENDMDL
MODEL      304
REMARK 921   NORMALIZED FREE ENERGY PREDICTED BY IDOCK:   -4.03 KCAL/MOL
REMARK 922        TOTAL FREE ENERGY PREDICTED BY IDOCK:   -6.41 KCAL/MOL
REMARK 923 INTER-LIGAND FREE ENERGY PREDICTED BY IDOCK:   -5.88 KCAL/MOL
REMARK 924 INTRA-LIGAND FREE ENERGY PREDICTED BY IDOCK:   -0.53 KCAL/MOL
REMARK 927      BINDING AFFINITY PREDICTED BY RF-SCORE:    0.00 PKD
ROOT
HETATM    1  O   UNL     1     -11.842  15.149  71.560  1.00  0.00    -0.322 OA 
HETATM    2  C   UNL     1     -11.100  15.188  70.426  1.00  0.00    -0.260 C  
HETATM    3  O   UNL     1      -9.879  15.221  70.452  1.00  0.00    -0.029 OA 
HETATM    4  C   UNL     1     -11.947  15.186  69.159  1.00  0.00    -0.274 C  
ENDROOT
BRANCH   4   5
HETATM    5  O   UNL     1     -11.116  15.297  67.996  1.00  0.00    -0.288 OA 
BRANCH   5   6
HETATM    6  C   UNL     1     -11.454  14.510  66.941  1.00  0.00    -0.364 C  
HETATM    7  O   UNL     1     -12.581  14.381  66.492  1.00  0.00    -0.301 OA 
BRANCH   6   8
HETATM    8  C   UNL     1     -10.223  13.804  66.401  1.00  0.00    -0.292 C  
BRANCH   8   9
HETATM    9  C   UNL     1      -9.014  13.897  67.303  1.00  0.00    -0.225 A  
HETATM   10  C   UNL     1      -8.747  12.794  68.141  1.00  0.00    -0.193 A  
HETATM   11  C   UNL     1      -7.637  12.780  68.983  1.00  0.00     0.149 A  
HETATM   12  C   UNL     1      -6.752  13.848  68.975  1.00  0.00    -0.110 A  
HETATM   13  C   UNL     1      -7.015  14.958  68.171  1.00  0.00    -0.132 A  
HETATM   14  C   UNL     1      -8.166  15.025  67.372  1.00  0.00    -0.194 A  
BRANCH  14  15
HETATM   15  N   UNL     1      -8.479  16.238  66.719  1.00  0.00    -0.219 NA 
HETATM   16  H   UNL     1      -8.409  16.193  65.703  1.00  0.00     0.000 HD 
BRANCH  15  17
HETATM   17  C   UNL     1      -8.873  17.514  67.222  1.00  0.00    -0.231 A  
HETATM   18  C   UNL     1     -10.077  18.068  66.717  1.00  0.00    -0.356 A  
HETATM   19  C   UNL     1     -10.658  19.217  67.267  1.00  0.00    -0.590 A  
HETATM   20 CL   UNL     1     -10.902  17.336  65.376  1.00  0.00    -0.166 Cl 
HETATM   21  C   UNL     1     -10.042  19.863  68.329  1.00  0.00    -0.571 A  
HETATM   22  C   UNL     1      -8.811  19.402  68.782  1.00  0.00    -0.385 A  
HETATM   23  C   UNL     1      -8.215  18.254  68.228  1.00  0.00    -0.298 A  
HETATM   24 CL   UNL     1      -6.703  17.818  68.948  1.00  0.00    -0.228 Cl 
ENDBRANCH  15  17
ENDBRANCH  14  15
ENDBRANCH   8   9
ENDBRANCH   6   8
ENDBRANCH   5   6
ENDBRANCH   4   5
TORSDOF 6
ENDMDL
MODEL      305
REMARK 921   NORMALIZED FREE ENERGY PREDICTED BY IDOCK:   -4.01 KCAL/MOL
REMARK 922        TOTAL FREE ENERGY PREDICTED BY IDOCK:   -6.38 KCAL/MOL
REMARK 923 INTER-LIGAND FREE ENERGY PREDICTED BY IDOCK:   -5.21 KCAL/MOL
REMARK 924 INTRA-LIGAND FREE ENERGY PREDICTED BY IDOCK:   -1.17 KCAL/MOL
REMARK 927      BINDING AFFINITY PREDICTED BY RF-SCORE:    0.00 PKD
ROOT
HETATM    1  O   UNL     1     -14.073   6.769  71.703  1.00  0.00    -0.225 OA 
HETATM    2  C   UNL     1     -12.811   7.147  71.381  1.00  0.00    -0.384 C  
HETATM    3  O   UNL     1     -12.228   6.694  70.409  1.00  0.00    -0.332 OA 
HETATM    4  C   UNL     1     -12.231   8.171  72.350  1.00  0.00    -0.319 C  
ENDROOT
BRANCH   4   5
HETATM    5  O   UNL     1     -10.875   8.482  72.004  1.00  0.00    -0.286 OA 
BRANCH   5   6
HETATM    6  C   UNL     1     -10.693   9.583  71.228  1.00  0.00    -0.316 C  
HETATM    7  O   UNL     1     -11.462  10.528  71.157  1.00  0.00    -0.257 OA 
BRANCH   6   8
HETATM    8  C   UNL     1      -9.393   9.467  70.454  1.00  0.00    -0.317 C  
BRANCH   8   9
HETATM    9  C   UNL     1      -9.513   8.694  69.161  1.00  0.00    -0.157 A  
HETATM   10  C   UNL     1      -9.037   7.367  69.155  1.00  0.00    -0.134 A  
HETATM   11  C   UNL     1      -9.135   6.570  68.017  1.00  0.00    -0.114 A  
HETATM   12  C   UNL     1      -9.746   7.069  66.876  1.00  0.00    -0.228 A  
HETATM   13  C   UNL     1     -10.200   8.389  66.857  1.00  0.00    -0.383 A  
HETATM   14  C   UNL     1     -10.044   9.232  67.967  1.00  0.00    -0.193 A  
BRANCH  14  15
HETATM   15  N   UNL     1     -10.353  10.604  67.836  1.00  0.00    -0.189 NA 
HETATM   16  H   UNL     1     -11.342  10.793  67.674  1.00  0.00     0.000 HD 
BRANCH  15  17
HETATM   17  C   UNL     1      -9.536  11.772  67.889  1.00  0.00    -0.187 A  
HETATM   18  C   UNL     1     -10.079  12.918  68.525  1.00  0.00    -0.189 A  
HETATM   19  C   UNL     1      -9.309  14.054  68.801  1.00  0.00    -0.059 A  
HETATM   20 CL   UNL     1     -11.748  12.966  69.001  1.00  0.00    -0.355 Cl 
HETATM   21  C   UNL     1      -7.973  14.090  68.432  1.00  0.00    -0.143 A  
HETATM   22  C   UNL     1      -7.436  13.023  67.720  1.00  0.00    -0.146 A  
HETATM   23  C   UNL     1      -8.206  11.881  67.428  1.00  0.00    -0.164 A  
HETATM   24 CL   UNL     1      -7.354  10.647  66.566  1.00  0.00    -0.127 Cl 
ENDBRANCH  15  17
ENDBRANCH  14  15
ENDBRANCH   8   9
ENDBRANCH   6   8
ENDBRANCH   5   6
ENDBRANCH   4   5
TORSDOF 6
ENDMDL
MODEL      306
REMARK 921   NORMALIZED FREE ENERGY PREDICTED BY IDOCK:   -4.00 KCAL/MOL
REMARK 922        TOTAL FREE ENERGY PREDICTED BY IDOCK:   -6.37 KCAL/MOL
REMARK 923 INTER-LIGAND FREE ENERGY PREDICTED BY IDOCK:   -5.42 KCAL/MOL
REMARK 924 INTRA-LIGAND FREE ENERGY PREDICTED BY IDOCK:   -0.94 KCAL/MOL
REMARK 927      BINDING AFFINITY PREDICTED BY RF-SCORE:    0.00 PKD
ROOT
HETATM    1  O   UNL     1     -12.813  11.127  70.457  1.00  0.00    -0.235 OA 
HETATM    2  C   UNL     1     -11.859  11.897  69.878  1.00  0.00    -0.343 C  
HETATM    3  O   UNL     1     -10.851  11.416  69.384  1.00  0.00    -0.226 OA 
HETATM    4  C   UNL     1     -12.188  13.385  69.919  1.00  0.00    -0.271 C  
ENDROOT
BRANCH   4   5
HETATM    5  O   UNL     1     -11.117  14.154  69.356  1.00  0.00    -0.251 OA 
BRANCH   5   6
HETATM    6  C   UNL     1     -10.706  15.228  70.080  1.00  0.00    -0.279 C  
HETATM    7  O   UNL     1     -11.044  15.475  71.226  1.00  0.00    -0.355 OA 
BRANCH   6   8
HETATM    8  C   UNL     1      -9.766  16.086  69.253  1.00  0.00    -0.257 C  
BRANCH   8   9
HETATM    9  C   UNL     1      -8.470  15.401  68.885  1.00  0.00    -0.205 A  
HETATM   10  C   UNL     1      -7.717  14.836  69.935  1.00  0.00     0.173 A  
HETATM   11  C   UNL     1      -6.526  14.159  69.685  1.00  0.00    -0.134 A  
HETATM   12  C   UNL     1      -6.085  13.997  68.379  1.00  0.00    -0.100 A  
HETATM   13  C   UNL     1      -6.805  14.572  67.331  1.00  0.00    -0.067 A  
HETATM   14  C   UNL     1      -7.967  15.321  67.567  1.00  0.00    -0.176 A  
BRANCH  14  15
HETATM   15  N   UNL     1      -8.555  16.030  66.496  1.00  0.00    -0.280 NA 
HETATM   16  H   UNL     1      -8.762  15.455  65.680  1.00  0.00     0.000 HD 
BRANCH  15  17
HETATM   17  C   UNL     1      -8.914  17.404  66.348  1.00  0.00    -0.246 A  
HETATM   18  C   UNL     1     -10.203  17.688  65.831  1.00  0.00    -0.232 A  
HETATM   19  C   UNL     1     -10.733  18.983  65.816  1.00  0.00    -0.350 A  
HETATM   20 CL   UNL     1     -11.203  16.423  65.187  1.00  0.00    -0.151 Cl 
HETATM   21  C   UNL     1      -9.980  20.044  66.300  1.00  0.00    -0.597 A  
HETATM   22  C   UNL     1      -8.675  19.814  66.722  1.00  0.00    -0.394 A  
HETATM   23  C   UNL     1      -8.131  18.515  66.730  1.00  0.00    -0.254 A  
HETATM   24 CL   UNL     1      -6.508  18.426  67.322  1.00  0.00    -0.192 Cl 
ENDBRANCH  15  17
ENDBRANCH  14  15
ENDBRANCH   8   9
ENDBRANCH   6   8
ENDBRANCH   5   6
ENDBRANCH   4   5
TORSDOF 6
ENDMDL
MODEL      307
REMARK 921   NORMALIZED FREE ENERGY PREDICTED BY IDOCK:   -4.00 KCAL/MOL
REMARK 922        TOTAL FREE ENERGY PREDICTED BY IDOCK:   -6.36 KCAL/MOL
REMARK 923 INTER-LIGAND FREE ENERGY PREDICTED BY IDOCK:   -5.54 KCAL/MOL
REMARK 924 INTRA-LIGAND FREE ENERGY PREDICTED BY IDOCK:   -0.82 KCAL/MOL
REMARK 927      BINDING AFFINITY PREDICTED BY RF-SCORE:    0.00 PKD
ROOT
HETATM    1  O   UNL     1      -7.983  16.542  67.533  1.00  0.00    -0.151 OA 
HETATM    2  C   UNL     1      -8.990  15.839  68.106  1.00  0.00    -0.180 C  
HETATM    3  O   UNL     1      -9.692  16.314  68.985  1.00  0.00    -0.231 OA 
HETATM    4  C   UNL     1      -9.132  14.431  67.539  1.00  0.00    -0.195 C  
ENDROOT
BRANCH   4   5
HETATM    5  O   UNL     1     -10.164  13.712  68.227  1.00  0.00    -0.231 OA 
BRANCH   5   6
HETATM    6  C   UNL     1     -11.336  13.558  67.557  1.00  0.00    -0.308 C  
HETATM    7  O   UNL     1     -12.088  14.465  67.237  1.00  0.00    -0.406 OA 
BRANCH   6   8
HETATM    8  C   UNL     1     -11.582  12.089  67.265  1.00  0.00    -0.383 C  
BRANCH   8   9
HETATM    9  C   UNL     1     -11.064  11.633  65.920  1.00  0.00    -0.320 A  
HETATM   10  C   UNL     1     -11.544  12.309  64.780  1.00  0.00    -0.393 A  
HETATM   11  C   UNL     1     -11.098  11.976  63.503  1.00  0.00    -0.519 A  
HETATM   12  C   UNL     1     -10.135  10.991  63.344  1.00  0.00    -0.424 A  
HETATM   13  C   UNL     1      -9.668  10.294  64.460  1.00  0.00    -0.395 A  
HETATM   14  C   UNL     1     -10.158  10.562  65.746  1.00  0.00    -0.265 A  
BRANCH  14  15
HETATM   15  N   UNL     1      -9.789   9.712  66.812  1.00  0.00    -0.198 NA 
HETATM   16  H   UNL     1     -10.095  10.038  67.729  1.00  0.00     0.000 HD 
BRANCH  15  17
HETATM   17  C   UNL     1      -9.067   8.481  66.841  1.00  0.00    -0.146 A  
HETATM   18  C   UNL     1      -7.651   8.558  66.848  1.00  0.00    -0.091 A  
HETATM   19  C   UNL     1      -6.845   7.434  67.063  1.00  0.00    -0.074 A  
HETATM   20 CL   UNL     1      -6.839  10.070  66.593  1.00  0.00    -0.080 Cl 
HETATM   21  C   UNL     1      -7.428   6.190  67.256  1.00  0.00    -0.081 A  
HETATM   22  C   UNL     1      -8.809   6.065  67.156  1.00  0.00    -0.108 A  
HETATM   23  C   UNL     1      -9.627   7.188  66.930  1.00  0.00    -0.168 A  
HETATM   24 CL   UNL     1     -11.320   6.837  66.873  1.00  0.00    -0.197 Cl 
ENDBRANCH  15  17
ENDBRANCH  14  15
ENDBRANCH   8   9
ENDBRANCH   6   8
ENDBRANCH   5   6
ENDBRANCH   4   5
TORSDOF 6
ENDMDL
MODEL      308
REMARK 921   NORMALIZED FREE ENERGY PREDICTED BY IDOCK:   -3.99 KCAL/MOL
REMARK 922        TOTAL FREE ENERGY PREDICTED BY IDOCK:   -6.35 KCAL/MOL
REMARK 923 INTER-LIGAND FREE ENERGY PREDICTED BY IDOCK:   -5.40 KCAL/MOL
REMARK 924 INTRA-LIGAND FREE ENERGY PREDICTED BY IDOCK:   -0.95 KCAL/MOL
REMARK 927      BINDING AFFINITY PREDICTED BY RF-SCORE:    0.00 PKD
ROOT
HETATM    1  O   UNL     1      -8.922   9.652  63.288  1.00  0.00    -0.239 OA 
HETATM    2  C   UNL     1      -8.471   9.799  64.558  1.00  0.00    -0.176 C  
HETATM    3  O   UNL     1      -7.464  10.437  64.818  1.00  0.00    -0.130 OA 
HETATM    4  C   UNL     1      -9.348   9.091  65.586  1.00  0.00    -0.222 C  
ENDROOT
BRANCH   4   5
HETATM    5  O   UNL     1      -8.789   9.221  66.900  1.00  0.00    -0.125 OA 
BRANCH   5   6
HETATM    6  C   UNL     1      -9.646   9.029  67.937  1.00  0.00    -0.147 C  
HETATM    7  O   UNL     1     -10.509   8.167  67.987  1.00  0.00    -0.216 OA 
BRANCH   6   8
HETATM    8  C   UNL     1      -9.381  10.050  69.029  1.00  0.00    -0.183 C  
BRANCH   8   9
HETATM    9  C   UNL     1     -10.522  10.215  70.007  1.00  0.00    -0.325 A  
HETATM   10  C   UNL     1     -11.432  11.265  69.766  1.00  0.00    -0.386 A  
HETATM   11  C   UNL     1     -12.530  11.472  70.598  1.00  0.00    -0.405 A  
HETATM   12  C   UNL     1     -12.762  10.612  71.661  1.00  0.00    -0.531 A  
HETATM   13  C   UNL     1     -11.857   9.584  71.929  1.00  0.00    -0.349 A  
HETATM   14  C   UNL     1     -10.705   9.403  71.149  1.00  0.00    -0.347 A  
BRANCH  14  15
HETATM   15  N   UNL     1      -9.733   8.467  71.567  1.00  0.00    -0.209 NA 
HETATM   16  H   UNL     1      -9.044   8.846  72.217  1.00  0.00     0.000 HD 
BRANCH  15  17
HETATM   17  C   UNL     1      -9.538   7.091  71.245  1.00  0.00    -0.164 A  
HETATM   18  C   UNL     1      -8.253   6.706  70.784  1.00  0.00    -0.121 A  
HETATM   19  C   UNL     1      -7.892   5.363  70.618  1.00  0.00    -0.090 A  
HETATM   20 CL   UNL     1      -7.050   7.896  70.403  1.00  0.00    -0.046 Cl 
HETATM   21  C   UNL     1      -8.811   4.361  70.888  1.00  0.00    -0.146 A  
HETATM   22  C   UNL     1     -10.109   4.708  71.247  1.00  0.00    -0.245 A  
HETATM   23  C   UNL     1     -10.485   6.055  71.406  1.00  0.00    -0.231 A  
HETATM   24 CL   UNL     1     -12.130   6.285  71.889  1.00  0.00    -0.367 Cl 
ENDBRANCH  15  17
ENDBRANCH  14  15
ENDBRANCH   8   9
ENDBRANCH   6   8
ENDBRANCH   5   6
ENDBRANCH   4   5
TORSDOF 6
ENDMDL
MODEL      309
REMARK 921   NORMALIZED FREE ENERGY PREDICTED BY IDOCK:   -3.99 KCAL/MOL
REMARK 922        TOTAL FREE ENERGY PREDICTED BY IDOCK:   -6.35 KCAL/MOL
REMARK 923 INTER-LIGAND FREE ENERGY PREDICTED BY IDOCK:   -5.38 KCAL/MOL
REMARK 924 INTRA-LIGAND FREE ENERGY PREDICTED BY IDOCK:   -0.97 KCAL/MOL
REMARK 927      BINDING AFFINITY PREDICTED BY RF-SCORE:    0.00 PKD
ROOT
HETATM    1  O   UNL     1     -10.282   4.811  67.315  1.00  0.00    -0.171 OA 
HETATM    2  C   UNL     1     -10.172   6.119  66.979  1.00  0.00    -0.202 C  
HETATM    3  O   UNL     1     -11.071   6.919  67.188  1.00  0.00    -0.370 OA 
HETATM    4  C   UNL     1      -8.834   6.458  66.332  1.00  0.00    -0.141 C  
ENDROOT
BRANCH   4   5
HETATM    5  O   UNL     1      -8.799   7.835  65.936  1.00  0.00    -0.167 OA 
BRANCH   5   6
HETATM    6  C   UNL     1      -8.202   8.102  64.746  1.00  0.00    -0.133 C  
HETATM    7  O   UNL     1      -7.764   7.263  63.975  1.00  0.00    -0.110 OA 
BRANCH   6   8
HETATM    8  C   UNL     1      -8.151   9.600  64.510  1.00  0.00    -0.143 C  
BRANCH   8   9
HETATM    9  C   UNL     1      -7.704  10.398  65.714  1.00  0.00    -0.146 A  
HETATM   10  C   UNL     1      -6.328  10.384  66.024  1.00  0.00    -0.111 A  
HETATM   11  C   UNL     1      -5.823  11.115  67.097  1.00  0.00    -0.072 A  
HETATM   12  C   UNL     1      -6.675  11.904  67.855  1.00  0.00    -0.079 A  
HETATM   13  C   UNL     1      -8.043  11.909  67.578  1.00  0.00    -0.156 A  
HETATM   14  C   UNL     1      -8.583  11.123  66.550  1.00  0.00    -0.169 A  
BRANCH  14  15
HETATM   15  N   UNL     1      -9.986  11.023  66.427  1.00  0.00    -0.214 NA 
HETATM   16  H   UNL     1     -10.371  10.137  66.753  1.00  0.00     0.000 HD 
BRANCH  15  17
HETATM   17  C   UNL     1     -10.964  11.936  65.930  1.00  0.00    -0.307 A  
HETATM   18  C   UNL     1     -11.673  12.713  66.882  1.00  0.00    -0.383 A  
HETATM   19  C   UNL     1     -12.516  13.766  66.507  1.00  0.00    -0.356 A  
HETATM   20 CL   UNL     1     -11.525  12.392  68.581  1.00  0.00    -0.316 Cl 
HETATM   21  C   UNL     1     -12.693  14.066  65.164  1.00  0.00    -0.419 A  
HETATM   22  C   UNL     1     -12.090  13.261  64.203  1.00  0.00    -0.494 A  
HETATM   23  C   UNL     1     -11.250  12.193  64.571  1.00  0.00    -0.331 A  
HETATM   24 CL   UNL     1     -10.565  11.333  63.236  1.00  0.00    -0.385 Cl 
ENDBRANCH  15  17
ENDBRANCH  14  15
ENDBRANCH   8   9
ENDBRANCH   6   8
ENDBRANCH   5   6
ENDBRANCH   4   5
TORSDOF 6
ENDMDL
MODEL      310
REMARK 921   NORMALIZED FREE ENERGY PREDICTED BY IDOCK:   -3.98 KCAL/MOL
REMARK 922        TOTAL FREE ENERGY PREDICTED BY IDOCK:   -6.34 KCAL/MOL
REMARK 923 INTER-LIGAND FREE ENERGY PREDICTED BY IDOCK:   -5.06 KCAL/MOL
REMARK 924 INTRA-LIGAND FREE ENERGY PREDICTED BY IDOCK:   -1.28 KCAL/MOL
REMARK 927      BINDING AFFINITY PREDICTED BY RF-SCORE:    0.00 PKD
ROOT
HETATM    1  O   UNL     1      -9.880   4.262  68.805  1.00  0.00    -0.140 OA 
HETATM    2  C   UNL     1     -10.247   5.472  68.318  1.00  0.00    -0.178 C  
HETATM    3  O   UNL     1     -11.232   6.064  68.728  1.00  0.00    -0.331 OA 
HETATM    4  C   UNL     1      -9.309   5.985  67.230  1.00  0.00    -0.113 C  
ENDROOT
BRANCH   4   5
HETATM    5  O   UNL     1      -9.781   7.232  66.703  1.00  0.00    -0.191 OA 
BRANCH   5   6
HETATM    6  C   UNL     1      -9.029   7.789  65.719  1.00  0.00    -0.066 C  
HETATM    7  O   UNL     1      -8.221   7.191  65.026  1.00  0.00    -0.134 OA 
BRANCH   6   8
HETATM    8  C   UNL     1      -9.332   9.272  65.605  1.00  0.00    -0.308 C  
BRANCH   8   9
HETATM    9  C   UNL     1      -8.591  10.130  66.605  1.00  0.00    -0.130 A  
HETATM   10  C   UNL     1      -7.400  10.747  66.170  1.00  0.00    -0.127 A  
HETATM   11  C   UNL     1      -6.669  11.579  67.014  1.00  0.00    -0.143 A  
HETATM   12  C   UNL     1      -7.134  11.844  68.294  1.00  0.00    -0.081 A  
HETATM   13  C   UNL     1      -8.297  11.221  68.749  1.00  0.00    -0.120 A  
HETATM   14  C   UNL     1      -9.008  10.321  67.942  1.00  0.00    -0.131 A  
BRANCH  14  15
HETATM   15  N   UNL     1     -10.071   9.583  68.508  1.00  0.00    -0.171 NA 
HETATM   16  H   UNL     1     -10.378   8.794  67.940  1.00  0.00     0.000 HD 
BRANCH  15  17
HETATM   17  C   UNL     1     -10.794   9.740  69.729  1.00  0.00    -0.257 A  
HETATM   18  C   UNL     1     -11.795  10.744  69.767  1.00  0.00    -0.335 A  
HETATM   19  C   UNL     1     -12.688  10.866  70.838  1.00  0.00    -0.464 A  
HETATM   20 CL   UNL     1     -11.964  11.884  68.469  1.00  0.00    -0.348 Cl 
HETATM   21  C   UNL     1     -12.598   9.999  71.917  1.00  0.00    -0.454 A  
HETATM   22  C   UNL     1     -11.566   9.068  71.955  1.00  0.00    -0.441 A  
HETATM   23  C   UNL     1     -10.656   8.946  70.888  1.00  0.00    -0.233 A  
HETATM   24 CL   UNL     1      -9.466   7.708  71.103  1.00  0.00    -0.159 Cl 
ENDBRANCH  15  17
ENDBRANCH  14  15
ENDBRANCH   8   9
ENDBRANCH   6   8
ENDBRANCH   5   6
ENDBRANCH   4   5
TORSDOF 6
ENDMDL
MODEL      311
REMARK 921   NORMALIZED FREE ENERGY PREDICTED BY IDOCK:   -3.97 KCAL/MOL
REMARK 922        TOTAL FREE ENERGY PREDICTED BY IDOCK:   -6.32 KCAL/MOL
REMARK 923 INTER-LIGAND FREE ENERGY PREDICTED BY IDOCK:   -5.27 KCAL/MOL
REMARK 924 INTRA-LIGAND FREE ENERGY PREDICTED BY IDOCK:   -1.05 KCAL/MOL
REMARK 927      BINDING AFFINITY PREDICTED BY RF-SCORE:    0.00 PKD
ROOT
HETATM    1  O   UNL     1      -9.302  16.390  66.930  1.00  0.00    -0.215 OA 
HETATM    2  C   UNL     1     -10.303  15.747  67.579  1.00  0.00    -0.280 C  
HETATM    3  O   UNL     1     -10.599  16.007  68.734  1.00  0.00    -0.236 OA 
HETATM    4  C   UNL     1     -10.989  14.693  66.717  1.00  0.00    -0.323 C  
ENDROOT
BRANCH   4   5
HETATM    5  O   UNL     1     -11.991  13.998  67.472  1.00  0.00    -0.386 OA 
BRANCH   5   6
HETATM    6  C   UNL     1     -11.744  12.687  67.730  1.00  0.00    -0.356 C  
HETATM    7  O   UNL     1     -12.356  12.000  68.533  1.00  0.00    -0.246 OA 
BRANCH   6   8
HETATM    8  C   UNL     1     -10.588  12.196  66.878  1.00  0.00    -0.257 C  
BRANCH   8   9
HETATM    9  C   UNL     1      -9.376  11.767  67.673  1.00  0.00    -0.180 A  
HETATM   10  C   UNL     1      -8.229  12.583  67.593  1.00  0.00    -0.172 A  
HETATM   11  C   UNL     1      -7.077  12.281  68.316  1.00  0.00    -0.093 A  
HETATM   12  C   UNL     1      -7.062  11.183  69.163  1.00  0.00    -0.116 A  
HETATM   13  C   UNL     1      -8.180  10.350  69.234  1.00  0.00    -0.163 A  
HETATM   14  C   UNL     1      -9.323  10.593  68.459  1.00  0.00    -0.170 A  
BRANCH  14  15
HETATM   15  N   UNL     1     -10.352   9.626  68.431  1.00  0.00    -0.195 NA 
HETATM   16  H   UNL     1     -11.222   9.956  68.013  1.00  0.00     0.000 HD 
BRANCH  15  17
HETATM   17  C   UNL     1     -10.397   8.272  68.880  1.00  0.00    -0.215 A  
HETATM   18  C   UNL     1     -11.166   7.997  70.040  1.00  0.00    -0.090 A  
HETATM   19  C   UNL     1     -11.435   6.691  70.465  1.00  0.00    -0.432 A  
HETATM   20 CL   UNL     1     -11.821   9.286  71.001  1.00  0.00    -0.354 Cl 
HETATM   21  C   UNL     1     -10.927   5.614  69.753  1.00  0.00    -0.301 A  
HETATM   22  C   UNL     1     -10.089   5.851  68.669  1.00  0.00    -0.213 A  
HETATM   23  C   UNL     1      -9.804   7.161  68.242  1.00  0.00    -0.151 A  
HETATM   24 CL   UNL     1      -8.772   7.251  66.857  1.00  0.00    -0.122 Cl 
ENDBRANCH  15  17
ENDBRANCH  14  15
ENDBRANCH   8   9
ENDBRANCH   6   8
ENDBRANCH   5   6
ENDBRANCH   4   5
TORSDOF 6
ENDMDL
MODEL      312
REMARK 921   NORMALIZED FREE ENERGY PREDICTED BY IDOCK:   -3.96 KCAL/MOL
REMARK 922        TOTAL FREE ENERGY PREDICTED BY IDOCK:   -6.31 KCAL/MOL
REMARK 923 INTER-LIGAND FREE ENERGY PREDICTED BY IDOCK:   -5.13 KCAL/MOL
REMARK 924 INTRA-LIGAND FREE ENERGY PREDICTED BY IDOCK:   -1.18 KCAL/MOL
REMARK 927      BINDING AFFINITY PREDICTED BY RF-SCORE:    0.00 PKD
ROOT
HETATM    1  O   UNL     1     -13.300   8.717  71.496  1.00  0.00    -0.336 OA 
HETATM    2  C   UNL     1     -12.306   9.635  71.411  1.00  0.00    -0.378 C  
HETATM    3  O   UNL     1     -11.279   9.540  72.065  1.00  0.00    -0.207 OA 
HETATM    4  C   UNL     1     -12.620  10.762  70.434  1.00  0.00    -0.314 C  
ENDROOT
BRANCH   4   5
HETATM    5  O   UNL     1     -11.569  11.737  70.435  1.00  0.00    -0.237 OA 
BRANCH   5   6
HETATM    6  C   UNL     1     -11.174  12.194  69.217  1.00  0.00    -0.226 C  
HETATM    7  O   UNL     1     -10.281  13.003  69.025  1.00  0.00    -0.057 OA 
BRANCH   6   8
HETATM    8  C   UNL     1     -12.011  11.555  68.124  1.00  0.00    -0.206 C  
BRANCH   8   9
HETATM    9  C   UNL     1     -11.199  10.900  67.030  1.00  0.00    -0.211 A  
HETATM   10  C   UNL     1     -11.243  11.491  65.751  1.00  0.00    -0.228 A  
HETATM   11  C   UNL     1     -10.502  10.973  64.691  1.00  0.00    -0.398 A  
HETATM   12  C   UNL     1      -9.673   9.880  64.898  1.00  0.00    -0.332 A  
HETATM   13  C   UNL     1      -9.638   9.268  66.152  1.00  0.00    -0.327 A  
HETATM   14  C   UNL     1     -10.432   9.727  67.212  1.00  0.00    -0.261 A  
BRANCH  14  15
HETATM   15  N   UNL     1     -10.496   8.967  68.401  1.00  0.00    -0.285 NA 
HETATM   16  H   UNL     1     -11.063   9.390  69.135  1.00  0.00     0.000 HD 
BRANCH  15  17
HETATM   17  C   UNL     1      -9.913   7.716  68.763  1.00  0.00    -0.174 A  
HETATM   18  C   UNL     1      -8.889   7.735  69.744  1.00  0.00    -0.139 A  
HETATM   19  C   UNL     1      -8.376   6.562  70.310  1.00  0.00    -0.127 A  
HETATM   20 CL   UNL     1      -8.215   9.235  70.299  1.00  0.00    -0.161 Cl 
HETATM   21  C   UNL     1      -8.857   5.327  69.898  1.00  0.00    -0.132 A  
HETATM   22  C   UNL     1      -9.790   5.271  68.869  1.00  0.00    -0.230 A  
HETATM   23  C   UNL     1     -10.302   6.445  68.286  1.00  0.00    -0.191 A  
HETATM   24 CL   UNL     1     -11.478   6.171  67.047  1.00  0.00     0.027 Cl 
ENDBRANCH  15  17
ENDBRANCH  14  15
ENDBRANCH   8   9
ENDBRANCH   6   8
ENDBRANCH   5   6
ENDBRANCH   4   5
TORSDOF 6
ENDMDL
MODEL      313
REMARK 921   NORMALIZED FREE ENERGY PREDICTED BY IDOCK:   -3.96 KCAL/MOL
REMARK 922        TOTAL FREE ENERGY PREDICTED BY IDOCK:   -6.31 KCAL/MOL
REMARK 923 INTER-LIGAND FREE ENERGY PREDICTED BY IDOCK:   -6.36 KCAL/MOL
REMARK 924 INTRA-LIGAND FREE ENERGY PREDICTED BY IDOCK:    0.06 KCAL/MOL
REMARK 927      BINDING AFFINITY PREDICTED BY RF-SCORE:    0.00 PKD
ROOT
HETATM    1  O   UNL     1     -14.408  12.856  72.702  1.00  0.00    -0.471 OA 
HETATM    2  C   UNL     1     -13.437  13.792  72.573  1.00  0.00    -0.578 C  
HETATM    3  O   UNL     1     -13.327  14.723  73.356  1.00  0.00    -0.555 OA 
HETATM    4  C   UNL     1     -12.530  13.548  71.372  1.00  0.00    -0.255 C  
ENDROOT
BRANCH   4   5
HETATM    5  O   UNL     1     -11.567  14.603  71.245  1.00  0.00    -0.301 OA 
BRANCH   5   6
HETATM    6  C   UNL     1     -11.783  15.493  70.242  1.00  0.00    -0.346 C  
HETATM    7  O   UNL     1     -12.806  16.138  70.082  1.00  0.00    -0.069 OA 
BRANCH   6   8
HETATM    8  C   UNL     1     -10.565  15.567  69.338  1.00  0.00    -0.250 C  
BRANCH   8   9
HETATM    9  C   UNL     1     -10.531  14.506  68.263  1.00  0.00    -0.242 A  
HETATM   10  C   UNL     1     -11.758  13.914  67.900  1.00  0.00    -0.396 A  
HETATM   11  C   UNL     1     -11.825  12.949  66.897  1.00  0.00    -0.444 A  
HETATM   12  C   UNL     1     -10.675  12.588  66.211  1.00  0.00    -0.288 A  
HETATM   13  C   UNL     1      -9.448  13.145  66.574  1.00  0.00    -0.246 A  
HETATM   14  C   UNL     1      -9.347  14.062  67.631  1.00  0.00    -0.203 A  
BRANCH  14  15
HETATM   15  N   UNL     1      -8.066  14.458  68.076  1.00  0.00    -0.131 NA 
HETATM   16  H   UNL     1      -7.486  13.689  68.409  1.00  0.00     0.000 HD 
BRANCH  15  17
HETATM   17  C   UNL     1      -7.437  15.737  68.145  1.00  0.00    -0.124 A  
HETATM   18  C   UNL     1      -7.898  16.738  67.252  1.00  0.00    -0.173 A  
HETATM   19  C   UNL     1      -7.489  18.073  67.352  1.00  0.00    -0.212 A  
HETATM   20 CL   UNL     1      -9.008  16.350  65.975  1.00  0.00    -0.353 Cl 
HETATM   21  C   UNL     1      -6.589  18.449  68.339  1.00  0.00    -0.227 A  
HETATM   22  C   UNL     1      -6.043  17.474  69.167  1.00  0.00    -0.218 A  
HETATM   23  C   UNL     1      -6.440  16.127  69.066  1.00  0.00    -0.154 A  
HETATM   24 CL   UNL     1      -5.678  15.072  70.204  1.00  0.00    -0.126 Cl 
ENDBRANCH  15  17
ENDBRANCH  14  15
ENDBRANCH   8   9
ENDBRANCH   6   8
ENDBRANCH   5   6
ENDBRANCH   4   5
TORSDOF 6
ENDMDL
MODEL      314
REMARK 921   NORMALIZED FREE ENERGY PREDICTED BY IDOCK:   -3.95 KCAL/MOL
REMARK 922        TOTAL FREE ENERGY PREDICTED BY IDOCK:   -6.30 KCAL/MOL
REMARK 923 INTER-LIGAND FREE ENERGY PREDICTED BY IDOCK:   -5.36 KCAL/MOL
REMARK 924 INTRA-LIGAND FREE ENERGY PREDICTED BY IDOCK:   -0.94 KCAL/MOL
REMARK 927      BINDING AFFINITY PREDICTED BY RF-SCORE:    0.00 PKD
ROOT
HETATM    1  O   UNL     1     -10.731  16.887  68.819  1.00  0.00    -0.330 OA 
HETATM    2  C   UNL     1     -11.010  15.726  69.461  1.00  0.00    -0.295 C  
HETATM    3  O   UNL     1     -10.664  15.525  70.614  1.00  0.00    -0.325 OA 
HETATM    4  C   UNL     1     -11.782  14.738  68.594  1.00  0.00    -0.325 C  
ENDROOT
BRANCH   4   5
HETATM    5  O   UNL     1     -11.989  13.505  69.297  1.00  0.00    -0.315 OA 
BRANCH   5   6
HETATM    6  C   UNL     1     -11.742  12.368  68.597  1.00  0.00    -0.326 C  
HETATM    7  O   UNL     1     -12.372  11.327  68.699  1.00  0.00    -0.534 OA 
BRANCH   6   8
HETATM    8  C   UNL     1     -10.559  12.573  67.667  1.00  0.00    -0.234 C  
BRANCH   8   9
HETATM    9  C   UNL     1      -9.984  11.291  67.111  1.00  0.00    -0.219 A  
HETATM   10  C   UNL     1     -10.362  10.928  65.802  1.00  0.00    -0.303 A  
HETATM   11  C   UNL     1      -9.857   9.779  65.197  1.00  0.00    -0.294 A  
HETATM   12  C   UNL     1      -8.934   8.994  65.872  1.00  0.00    -0.233 A  
HETATM   13  C   UNL     1      -8.568   9.325  67.178  1.00  0.00    -0.130 A  
HETATM   14  C   UNL     1      -9.121  10.435  67.832  1.00  0.00    -0.132 A  
BRANCH  14  15
HETATM   15  N   UNL     1      -8.858  10.623  69.207  1.00  0.00    -0.330 NA 
HETATM   16  H   UNL     1      -9.135  11.538  69.563  1.00  0.00     0.000 HD 
BRANCH  15  17
HETATM   17  C   UNL     1      -8.274   9.768  70.189  1.00  0.00    -0.179 A  
HETATM   18  C   UNL     1      -9.067   8.695  70.671  1.00  0.00    -0.171 A  
HETATM   19  C   UNL     1      -8.541   7.688  71.490  1.00  0.00    -0.126 A  
HETATM   20 CL   UNL     1     -10.749   8.575  70.261  1.00  0.00    -0.232 Cl 
HETATM   21  C   UNL     1      -7.209   7.732  71.871  1.00  0.00    -0.069 A  
HETATM   22  C   UNL     1      -6.430   8.822  71.497  1.00  0.00    -0.074 A  
HETATM   23  C   UNL     1      -6.953   9.844  70.683  1.00  0.00    -0.064 A  
HETATM   24 CL   UNL     1      -5.823  11.095  70.295  1.00  0.00    -0.122 Cl 
ENDBRANCH  15  17
ENDBRANCH  14  15
ENDBRANCH   8   9
ENDBRANCH   6   8
ENDBRANCH   5   6
ENDBRANCH   4   5
TORSDOF 6
ENDMDL
MODEL      315
REMARK 921   NORMALIZED FREE ENERGY PREDICTED BY IDOCK:   -3.95 KCAL/MOL
REMARK 922        TOTAL FREE ENERGY PREDICTED BY IDOCK:   -6.30 KCAL/MOL
REMARK 923 INTER-LIGAND FREE ENERGY PREDICTED BY IDOCK:   -5.35 KCAL/MOL
REMARK 924 INTRA-LIGAND FREE ENERGY PREDICTED BY IDOCK:   -0.95 KCAL/MOL
REMARK 927      BINDING AFFINITY PREDICTED BY RF-SCORE:    0.00 PKD
ROOT
HETATM    1  O   UNL     1      -5.341  12.540  69.494  1.00  0.00    -0.070 OA 
HETATM    2  C   UNL     1      -6.295  11.657  69.878  1.00  0.00    -0.124 C  
HETATM    3  O   UNL     1      -6.207  11.020  70.916  1.00  0.00    -0.362 OA 
HETATM    4  C   UNL     1      -7.451  11.562  68.889  1.00  0.00    -0.106 C  
ENDROOT
BRANCH   4   5
HETATM    5  O   UNL     1      -8.395  10.567  69.309  1.00  0.00    -0.155 OA 
BRANCH   5   6
HETATM    6  C   UNL     1      -9.670  10.727  68.870  1.00  0.00    -0.198 C  
HETATM    7  O   UNL     1     -10.137  11.764  68.427  1.00  0.00    -0.192 OA 
BRANCH   6   8
HETATM    8  C   UNL     1     -10.439   9.426  69.013  1.00  0.00    -0.233 C  
BRANCH   8   9
HETATM    9  C   UNL     1     -11.298   9.352  70.254  1.00  0.00    -0.261 A  
HETATM   10  C   UNL     1     -12.364  10.269  70.358  1.00  0.00    -0.319 A  
HETATM   11  C   UNL     1     -13.226  10.253  71.452  1.00  0.00    -0.464 A  
HETATM   12  C   UNL     1     -13.063   9.297  72.444  1.00  0.00    -0.481 A  
HETATM   13  C   UNL     1     -11.998   8.399  72.370  1.00  0.00    -0.451 A  
HETATM   14  C   UNL     1     -11.075   8.445  71.315  1.00  0.00    -0.255 A  
BRANCH  14  15
HETATM   15  N   UNL     1      -9.917   7.638  71.380  1.00  0.00    -0.181 NA 
HETATM   16  H   UNL     1      -9.047   8.146  71.224  1.00  0.00     0.000 HD 
BRANCH  15  17
HETATM   17  C   UNL     1      -9.744   6.243  71.622  1.00  0.00    -0.161 A  
HETATM   18  C   UNL     1      -9.294   5.857  72.911  1.00  0.00    -0.147 A  
HETATM   19  C   UNL     1      -9.266   4.519  73.322  1.00  0.00    -0.122 A  
HETATM   20 CL   UNL     1      -8.753   7.043  74.057  1.00  0.00    -0.182 Cl 
HETATM   21  C   UNL     1      -9.668   3.519  72.449  1.00  0.00    -0.217 A  
HETATM   22  C   UNL     1     -10.021   3.855  71.147  1.00  0.00    -0.169 A  
HETATM   23  C   UNL     1     -10.041   5.196  70.722  1.00  0.00    -0.233 A  
HETATM   24 CL   UNL     1     -10.540   5.417  69.080  1.00  0.00    -0.262 Cl 
ENDBRANCH  15  17
ENDBRANCH  14  15
ENDBRANCH   8   9
ENDBRANCH   6   8
ENDBRANCH   5   6
ENDBRANCH   4   5
TORSDOF 6
ENDMDL
MODEL      316
REMARK 921   NORMALIZED FREE ENERGY PREDICTED BY IDOCK:   -3.94 KCAL/MOL
REMARK 922        TOTAL FREE ENERGY PREDICTED BY IDOCK:   -6.29 KCAL/MOL
REMARK 923 INTER-LIGAND FREE ENERGY PREDICTED BY IDOCK:   -5.40 KCAL/MOL
REMARK 924 INTRA-LIGAND FREE ENERGY PREDICTED BY IDOCK:   -0.89 KCAL/MOL
REMARK 927      BINDING AFFINITY PREDICTED BY RF-SCORE:    0.00 PKD
ROOT
HETATM    1  O   UNL     1     -12.103   7.956  72.338  1.00  0.00    -0.323 OA 
HETATM    2  C   UNL     1     -11.431   8.179  71.182  1.00  0.00    -0.276 C  
HETATM    3  O   UNL     1     -10.842   7.287  70.593  1.00  0.00    -0.231 OA 
HETATM    4  C   UNL     1     -11.498   9.632  70.725  1.00  0.00    -0.328 C  
ENDROOT
BRANCH   4   5
HETATM    5  O   UNL     1     -10.716   9.825  69.539  1.00  0.00    -0.213 OA 
BRANCH   5   6
HETATM    6  C   UNL     1      -9.442  10.260  69.726  1.00  0.00    -0.091 C  
HETATM    7  O   UNL     1      -8.725   9.957  70.666  1.00  0.00    -0.105 OA 
BRANCH   6   8
HETATM    8  C   UNL     1      -9.037  11.189  68.596  1.00  0.00    -0.166 C  
BRANCH   8   9
HETATM    9  C   UNL     1     -10.193  11.924  67.958  1.00  0.00    -0.199 A  
HETATM   10  C   UNL     1     -10.650  13.092  68.601  1.00  0.00    -0.259 A  
HETATM   11  C   UNL     1     -11.691  13.850  68.068  1.00  0.00    -0.387 A  
HETATM   12  C   UNL     1     -12.267  13.477  66.862  1.00  0.00    -0.377 A  
HETATM   13  C   UNL     1     -11.844  12.309  66.226  1.00  0.00    -0.387 A  
HETATM   14  C   UNL     1     -10.850  11.492  66.783  1.00  0.00    -0.282 A  
BRANCH  14  15
HETATM   15  N   UNL     1     -10.586  10.235  66.196  1.00  0.00    -0.113 NA 
HETATM   16  H   UNL     1     -11.282   9.521  66.411  1.00  0.00     0.000 HD 
BRANCH  15  17
HETATM   17  C   UNL     1      -9.524   9.781  65.358  1.00  0.00    -0.269 A  
HETATM   18  C   UNL     1      -8.827   8.615  65.765  1.00  0.00    -0.193 A  
HETATM   19  C   UNL     1      -7.898   7.974  64.937  1.00  0.00    -0.129 A  
HETATM   20 CL   UNL     1      -9.098   7.916  67.331  1.00  0.00    -0.139 Cl 
HETATM   21  C   UNL     1      -7.620   8.489  63.680  1.00  0.00    -0.127 A  
HETATM   22  C   UNL     1      -8.213   9.685  63.290  1.00  0.00    -0.158 A  
HETATM   23  C   UNL     1      -9.140  10.342  64.121  1.00  0.00    -0.242 A  
HETATM   24 CL   UNL     1      -9.796  11.795  63.448  1.00  0.00    -0.407 Cl 
ENDBRANCH  15  17
ENDBRANCH  14  15
ENDBRANCH   8   9
ENDBRANCH   6   8
ENDBRANCH   5   6
ENDBRANCH   4   5
TORSDOF 6
ENDMDL
MODEL      317
REMARK 921   NORMALIZED FREE ENERGY PREDICTED BY IDOCK:   -3.93 KCAL/MOL
REMARK 922        TOTAL FREE ENERGY PREDICTED BY IDOCK:   -6.27 KCAL/MOL
REMARK 923 INTER-LIGAND FREE ENERGY PREDICTED BY IDOCK:   -5.27 KCAL/MOL
REMARK 924 INTRA-LIGAND FREE ENERGY PREDICTED BY IDOCK:   -1.00 KCAL/MOL
REMARK 927      BINDING AFFINITY PREDICTED BY RF-SCORE:    0.00 PKD
ROOT
HETATM    1  O   UNL     1     -11.651  13.308  67.933  1.00  0.00    -0.292 OA 
HETATM    2  C   UNL     1     -11.138  12.180  68.482  1.00  0.00    -0.252 C  
HETATM    3  O   UNL     1      -9.985  11.830  68.285  1.00  0.00    -0.189 OA 
HETATM    4  C   UNL     1     -12.144  11.427  69.345  1.00  0.00    -0.291 C  
ENDROOT
BRANCH   4   5
HETATM    5  O   UNL     1     -11.572  10.210  69.843  1.00  0.00    -0.253 OA 
BRANCH   5   6
HETATM    6  C   UNL     1     -12.148   9.690  70.957  1.00  0.00    -0.337 C  
HETATM    7  O   UNL     1     -12.704  10.336  71.830  1.00  0.00    -0.415 OA 
BRANCH   6   8
HETATM    8  C   UNL     1     -11.996   8.179  70.967  1.00  0.00    -0.257 C  
BRANCH   8   9
HETATM    9  C   UNL     1     -10.601   7.702  71.299  1.00  0.00    -0.237 A  
HETATM   10  C   UNL     1      -9.862   8.464  72.228  1.00  0.00    -0.383 A  
HETATM   11  C   UNL     1      -8.580   8.083  72.617  1.00  0.00    -0.237 A  
HETATM   12  C   UNL     1      -8.028   6.912  72.117  1.00  0.00    -0.094 A  
HETATM   13  C   UNL     1      -8.735   6.160  71.178  1.00  0.00    -0.132 A  
HETATM   14  C   UNL     1      -9.996   6.566  70.716  1.00  0.00    -0.184 A  
BRANCH  14  15
HETATM   15  N   UNL     1     -10.589   5.872  69.638  1.00  0.00    -0.280 NA 
HETATM   16  H   UNL     1     -11.594   5.734  69.735  1.00  0.00     0.000 HD 
BRANCH  15  17
HETATM   17  C   UNL     1     -10.037   5.328  68.439  1.00  0.00    -0.159 A  
HETATM   18  C   UNL     1      -9.964   6.184  67.311  1.00  0.00    -0.144 A  
HETATM   19  C   UNL     1      -9.278   5.824  66.145  1.00  0.00    -0.169 A  
HETATM   20 CL   UNL     1     -10.729   7.742  67.323  1.00  0.00    -0.369 Cl 
HETATM   21  C   UNL     1      -8.658   4.586  66.061  1.00  0.00    -0.114 A  
HETATM   22  C   UNL     1      -8.795   3.685  67.112  1.00  0.00    -0.140 A  
HETATM   23  C   UNL     1      -9.493   4.035  68.284  1.00  0.00    -0.156 A  
HETATM   24 CL   UNL     1      -9.524   2.796  69.491  1.00  0.00    -0.189 Cl 
ENDBRANCH  15  17
ENDBRANCH  14  15
ENDBRANCH   8   9
ENDBRANCH   6   8
ENDBRANCH   5   6
ENDBRANCH   4   5
TORSDOF 6
ENDMDL
MODEL      318
REMARK 921   NORMALIZED FREE ENERGY PREDICTED BY IDOCK:   -3.93 KCAL/MOL
REMARK 922        TOTAL FREE ENERGY PREDICTED BY IDOCK:   -6.27 KCAL/MOL
REMARK 923 INTER-LIGAND FREE ENERGY PREDICTED BY IDOCK:   -5.17 KCAL/MOL
REMARK 924 INTRA-LIGAND FREE ENERGY PREDICTED BY IDOCK:   -1.10 KCAL/MOL
REMARK 927      BINDING AFFINITY PREDICTED BY RF-SCORE:    0.00 PKD
ROOT
HETATM    1  O   UNL     1     -10.566  10.526  66.138  1.00  0.00    -0.200 OA 
HETATM    2  C   UNL     1     -10.699  10.376  67.478  1.00  0.00    -0.287 C  
HETATM    3  O   UNL     1     -11.777  10.494  68.040  1.00  0.00    -0.450 OA 
HETATM    4  C   UNL     1      -9.382  10.053  68.175  1.00  0.00    -0.131 C  
ENDROOT
BRANCH   4   5
HETATM    5  O   UNL     1      -9.568   9.973  69.594  1.00  0.00    -0.214 OA 
BRANCH   5   6
HETATM    6  C   UNL     1      -8.512   9.506  70.311  1.00  0.00    -0.207 C  
HETATM    7  O   UNL     1      -7.338   9.650  70.010  1.00  0.00    -0.094 OA 
BRANCH   6   8
HETATM    8  C   UNL     1      -9.003   8.771  71.545  1.00  0.00    -0.306 C  
BRANCH   8   9
HETATM    9  C   UNL     1     -10.407   8.227  71.420  1.00  0.00    -0.270 A  
HETATM   10  C   UNL     1     -11.442   8.962  72.035  1.00  0.00    -0.431 A  
HETATM   11  C   UNL     1     -12.770   8.551  71.946  1.00  0.00    -0.401 A  
HETATM   12  C   UNL     1     -13.094   7.423  71.206  1.00  0.00    -0.349 A  
HETATM   13  C   UNL     1     -12.080   6.670  70.613  1.00  0.00    -0.342 A  
HETATM   14  C   UNL     1     -10.730   7.024  70.753  1.00  0.00    -0.228 A  
BRANCH  14  15
HETATM   15  N   UNL     1      -9.736   6.135  70.289  1.00  0.00    -0.163 NA 
HETATM   16  H   UNL     1      -9.547   5.355  70.919  1.00  0.00     0.000 HD 
BRANCH  15  17
HETATM   17  C   UNL     1      -8.947   6.128  69.100  1.00  0.00    -0.126 A  
HETATM   18  C   UNL     1      -7.541   6.014  69.253  1.00  0.00    -0.094 A  
HETATM   19  C   UNL     1      -6.687   5.810  68.163  1.00  0.00    -0.058 A  
HETATM   20 CL   UNL     1      -6.804   6.120  70.820  1.00  0.00    -0.061 Cl 
HETATM   21  C   UNL     1      -7.208   5.733  66.880  1.00  0.00    -0.075 A  
HETATM   22  C   UNL     1      -8.569   5.939  66.686  1.00  0.00    -0.119 A  
HETATM   23  C   UNL     1      -9.434   6.155  67.775  1.00  0.00    -0.115 A  
HETATM   24 CL   UNL     1     -11.096   6.355  67.337  1.00  0.00    -0.454 Cl 
ENDBRANCH  15  17
ENDBRANCH  14  15
ENDBRANCH   8   9
ENDBRANCH   6   8
ENDBRANCH   5   6
ENDBRANCH   4   5
TORSDOF 6
ENDMDL
MODEL      319
REMARK 921   NORMALIZED FREE ENERGY PREDICTED BY IDOCK:   -3.93 KCAL/MOL
REMARK 922        TOTAL FREE ENERGY PREDICTED BY IDOCK:   -6.26 KCAL/MOL
REMARK 923 INTER-LIGAND FREE ENERGY PREDICTED BY IDOCK:   -5.40 KCAL/MOL
REMARK 924 INTRA-LIGAND FREE ENERGY PREDICTED BY IDOCK:   -0.86 KCAL/MOL
REMARK 927      BINDING AFFINITY PREDICTED BY RF-SCORE:    0.00 PKD
ROOT
HETATM    1  O   UNL     1     -10.321   8.820  67.426  1.00  0.00    -0.240 OA 
HETATM    2  C   UNL     1     -10.780  10.086  67.579  1.00  0.00    -0.281 C  
HETATM    3  O   UNL     1     -11.072  10.541  68.673  1.00  0.00    -0.236 OA 
HETATM    4  C   UNL     1     -10.882  10.846  66.261  1.00  0.00    -0.124 C  
ENDROOT
BRANCH   4   5
HETATM    5  O   UNL     1     -11.435  12.152  66.473  1.00  0.00    -0.344 OA 
BRANCH   5   6
HETATM    6  C   UNL     1     -10.635  13.201  66.148  1.00  0.00    -0.279 C  
HETATM    7  O   UNL     1     -10.248  13.469  65.022  1.00  0.00    -0.345 OA 
BRANCH   6   8
HETATM    8  C   UNL     1     -10.283  13.994  67.394  1.00  0.00    -0.248 C  
BRANCH   8   9
HETATM    9  C   UNL     1      -8.800  14.198  67.595  1.00  0.00    -0.194 A  
HETATM   10  C   UNL     1      -8.110  13.225  68.347  1.00  0.00    -0.134 A  
HETATM   11  C   UNL     1      -6.736  13.315  68.558  1.00  0.00    -0.092 A  
HETATM   12  C   UNL     1      -6.018  14.356  67.987  1.00  0.00    -0.154 A  
HETATM   13  C   UNL     1      -6.689  15.342  67.262  1.00  0.00    -0.096 A  
HETATM   14  C   UNL     1      -8.082  15.311  67.101  1.00  0.00    -0.216 A  
BRANCH  14  15
HETATM   15  N   UNL     1      -8.731  16.421  66.516  1.00  0.00    -0.259 NA 
HETATM   16  H   UNL     1      -9.494  16.173  65.887  1.00  0.00     0.000 HD 
BRANCH  15  17
HETATM   17  C   UNL     1      -8.513  17.826  66.644  1.00  0.00    -0.258 A  
HETATM   18  C   UNL     1      -9.485  18.572  67.358  1.00  0.00    -0.283 A  
HETATM   19  C   UNL     1      -9.288  19.913  67.706  1.00  0.00    -0.454 A  
HETATM   20 CL   UNL     1     -10.986  17.847  67.842  1.00  0.00    -0.210 Cl 
HETATM   21  C   UNL     1      -8.118  20.560  67.335  1.00  0.00    -0.345 A  
HETATM   22  C   UNL     1      -7.189  19.885  66.550  1.00  0.00    -0.275 A  
HETATM   23  C   UNL     1      -7.385  18.540  66.186  1.00  0.00    -0.259 A  
HETATM   24 CL   UNL     1      -6.103  17.864  65.240  1.00  0.00    -0.074 Cl 
ENDBRANCH  15  17
ENDBRANCH  14  15
ENDBRANCH   8   9
ENDBRANCH   6   8
ENDBRANCH   5   6
ENDBRANCH   4   5
TORSDOF 6
ENDMDL
MODEL      320
REMARK 921   NORMALIZED FREE ENERGY PREDICTED BY IDOCK:   -3.92 KCAL/MOL
REMARK 922        TOTAL FREE ENERGY PREDICTED BY IDOCK:   -6.26 KCAL/MOL
REMARK 923 INTER-LIGAND FREE ENERGY PREDICTED BY IDOCK:   -5.47 KCAL/MOL
REMARK 924 INTRA-LIGAND FREE ENERGY PREDICTED BY IDOCK:   -0.79 KCAL/MOL
REMARK 927      BINDING AFFINITY PREDICTED BY RF-SCORE:    0.00 PKD
ROOT
HETATM    1  O   UNL     1     -12.164   8.765  72.718  1.00  0.00    -0.275 OA 
HETATM    2  C   UNL     1     -11.618   7.623  72.234  1.00  0.00    -0.322 C  
HETATM    3  O   UNL     1     -11.085   6.800  72.962  1.00  0.00    -0.263 OA 
HETATM    4  C   UNL     1     -11.746   7.497  70.720  1.00  0.00    -0.256 C  
ENDROOT
BRANCH   4   5
HETATM    5  O   UNL     1     -11.093   6.308  70.255  1.00  0.00    -0.303 OA 
BRANCH   5   6
HETATM    6  C   UNL     1     -10.668   6.324  68.964  1.00  0.00    -0.302 C  
HETATM    7  O   UNL     1     -11.393   6.263  67.984  1.00  0.00    -0.260 OA 
BRANCH   6   8
HETATM    8  C   UNL     1      -9.154   6.422  68.914  1.00  0.00    -0.129 C  
BRANCH   8   9
HETATM    9  C   UNL     1      -8.609   7.760  69.357  1.00  0.00    -0.135 A  
HETATM   10  C   UNL     1      -7.676   7.760  70.414  1.00  0.00    -0.088 A  
HETATM   11  C   UNL     1      -7.098   8.944  70.868  1.00  0.00    -0.085 A  
HETATM   12  C   UNL     1      -7.411  10.145  70.248  1.00  0.00    -0.108 A  
HETATM   13  C   UNL     1      -8.352  10.166  69.217  1.00  0.00    -0.160 A  
HETATM   14  C   UNL     1      -9.001   8.997  68.796  1.00  0.00    -0.137 A  
BRANCH  14  15
HETATM   15  N   UNL     1     -10.070   9.097  67.879  1.00  0.00    -0.187 NA 
HETATM   16  H   UNL     1     -10.561   8.219  67.714  1.00  0.00     0.000 HD 
BRANCH  15  17
HETATM   17  C   UNL     1     -10.589  10.203  67.141  1.00  0.00    -0.246 A  
HETATM   18  C   UNL     1     -11.428  11.112  67.834  1.00  0.00    -0.284 A  
HETATM   19  C   UNL     1     -11.841  12.325  67.271  1.00  0.00    -0.330 A  
HETATM   20 CL   UNL     1     -11.987  10.761  69.440  1.00  0.00    -0.368 Cl 
HETATM   21  C   UNL     1     -11.445  12.661  65.984  1.00  0.00    -0.414 A  
HETATM   22  C   UNL     1     -10.705  11.747  65.242  1.00  0.00    -0.338 A  
HETATM   23  C   UNL     1     -10.295  10.521  65.797  1.00  0.00    -0.200 A  
HETATM   24 CL   UNL     1      -9.353   9.536  64.731  1.00  0.00    -0.286 Cl 
ENDBRANCH  15  17
ENDBRANCH  14  15
ENDBRANCH   8   9
ENDBRANCH   6   8
ENDBRANCH   5   6
ENDBRANCH   4   5
TORSDOF 6
ENDMDL
MODEL      321
REMARK 921   NORMALIZED FREE ENERGY PREDICTED BY IDOCK:   -3.91 KCAL/MOL
REMARK 922        TOTAL FREE ENERGY PREDICTED BY IDOCK:   -6.25 KCAL/MOL
REMARK 923 INTER-LIGAND FREE ENERGY PREDICTED BY IDOCK:   -5.41 KCAL/MOL
REMARK 924 INTRA-LIGAND FREE ENERGY PREDICTED BY IDOCK:   -0.84 KCAL/MOL
REMARK 927      BINDING AFFINITY PREDICTED BY RF-SCORE:    0.00 PKD
ROOT
HETATM    1  O   UNL     1      -9.965   4.050  69.570  1.00  0.00    -0.145 OA 
HETATM    2  C   UNL     1      -9.720   5.383  69.548  1.00  0.00    -0.176 C  
HETATM    3  O   UNL     1      -8.605   5.840  69.748  1.00  0.00    -0.123 OA 
HETATM    4  C   UNL     1     -10.964   6.213  69.253  1.00  0.00    -0.381 C  
ENDROOT
BRANCH   4   5
HETATM    5  O   UNL     1     -10.662   7.614  69.309  1.00  0.00    -0.221 OA 
BRANCH   5   6
HETATM    6  C   UNL     1     -10.439   8.226  68.117  1.00  0.00    -0.171 C  
HETATM    7  O   UNL     1     -10.691   7.749  67.022  1.00  0.00    -0.347 OA 
BRANCH   6   8
HETATM    8  C   UNL     1      -9.823   9.596  68.340  1.00  0.00    -0.170 C  
BRANCH   8   9
HETATM    9  C   UNL     1      -8.449   9.759  67.731  1.00  0.00    -0.121 A  
HETATM   10  C   UNL     1      -7.539   8.696  67.897  1.00  0.00    -0.098 A  
HETATM   11  C   UNL     1      -6.261   8.747  67.344  1.00  0.00    -0.056 A  
HETATM   12  C   UNL     1      -5.883   9.843  66.581  1.00  0.00    -0.054 A  
HETATM   13  C   UNL     1      -6.763  10.916  66.430  1.00  0.00    -0.134 A  
HETATM   14  C   UNL     1      -8.026  10.917  67.040  1.00  0.00    -0.132 A  
BRANCH  14  15
HETATM   15  N   UNL     1      -8.803  12.096  67.006  1.00  0.00    -0.197 NA 
HETATM   16  H   UNL     1      -8.354  12.903  67.439  1.00  0.00     0.000 HD 
BRANCH  15  17
HETATM   17  C   UNL     1     -10.102  12.363  66.479  1.00  0.00    -0.232 A  
HETATM   18  C   UNL     1     -10.846  13.411  67.080  1.00  0.00    -0.276 A  
HETATM   19  C   UNL     1     -12.044  13.885  66.533  1.00  0.00    -0.484 A  
HETATM   20 CL   UNL     1     -10.296  14.168  68.542  1.00  0.00    -0.245 Cl 
HETATM   21  C   UNL     1     -12.550  13.312  65.375  1.00  0.00    -0.526 A  
HETATM   22  C   UNL     1     -11.897  12.219  64.816  1.00  0.00    -0.428 A  
HETATM   23  C   UNL     1     -10.697  11.729  65.366  1.00  0.00    -0.283 A  
HETATM   24 CL   UNL     1     -10.017  10.388  64.512  1.00  0.00    -0.410 Cl 
ENDBRANCH  15  17
ENDBRANCH  14  15
ENDBRANCH   8   9
ENDBRANCH   6   8
ENDBRANCH   5   6
ENDBRANCH   4   5
TORSDOF 6
ENDMDL
MODEL      322
REMARK 921   NORMALIZED FREE ENERGY PREDICTED BY IDOCK:   -3.91 KCAL/MOL
REMARK 922        TOTAL FREE ENERGY PREDICTED BY IDOCK:   -6.25 KCAL/MOL
REMARK 923 INTER-LIGAND FREE ENERGY PREDICTED BY IDOCK:   -5.95 KCAL/MOL
REMARK 924 INTRA-LIGAND FREE ENERGY PREDICTED BY IDOCK:   -0.30 KCAL/MOL
REMARK 927      BINDING AFFINITY PREDICTED BY RF-SCORE:    0.00 PKD
ROOT
HETATM    1  O   UNL     1     -10.950   7.013  69.125  1.00  0.00    -0.219 OA 
HETATM    2  C   UNL     1     -10.636   8.216  68.585  1.00  0.00    -0.109 C  
HETATM    3  O   UNL     1     -10.533   9.224  69.266  1.00  0.00    -0.210 OA 
HETATM    4  C   UNL     1     -10.434   8.156  67.075  1.00  0.00    -0.326 C  
ENDROOT
BRANCH   4   5
HETATM    5  O   UNL     1     -10.171   9.464  66.549  1.00  0.00    -0.258 OA 
BRANCH   5   6
HETATM    6  C   UNL     1      -8.939   9.656  66.011  1.00  0.00    -0.162 C  
HETATM    7  O   UNL     1      -7.930   9.046  66.325  1.00  0.00    -0.101 OA 
BRANCH   6   8
HETATM    8  C   UNL     1      -8.993  10.750  64.959  1.00  0.00    -0.211 C  
BRANCH   8   9
HETATM    9  C   UNL     1     -10.317  11.475  64.893  1.00  0.00    -0.340 A  
HETATM   10  C   UNL     1     -11.016  11.434  63.669  1.00  0.00    -0.443 A  
HETATM   11  C   UNL     1     -12.258  12.049  63.526  1.00  0.00    -0.653 A  
HETATM   12  C   UNL     1     -12.844  12.680  64.614  1.00  0.00    -0.361 A  
HETATM   13  C   UNL     1     -12.155  12.752  65.825  1.00  0.00    -0.505 A  
HETATM   14  C   UNL     1     -10.871  12.206  65.969  1.00  0.00    -0.282 A  
BRANCH  14  15
HETATM   15  N   UNL     1     -10.145  12.461  67.154  1.00  0.00    -0.212 NA 
HETATM   16  H   UNL     1     -10.556  12.048  67.991  1.00  0.00     0.000 HD 
BRANCH  15  17
HETATM   17  C   UNL     1      -8.943  13.192  67.393  1.00  0.00    -0.201 A  
HETATM   18  C   UNL     1      -8.860  14.502  66.856  1.00  0.00    -0.234 A  
HETATM   19  C   UNL     1      -7.816  15.376  67.180  1.00  0.00    -0.249 A  
HETATM   20 CL   UNL     1     -10.067  15.093  65.758  1.00  0.00    -0.343 Cl 
HETATM   21  C   UNL     1      -6.808  14.962  68.038  1.00  0.00    -0.147 A  
HETATM   22  C   UNL     1      -6.808  13.651  68.504  1.00  0.00    -0.098 A  
HETATM   23  C   UNL     1      -7.847  12.762  68.174  1.00  0.00    -0.146 A  
HETATM   24 CL   UNL     1      -7.690  11.189  68.876  1.00  0.00    -0.138 Cl 
ENDBRANCH  15  17
ENDBRANCH  14  15
ENDBRANCH   8   9
ENDBRANCH   6   8
ENDBRANCH   5   6
ENDBRANCH   4   5
TORSDOF 6
ENDMDL
MODEL      323
REMARK 921   NORMALIZED FREE ENERGY PREDICTED BY IDOCK:   -3.90 KCAL/MOL
REMARK 922        TOTAL FREE ENERGY PREDICTED BY IDOCK:   -6.22 KCAL/MOL
REMARK 923 INTER-LIGAND FREE ENERGY PREDICTED BY IDOCK:   -5.10 KCAL/MOL
REMARK 924 INTRA-LIGAND FREE ENERGY PREDICTED BY IDOCK:   -1.13 KCAL/MOL
REMARK 927      BINDING AFFINITY PREDICTED BY RF-SCORE:    0.00 PKD
ROOT
HETATM    1  O   UNL     1     -12.877  11.808  71.381  1.00  0.00    -0.404 OA 
HETATM    2  C   UNL     1     -12.237  10.784  70.766  1.00  0.00    -0.381 C  
HETATM    3  O   UNL     1     -11.929  10.828  69.585  1.00  0.00    -0.300 OA 
HETATM    4  C   UNL     1     -11.959   9.610  71.698  1.00  0.00    -0.394 C  
ENDROOT
BRANCH   4   5
HETATM    5  O   UNL     1     -11.344   8.531  70.982  1.00  0.00    -0.259 OA 
BRANCH   5   6
HETATM    6  C   UNL     1     -12.029   7.358  70.962  1.00  0.00    -0.306 C  
HETATM    7  O   UNL     1     -12.986   7.090  71.670  1.00  0.00    -0.376 OA 
BRANCH   6   8
HETATM    8  C   UNL     1     -11.426   6.419  69.932  1.00  0.00    -0.483 C  
BRANCH   8   9
HETATM    9  C   UNL     1     -10.050   5.910  70.294  1.00  0.00    -0.260 A  
HETATM   10  C   UNL     1      -9.980   4.747  71.089  1.00  0.00    -0.273 A  
HETATM   11  C   UNL     1      -8.754   4.190  71.445  1.00  0.00    -0.137 A  
HETATM   12  C   UNL     1      -7.577   4.759  70.981  1.00  0.00    -0.076 A  
HETATM   13  C   UNL     1      -7.628   5.925  70.215  1.00  0.00    -0.094 A  
HETATM   14  C   UNL     1      -8.848   6.544  69.908  1.00  0.00    -0.143 A  
BRANCH  14  15
HETATM   15  N   UNL     1      -8.836   7.813  69.288  1.00  0.00    -0.139 NA 
HETATM   16  H   UNL     1      -8.828   8.596  69.942  1.00  0.00     0.000 HD 
BRANCH  15  17
HETATM   17  C   UNL     1      -8.834   8.200  67.914  1.00  0.00    -0.131 A  
HETATM   18  C   UNL     1      -8.637   9.575  67.626  1.00  0.00    -0.122 A  
HETATM   19  C   UNL     1      -8.431  10.041  66.322  1.00  0.00    -0.134 A  
HETATM   20 CL   UNL     1      -8.638  10.760  68.894  1.00  0.00    -0.158 Cl 
HETATM   21  C   UNL     1      -8.434   9.150  65.260  1.00  0.00    -0.169 A  
HETATM   22  C   UNL     1      -8.723   7.811  65.498  1.00  0.00    -0.102 A  
HETATM   23  C   UNL     1      -8.942   7.335  66.804  1.00  0.00    -0.137 A  
HETATM   24 CL   UNL     1      -9.251   5.635  66.901  1.00  0.00    -0.118 Cl 
ENDBRANCH  15  17
ENDBRANCH  14  15
ENDBRANCH   8   9
ENDBRANCH   6   8
ENDBRANCH   5   6
ENDBRANCH   4   5
TORSDOF 6
ENDMDL
MODEL      324
REMARK 921   NORMALIZED FREE ENERGY PREDICTED BY IDOCK:   -3.89 KCAL/MOL
REMARK 922        TOTAL FREE ENERGY PREDICTED BY IDOCK:   -6.22 KCAL/MOL
REMARK 923 INTER-LIGAND FREE ENERGY PREDICTED BY IDOCK:   -5.47 KCAL/MOL
REMARK 924 INTRA-LIGAND FREE ENERGY PREDICTED BY IDOCK:   -0.75 KCAL/MOL
REMARK 927      BINDING AFFINITY PREDICTED BY RF-SCORE:    0.00 PKD
ROOT
HETATM    1  O   UNL     1      -6.752  14.822  69.071  1.00  0.00    -0.093 OA 
HETATM    2  C   UNL     1      -7.604  13.785  68.877  1.00  0.00    -0.040 C  
HETATM    3  O   UNL     1      -8.797  13.955  68.683  1.00  0.00    -0.161 OA 
HETATM    4  C   UNL     1      -6.912  12.428  68.931  1.00  0.00    -0.091 C  
ENDROOT
BRANCH   4   5
HETATM    5  O   UNL     1      -7.867  11.368  68.789  1.00  0.00    -0.136 OA 
BRANCH   5   6
HETATM    6  C   UNL     1      -7.879  10.436  69.778  1.00  0.00    -0.095 C  
HETATM    7  O   UNL     1      -7.120  10.414  70.733  1.00  0.00    -0.269 OA 
BRANCH   6   8
HETATM    8  C   UNL     1      -8.973   9.416  69.521  1.00  0.00    -0.167 C  
BRANCH   8   9
HETATM    9  C   UNL     1     -10.325   9.812  70.067  1.00  0.00    -0.307 A  
HETATM   10  C   UNL     1     -11.087  10.725  69.309  1.00  0.00    -0.312 A  
HETATM   11  C   UNL     1     -12.357  11.122  69.720  1.00  0.00    -0.315 A  
HETATM   12  C   UNL     1     -12.907  10.586  70.876  1.00  0.00    -0.485 A  
HETATM   13  C   UNL     1     -12.156   9.701  71.652  1.00  0.00    -0.481 A  
HETATM   14  C   UNL     1     -10.847   9.346  71.295  1.00  0.00    -0.361 A  
BRANCH  14  15
HETATM   15  N   UNL     1     -10.068   8.594  72.203  1.00  0.00    -0.320 NA 
HETATM   16  H   UNL     1      -9.429   9.155  72.766  1.00  0.00     0.000 HD 
BRANCH  15  17
HETATM   17  C   UNL     1     -10.012   7.194  72.475  1.00  0.00    -0.168 A  
HETATM   18  C   UNL     1      -9.230   6.778  73.583  1.00  0.00    -0.155 A  
HETATM   19  C   UNL     1      -9.249   5.461  74.056  1.00  0.00    -0.121 A  
HETATM   20 CL   UNL     1      -8.201   7.899  74.418  1.00  0.00    -0.285 Cl 
HETATM   21  C   UNL     1     -10.036   4.510  73.425  1.00  0.00    -0.202 A  
HETATM   22  C   UNL     1     -10.738   4.863  72.277  1.00  0.00    -0.218 A  
HETATM   23  C   UNL     1     -10.716   6.182  71.787  1.00  0.00    -0.242 A  
HETATM   24 CL   UNL     1     -11.678   6.433  70.371  1.00  0.00    -0.444 Cl 
ENDBRANCH  15  17
ENDBRANCH  14  15
ENDBRANCH   8   9
ENDBRANCH   6   8
ENDBRANCH   5   6
ENDBRANCH   4   5
TORSDOF 6
ENDMDL
MODEL      325
REMARK 921   NORMALIZED FREE ENERGY PREDICTED BY IDOCK:   -3.89 KCAL/MOL
REMARK 922        TOTAL FREE ENERGY PREDICTED BY IDOCK:   -6.21 KCAL/MOL
REMARK 923 INTER-LIGAND FREE ENERGY PREDICTED BY IDOCK:   -5.47 KCAL/MOL
REMARK 924 INTRA-LIGAND FREE ENERGY PREDICTED BY IDOCK:   -0.75 KCAL/MOL
REMARK 927      BINDING AFFINITY PREDICTED BY RF-SCORE:    0.00 PKD
ROOT
HETATM    1  O   UNL     1     -13.368  10.973  72.006  1.00  0.00    -0.455 OA 
HETATM    2  C   UNL     1     -12.298  10.414  71.390  1.00  0.00    -0.397 C  
HETATM    3  O   UNL     1     -11.770   9.396  71.807  1.00  0.00    -0.371 OA 
HETATM    4  C   UNL     1     -11.850  11.189  70.156  1.00  0.00    -0.365 C  
ENDROOT
BRANCH   4   5
HETATM    5  O   UNL     1     -10.676  10.595  69.585  1.00  0.00    -0.243 OA 
BRANCH   5   6
HETATM    6  C   UNL     1     -10.383  10.956  68.309  1.00  0.00    -0.173 C  
HETATM    7  O   UNL     1     -10.519  10.244  67.327  1.00  0.00    -0.221 OA 
BRANCH   6   8
HETATM    8  C   UNL     1      -9.851  12.377  68.277  1.00  0.00    -0.224 C  
BRANCH   8   9
HETATM    9  C   UNL     1      -8.342  12.470  68.279  1.00  0.00    -0.167 A  
HETATM   10  C   UNL     1      -7.641  11.585  69.123  1.00  0.00    -0.003 A  
HETATM   11  C   UNL     1      -6.249  11.580  69.167  1.00  0.00    -0.071 A  
HETATM   12  C   UNL     1      -5.530  12.429  68.338  1.00  0.00    -0.053 A  
HETATM   13  C   UNL     1      -6.208  13.329  67.515  1.00  0.00    -0.114 A  
HETATM   14  C   UNL     1      -7.609  13.403  67.511  1.00  0.00    -0.169 A  
BRANCH  14  15
HETATM   15  N   UNL     1      -8.239  14.448  66.800  1.00  0.00    -0.388 NA 
HETATM   16  H   UNL     1      -8.253  14.314  65.789  1.00  0.00     0.000 HD 
BRANCH  15  17
HETATM   17  C   UNL     1      -8.860  15.657  67.237  1.00  0.00    -0.198 A  
HETATM   18  C   UNL     1      -9.965  16.130  66.484  1.00  0.00    -0.280 A  
HETATM   19  C   UNL     1     -10.764  17.193  66.920  1.00  0.00    -0.121 A  
HETATM   20 CL   UNL     1     -10.387  15.400  64.967  1.00  0.00    -0.405 Cl 
HETATM   21  C   UNL     1     -10.472  17.833  68.115  1.00  0.00    -0.382 A  
HETATM   22  C   UNL     1      -9.338  17.458  68.827  1.00  0.00    -0.244 A  
HETATM   23  C   UNL     1      -8.523  16.397  68.391  1.00  0.00    -0.204 A  
HETATM   24 CL   UNL     1      -7.180  16.057  69.427  1.00  0.00    -0.221 Cl 
ENDBRANCH  15  17
ENDBRANCH  14  15
ENDBRANCH   8   9
ENDBRANCH   6   8
ENDBRANCH   5   6
ENDBRANCH   4   5
TORSDOF 6
ENDMDL
MODEL      326
REMARK 921   NORMALIZED FREE ENERGY PREDICTED BY IDOCK:   -3.88 KCAL/MOL
REMARK 922        TOTAL FREE ENERGY PREDICTED BY IDOCK:   -6.21 KCAL/MOL
REMARK 923 INTER-LIGAND FREE ENERGY PREDICTED BY IDOCK:   -5.26 KCAL/MOL
REMARK 924 INTRA-LIGAND FREE ENERGY PREDICTED BY IDOCK:   -0.94 KCAL/MOL
REMARK 927      BINDING AFFINITY PREDICTED BY RF-SCORE:    0.00 PKD
ROOT
HETATM    1  O   UNL     1     -11.875  15.801  69.566  1.00  0.00    -0.354 OA 
HETATM    2  C   UNL     1     -11.873  14.839  68.611  1.00  0.00    -0.300 C  
HETATM    3  O   UNL     1     -12.324  13.723  68.815  1.00  0.00    -0.284 OA 
HETATM    4  C   UNL     1     -11.257  15.306  67.297  1.00  0.00    -0.306 C  
ENDROOT
BRANCH   4   5
HETATM    5  O   UNL     1     -11.218  14.232  66.348  1.00  0.00    -0.322 OA 
BRANCH   5   6
HETATM    6  C   UNL     1     -10.200  13.344  66.490  1.00  0.00    -0.282 C  
HETATM    7  O   UNL     1      -9.043  13.635  66.745  1.00  0.00    -0.247 OA 
BRANCH   6   8
HETATM    8  C   UNL     1     -10.709  11.929  66.280  1.00  0.00    -0.309 C  
BRANCH   8   9
HETATM    9  C   UNL     1     -10.045  11.200  65.134  1.00  0.00    -0.335 A  
HETATM   10  C   UNL     1     -10.073  11.823  63.870  1.00  0.00    -0.399 A  
HETATM   11  C   UNL     1      -9.461  11.239  62.763  1.00  0.00    -0.355 A  
HETATM   12  C   UNL     1      -8.775  10.042  62.908  1.00  0.00    -0.211 A  
HETATM   13  C   UNL     1      -8.759   9.399  64.147  1.00  0.00    -0.224 A  
HETATM   14  C   UNL     1      -9.432   9.933  65.255  1.00  0.00    -0.268 A  
BRANCH  14  15
HETATM   15  N   UNL     1      -9.538   9.159  66.432  1.00  0.00    -0.223 NA 
HETATM   16  H   UNL     1     -10.489   9.078  66.793  1.00  0.00     0.000 HD 
BRANCH  15  17
HETATM   17  C   UNL     1      -8.558   8.470  67.208  1.00  0.00    -0.123 A  
HETATM   18  C   UNL     1      -8.035   9.143  68.341  1.00  0.00    -0.103 A  
HETATM   19  C   UNL     1      -7.214   8.502  69.277  1.00  0.00    -0.063 A  
HETATM   20 CL   UNL     1      -8.394  10.817  68.627  1.00  0.00    -0.134 Cl 
HETATM   21  C   UNL     1      -6.873   7.170  69.100  1.00  0.00    -0.061 A  
HETATM   22  C   UNL     1      -7.289   6.509  67.949  1.00  0.00    -0.093 A  
HETATM   23  C   UNL     1      -8.105   7.149  66.997  1.00  0.00    -0.117 A  
HETATM   24 CL   UNL     1      -8.548   6.154  65.653  1.00  0.00    -0.151 Cl 
ENDBRANCH  15  17
ENDBRANCH  14  15
ENDBRANCH   8   9
ENDBRANCH   6   8
ENDBRANCH   5   6
ENDBRANCH   4   5
TORSDOF 6
ENDMDL
MODEL      327
REMARK 921   NORMALIZED FREE ENERGY PREDICTED BY IDOCK:   -3.88 KCAL/MOL
REMARK 922        TOTAL FREE ENERGY PREDICTED BY IDOCK:   -6.20 KCAL/MOL
REMARK 923 INTER-LIGAND FREE ENERGY PREDICTED BY IDOCK:   -5.68 KCAL/MOL
REMARK 924 INTRA-LIGAND FREE ENERGY PREDICTED BY IDOCK:   -0.52 KCAL/MOL
REMARK 927      BINDING AFFINITY PREDICTED BY RF-SCORE:    0.00 PKD
ROOT
HETATM    1  O   UNL     1      -7.532   4.754  67.509  1.00  0.00    -0.077 OA 
HETATM    2  C   UNL     1      -7.464   6.108  67.549  1.00  0.00    -0.082 C  
HETATM    3  O   UNL     1      -6.966   6.758  66.643  1.00  0.00    -0.063 OA 
HETATM    4  C   UNL     1      -8.067   6.697  68.819  1.00  0.00    -0.119 C  
ENDROOT
BRANCH   4   5
HETATM    5  O   UNL     1      -7.908   8.122  68.840  1.00  0.00    -0.108 OA 
BRANCH   5   6
HETATM    6  C   UNL     1      -8.936   8.832  69.373  1.00  0.00    -0.145 C  
HETATM    7  O   UNL     1      -9.768   8.390  70.148  1.00  0.00    -0.171 OA 
BRANCH   6   8
HETATM    8  C   UNL     1      -8.907  10.260  68.859  1.00  0.00    -0.157 C  
BRANCH   8   9
HETATM    9  C   UNL     1      -9.303  10.400  67.407  1.00  0.00    -0.162 A  
HETATM   10  C   UNL     1      -8.269  10.367  66.449  1.00  0.00    -0.141 A  
HETATM   11  C   UNL     1      -8.544  10.458  65.087  1.00  0.00    -0.189 A  
HETATM   12  C   UNL     1      -9.859  10.544  64.653  1.00  0.00    -0.404 A  
HETATM   13  C   UNL     1     -10.893  10.604  65.589  1.00  0.00    -0.010 A  
HETATM   14  C   UNL     1     -10.633  10.589  66.967  1.00  0.00    -0.253 A  
BRANCH  14  15
HETATM   15  N   UNL     1     -11.692  10.833  67.869  1.00  0.00    -0.716 NA 
HETATM   16  H   UNL     1     -12.490  10.208  67.753  1.00  0.00     0.000 HD 
BRANCH  15  17
HETATM   17  C   UNL     1     -11.851  11.794  68.912  1.00  0.00    -0.320 A  
HETATM   18  C   UNL     1     -11.697  13.161  68.566  1.00  0.00    -0.352 A  
HETATM   19  C   UNL     1     -12.011  14.195  69.455  1.00  0.00    -0.389 A  
HETATM   20 CL   UNL     1     -11.107  13.623  67.000  1.00  0.00    -0.304 Cl 
HETATM   21  C   UNL     1     -12.471  13.897  70.729  1.00  0.00    -0.445 A  
HETATM   22  C   UNL     1     -12.539  12.568  71.133  1.00  0.00    -0.349 A  
HETATM   23  C   UNL     1     -12.215  11.522  70.249  1.00  0.00    -0.332 A  
HETATM   24 CL   UNL     1     -12.396   9.938  70.921  1.00  0.00    -0.394 Cl 
ENDBRANCH  15  17
ENDBRANCH  14  15
ENDBRANCH   8   9
ENDBRANCH   6   8
ENDBRANCH   5   6
ENDBRANCH   4   5
TORSDOF 6
ENDMDL
MODEL      328
REMARK 921   NORMALIZED FREE ENERGY PREDICTED BY IDOCK:   -3.86 KCAL/MOL
REMARK 922        TOTAL FREE ENERGY PREDICTED BY IDOCK:   -6.18 KCAL/MOL
REMARK 923 INTER-LIGAND FREE ENERGY PREDICTED BY IDOCK:   -5.06 KCAL/MOL
REMARK 924 INTRA-LIGAND FREE ENERGY PREDICTED BY IDOCK:   -1.12 KCAL/MOL
REMARK 927      BINDING AFFINITY PREDICTED BY RF-SCORE:    0.00 PKD
ROOT
HETATM    1  O   UNL     1      -5.674  13.049  69.698  1.00  0.00    -0.088 OA 
HETATM    2  C   UNL     1      -5.843  12.604  68.428  1.00  0.00    -0.059 C  
HETATM    3  O   UNL     1      -5.802  13.357  67.468  1.00  0.00    -0.292 OA 
HETATM    4  C   UNL     1      -6.083  11.101  68.351  1.00  0.00    -0.045 C  
ENDROOT
BRANCH   4   5
HETATM    5  O   UNL     1      -6.322  10.696  66.997  1.00  0.00    -0.065 OA 
BRANCH   5   6
HETATM    6  C   UNL     1      -6.439   9.360  66.782  1.00  0.00    -0.067 C  
HETATM    7  O   UNL     1      -6.046   8.770  65.789  1.00  0.00    -0.051 OA 
BRANCH   6   8
HETATM    8  C   UNL     1      -7.137   8.702  67.958  1.00  0.00    -0.082 C  
BRANCH   8   9
HETATM    9  C   UNL     1      -8.472   8.081  67.613  1.00  0.00    -0.131 A  
HETATM   10  C   UNL     1      -8.572   6.677  67.696  1.00  0.00    -0.120 A  
HETATM   11  C   UNL     1      -9.771   6.022  67.426  1.00  0.00    -0.124 A  
HETATM   12  C   UNL     1     -10.903   6.759  67.108  1.00  0.00    -0.462 A  
HETATM   13  C   UNL     1     -10.815   8.147  66.997  1.00  0.00    -0.086 A  
HETATM   14  C   UNL     1      -9.600   8.820  67.191  1.00  0.00    -0.175 A  
BRANCH  14  15
HETATM   15  N   UNL     1      -9.523  10.199  66.891  1.00  0.00    -0.165 NA 
HETATM   16  H   UNL     1      -8.813  10.701  67.424  1.00  0.00     0.000 HD 
BRANCH  15  17
HETATM   17  C   UNL     1     -10.256  11.016  65.980  1.00  0.00    -0.252 A  
HETATM   18  C   UNL     1     -10.068  10.776  64.595  1.00  0.00    -0.344 A  
HETATM   19  C   UNL     1     -10.866  11.383  63.618  1.00  0.00    -0.459 A  
HETATM   20 CL   UNL     1      -8.824   9.702  64.037  1.00  0.00    -0.243 Cl 
HETATM   21  C   UNL     1     -11.867  12.266  63.992  1.00  0.00    -0.530 A  
HETATM   22  C   UNL     1     -12.013  12.598  65.335  1.00  0.00    -0.496 A  
HETATM   23  C   UNL     1     -11.207  12.001  66.323  1.00  0.00    -0.342 A  
HETATM   24 CL   UNL     1     -11.561  12.514  67.937  1.00  0.00    -0.380 Cl 
ENDBRANCH  15  17
ENDBRANCH  14  15
ENDBRANCH   8   9
ENDBRANCH   6   8
ENDBRANCH   5   6
ENDBRANCH   4   5
TORSDOF 6
ENDMDL
MODEL      329
REMARK 921   NORMALIZED FREE ENERGY PREDICTED BY IDOCK:   -3.85 KCAL/MOL
REMARK 922        TOTAL FREE ENERGY PREDICTED BY IDOCK:   -6.16 KCAL/MOL
REMARK 923 INTER-LIGAND FREE ENERGY PREDICTED BY IDOCK:   -5.05 KCAL/MOL
REMARK 924 INTRA-LIGAND FREE ENERGY PREDICTED BY IDOCK:   -1.10 KCAL/MOL
REMARK 927      BINDING AFFINITY PREDICTED BY RF-SCORE:    0.00 PKD
ROOT
HETATM    1  O   UNL     1      -8.724   5.634  65.570  1.00  0.00    -0.152 OA 
HETATM    2  C   UNL     1      -9.583   5.526  66.613  1.00  0.00    -0.151 C  
HETATM    3  O   UNL     1     -10.485   6.329  66.796  1.00  0.00    -0.228 OA 
HETATM    4  C   UNL     1      -9.294   4.320  67.500  1.00  0.00    -0.162 C  
ENDROOT
BRANCH   4   5
HETATM    5  O   UNL     1     -10.187   4.293  68.621  1.00  0.00     0.063 OA 
BRANCH   5   6
HETATM    6  C   UNL     1      -9.620   4.048  69.832  1.00  0.00    -0.211 C  
HETATM    7  O   UNL     1      -8.932   3.077  70.104  1.00  0.00    -0.080 OA 
BRANCH   6   8
HETATM    8  C   UNL     1      -9.972   5.157  70.807  1.00  0.00    -0.285 C  
BRANCH   8   9
HETATM    9  C   UNL     1      -8.966   6.285  70.844  1.00  0.00    -0.147 A  
HETATM   10  C   UNL     1      -7.719   6.019  71.444  1.00  0.00    -0.104 A  
HETATM   11  C   UNL     1      -6.721   6.990  71.496  1.00  0.00    -0.052 A  
HETATM   12  C   UNL     1      -6.935   8.231  70.914  1.00  0.00    -0.045 A  
HETATM   13  C   UNL     1      -8.174   8.519  70.339  1.00  0.00    -0.114 A  
HETATM   14  C   UNL     1      -9.217   7.583  70.342  1.00  0.00    -0.157 A  
BRANCH  14  15
HETATM   15  N   UNL     1     -10.501   7.984  69.911  1.00  0.00    -0.229 NA 
HETATM   16  H   UNL     1     -10.870   7.434  69.135  1.00  0.00     0.000 HD 
BRANCH  15  17
HETATM   17  C   UNL     1     -11.376   9.017  70.363  1.00  0.00    -0.210 A  
HETATM   18  C   UNL     1     -12.336   8.671  71.348  1.00  0.00    -0.304 A  
HETATM   19  C   UNL     1     -13.118   9.634  71.998  1.00  0.00    -0.537 A  
HETATM   20 CL   UNL     1     -12.590   7.016  71.804  1.00  0.00    -0.391 Cl 
HETATM   21  C   UNL     1     -12.979  10.974  71.670  1.00  0.00    -0.561 A  
HETATM   22  C   UNL     1     -12.118  11.336  70.640  1.00  0.00    -0.480 A  
HETATM   23  C   UNL     1     -11.337  10.373  69.973  1.00  0.00    -0.313 A  
HETATM   24 CL   UNL     1     -10.302  11.020  68.747  1.00  0.00    -0.202 Cl 
ENDBRANCH  15  17
ENDBRANCH  14  15
ENDBRANCH   8   9
ENDBRANCH   6   8
ENDBRANCH   5   6
ENDBRANCH   4   5
TORSDOF 6
ENDMDL
MODEL      330
REMARK 921   NORMALIZED FREE ENERGY PREDICTED BY IDOCK:   -3.84 KCAL/MOL
REMARK 922        TOTAL FREE ENERGY PREDICTED BY IDOCK:   -6.14 KCAL/MOL
REMARK 923 INTER-LIGAND FREE ENERGY PREDICTED BY IDOCK:   -5.73 KCAL/MOL
REMARK 924 INTRA-LIGAND FREE ENERGY PREDICTED BY IDOCK:   -0.41 KCAL/MOL
REMARK 927      BINDING AFFINITY PREDICTED BY RF-SCORE:    0.00 PKD
ROOT
HETATM    1  O   UNL     1      -6.898  15.485  68.035  1.00  0.00    -0.115 OA 
HETATM    2  C   UNL     1      -7.390  14.292  67.621  1.00  0.00    -0.176 C  
HETATM    3  O   UNL     1      -6.670  13.323  67.438  1.00  0.00    -0.167 OA 
HETATM    4  C   UNL     1      -8.901  14.309  67.420  1.00  0.00    -0.205 C  
ENDROOT
BRANCH   4   5
HETATM    5  O   UNL     1      -9.358  13.046  66.918  1.00  0.00    -0.228 OA 
BRANCH   5   6
HETATM    6  C   UNL     1     -10.655  12.995  66.517  1.00  0.00    -0.282 C  
HETATM    7  O   UNL     1     -11.316  13.952  66.147  1.00  0.00    -0.310 OA 
BRANCH   6   8
HETATM    8  C   UNL     1     -11.171  11.569  66.599  1.00  0.00    -0.336 C  
BRANCH   8   9
HETATM    9  C   UNL     1     -10.249  10.544  65.982  1.00  0.00    -0.310 A  
HETATM   10  C   UNL     1      -9.600  10.898  64.781  1.00  0.00    -0.301 A  
HETATM   11  C   UNL     1      -8.709  10.028  64.158  1.00  0.00    -0.221 A  
HETATM   12  C   UNL     1      -8.419   8.803  64.742  1.00  0.00    -0.179 A  
HETATM   13  C   UNL     1      -9.071   8.426  65.917  1.00  0.00    -0.225 A  
HETATM   14  C   UNL     1     -10.027   9.256  66.520  1.00  0.00    -0.274 A  
BRANCH  14  15
HETATM   15  N   UNL     1     -10.788   8.755  67.600  1.00  0.00    -0.489 NA 
HETATM   16  H   UNL     1     -11.695   8.377  67.330  1.00  0.00     0.000 HD 
BRANCH  15  17
HETATM   17  C   UNL     1     -10.518   8.682  69.000  1.00  0.00    -0.199 A  
HETATM   18  C   UNL     1      -9.635   7.663  69.440  1.00  0.00    -0.159 A  
HETATM   19  C   UNL     1      -9.153   7.609  70.753  1.00  0.00    -0.153 A  
HETATM   20 CL   UNL     1      -9.100   6.418  68.355  1.00  0.00    -0.120 Cl 
HETATM   21  C   UNL     1      -9.554   8.563  71.677  1.00  0.00    -0.319 A  
HETATM   22  C   UNL     1     -10.495   9.517  71.303  1.00  0.00    -0.320 A  
HETATM   23  C   UNL     1     -10.993   9.571  69.988  1.00  0.00    -0.251 A  
HETATM   24 CL   UNL     1     -12.126  10.848  69.708  1.00  0.00    -0.394 Cl 
ENDBRANCH  15  17
ENDBRANCH  14  15
ENDBRANCH   8   9
ENDBRANCH   6   8
ENDBRANCH   5   6
ENDBRANCH   4   5
TORSDOF 6
ENDMDL
MODEL      331
REMARK 921   NORMALIZED FREE ENERGY PREDICTED BY IDOCK:   -3.83 KCAL/MOL
REMARK 922        TOTAL FREE ENERGY PREDICTED BY IDOCK:   -6.14 KCAL/MOL
REMARK 923 INTER-LIGAND FREE ENERGY PREDICTED BY IDOCK:   -4.85 KCAL/MOL
REMARK 924 INTRA-LIGAND FREE ENERGY PREDICTED BY IDOCK:   -1.29 KCAL/MOL
REMARK 927      BINDING AFFINITY PREDICTED BY RF-SCORE:    0.00 PKD
ROOT
HETATM    1  O   UNL     1      -9.623   5.320  67.547  1.00  0.00    -0.124 OA 
HETATM    2  C   UNL     1     -10.127   6.492  67.091  1.00  0.00    -0.170 C  
HETATM    3  O   UNL     1     -11.319   6.750  67.146  1.00  0.00    -0.330 OA 
HETATM    4  C   UNL     1      -9.058   7.418  66.520  1.00  0.00    -0.162 C  
ENDROOT
BRANCH   4   5
HETATM    5  O   UNL     1      -9.653   8.610  65.991  1.00  0.00    -0.236 OA 
BRANCH   5   6
HETATM    6  C   UNL     1      -9.003   9.192  64.950  1.00  0.00    -0.151 C  
HETATM    7  O   UNL     1      -8.538   8.599  63.990  1.00  0.00    -0.127 OA 
BRANCH   6   8
HETATM    8  C   UNL     1      -8.933  10.695  65.152  1.00  0.00    -0.217 C  
BRANCH   8   9
HETATM    9  C   UNL     1      -8.219  11.113  66.417  1.00  0.00    -0.164 A  
HETATM   10  C   UNL     1      -6.810  11.083  66.403  1.00  0.00    -0.118 A  
HETATM   11  C   UNL     1      -6.068  11.481  67.513  1.00  0.00    -0.071 A  
HETATM   12  C   UNL     1      -6.719  11.954  68.643  1.00  0.00    -0.074 A  
HETATM   13  C   UNL     1      -8.114  11.966  68.683  1.00  0.00    -0.086 A  
HETATM   14  C   UNL     1      -8.880  11.500  67.605  1.00  0.00    -0.152 A  
BRANCH  14  15
HETATM   15  N   UNL     1     -10.277  11.365  67.763  1.00  0.00    -0.178 NA 
HETATM   16  H   UNL     1     -10.741  10.901  66.982  1.00  0.00     0.000 HD 
BRANCH  15  17
HETATM   17  C   UNL     1     -11.158  11.759  68.814  1.00  0.00    -0.241 A  
HETATM   18  C   UNL     1     -11.460  10.792  69.807  1.00  0.00    -0.311 A  
HETATM   19  C   UNL     1     -12.156  11.116  70.977  1.00  0.00    -0.380 A  
HETATM   20 CL   UNL     1     -10.969   9.138  69.617  1.00  0.00    -0.206 Cl 
HETATM   21  C   UNL     1     -12.592  12.416  71.185  1.00  0.00    -0.349 A  
HETATM   22  C   UNL     1     -12.399  13.365  70.186  1.00  0.00    -0.322 A  
HETATM   23  C   UNL     1     -11.710  13.045  69.002  1.00  0.00    -0.329 A  
HETATM   24 CL   UNL     1     -11.539  14.365  67.897  1.00  0.00    -0.352 Cl 
ENDBRANCH  15  17
ENDBRANCH  14  15
ENDBRANCH   8   9
ENDBRANCH   6   8
ENDBRANCH   5   6
ENDBRANCH   4   5
TORSDOF 6
ENDMDL
MODEL      332
REMARK 921   NORMALIZED FREE ENERGY PREDICTED BY IDOCK:   -3.83 KCAL/MOL
REMARK 922        TOTAL FREE ENERGY PREDICTED BY IDOCK:   -6.14 KCAL/MOL
REMARK 923 INTER-LIGAND FREE ENERGY PREDICTED BY IDOCK:   -4.80 KCAL/MOL
REMARK 924 INTRA-LIGAND FREE ENERGY PREDICTED BY IDOCK:   -1.34 KCAL/MOL
REMARK 927      BINDING AFFINITY PREDICTED BY RF-SCORE:    0.00 PKD
ROOT
HETATM    1  O   UNL     1      -8.936   7.082  65.805  1.00  0.00    -0.115 OA 
HETATM    2  C   UNL     1      -9.821   6.472  66.630  1.00  0.00    -0.148 C  
HETATM    3  O   UNL     1     -10.865   7.006  66.970  1.00  0.00    -0.348 OA 
HETATM    4  C   UNL     1      -9.367   5.084  67.068  1.00  0.00    -0.128 C  
ENDROOT
BRANCH   4   5
HETATM    5  O   UNL     1     -10.304   4.513  67.990  1.00  0.00     0.041 OA 
BRANCH   5   6
HETATM    6  C   UNL     1      -9.800   4.116  69.188  1.00  0.00    -0.051 C  
HETATM    7  O   UNL     1      -9.087   3.141  69.363  1.00  0.00    -0.104 OA 
BRANCH   6   8
HETATM    8  C   UNL     1     -10.255   5.060  70.286  1.00  0.00    -0.328 C  
BRANCH   8   9
HETATM    9  C   UNL     1      -9.169   5.976  70.800  1.00  0.00    -0.165 A  
HETATM   10  C   UNL     1      -8.124   5.386  71.541  1.00  0.00    -0.117 A  
HETATM   11  C   UNL     1      -7.065   6.148  72.028  1.00  0.00    -0.083 A  
HETATM   12  C   UNL     1      -7.008   7.506  71.751  1.00  0.00    -0.062 A  
HETATM   13  C   UNL     1      -8.047   8.111  71.041  1.00  0.00    -0.103 A  
HETATM   14  C   UNL     1      -9.159   7.376  70.606  1.00  0.00    -0.156 A  
BRANCH  14  15
HETATM   15  N   UNL     1     -10.263   8.063  70.054  1.00  0.00    -0.201 NA 
HETATM   16  H   UNL     1     -10.502   7.772  69.106  1.00  0.00     0.000 HD 
BRANCH  15  17
HETATM   17  C   UNL     1     -11.104   9.089  70.579  1.00  0.00    -0.254 A  
HETATM   18  C   UNL     1     -11.042  10.363  69.959  1.00  0.00    -0.314 A  
HETATM   19  C   UNL     1     -11.948  11.386  70.263  1.00  0.00    -0.460 A  
HETATM   20 CL   UNL     1      -9.825  10.717  68.773  1.00  0.00    -0.190 Cl 
HETATM   21  C   UNL     1     -12.935  11.176  71.215  1.00  0.00    -0.457 A  
HETATM   22  C   UNL     1     -12.961   9.973  71.912  1.00  0.00    -0.547 A  
HETATM   23  C   UNL     1     -12.048   8.942  71.620  1.00  0.00    -0.346 A  
HETATM   24 CL   UNL     1     -12.262   7.510  72.567  1.00  0.00    -0.160 Cl 
ENDBRANCH  15  17
ENDBRANCH  14  15
ENDBRANCH   8   9
ENDBRANCH   6   8
ENDBRANCH   5   6
ENDBRANCH   4   5
TORSDOF 6
ENDMDL
MODEL      333
REMARK 921   NORMALIZED FREE ENERGY PREDICTED BY IDOCK:   -3.83 KCAL/MOL
REMARK 922        TOTAL FREE ENERGY PREDICTED BY IDOCK:   -6.13 KCAL/MOL
REMARK 923 INTER-LIGAND FREE ENERGY PREDICTED BY IDOCK:   -5.54 KCAL/MOL
REMARK 924 INTRA-LIGAND FREE ENERGY PREDICTED BY IDOCK:   -0.60 KCAL/MOL
REMARK 927      BINDING AFFINITY PREDICTED BY RF-SCORE:    0.00 PKD
ROOT
HETATM    1  O   UNL     1      -6.529   5.113  65.647  1.00  0.00    -0.035 OA 
HETATM    2  C   UNL     1      -7.325   6.170  65.350  1.00  0.00    -0.080 C  
HETATM    3  O   UNL     1      -8.405   6.033  64.798  1.00  0.00    -0.137 OA 
HETATM    4  C   UNL     1      -6.724   7.505  65.776  1.00  0.00    -0.045 C  
ENDROOT
BRANCH   4   5
HETATM    5  O   UNL     1      -7.573   8.590  65.378  1.00  0.00    -0.083 OA 
BRANCH   5   6
HETATM    6  C   UNL     1      -8.208   9.253  66.380  1.00  0.00    -0.111 C  
HETATM    7  O   UNL     1      -7.664   9.967  67.207  1.00  0.00    -0.095 OA 
BRANCH   6   8
HETATM    8  C   UNL     1      -9.699   8.972  66.329  1.00  0.00    -0.345 C  
BRANCH   8   9
HETATM    9  C   UNL     1     -10.207   8.134  67.479  1.00  0.00    -0.309 A  
HETATM   10  C   UNL     1     -10.672   6.837  67.178  1.00  0.00    -0.441 A  
HETATM   11  C   UNL     1     -11.130   5.984  68.179  1.00  0.00    -0.246 A  
HETATM   12  C   UNL     1     -11.095   6.394  69.504  1.00  0.00    -0.460 A  
HETATM   13  C   UNL     1     -10.662   7.684  69.817  1.00  0.00    -0.243 A  
HETATM   14  C   UNL     1     -10.267   8.585  68.817  1.00  0.00    -0.200 A  
BRANCH  14  15
HETATM   15  N   UNL     1     -10.012   9.929  69.167  1.00  0.00    -0.187 NA 
HETATM   16  H   UNL     1      -9.025  10.139  69.319  1.00  0.00     0.000 HD 
BRANCH  15  17
HETATM   17  C   UNL     1     -10.881  11.047  69.347  1.00  0.00    -0.231 A  
HETATM   18  C   UNL     1     -11.667  11.077  70.527  1.00  0.00    -0.318 A  
HETATM   19  C   UNL     1     -12.410  12.203  70.899  1.00  0.00    -0.370 A  
HETATM   20 CL   UNL     1     -11.741   9.701  71.583  1.00  0.00    -0.465 Cl 
HETATM   21  C   UNL     1     -12.410  13.331  70.093  1.00  0.00    -0.306 A  
HETATM   22  C   UNL     1     -11.729  13.298  68.880  1.00  0.00    -0.369 A  
HETATM   23  C   UNL     1     -10.987  12.166  68.492  1.00  0.00    -0.238 A  
HETATM   24 CL   UNL     1     -10.182  12.328  66.970  1.00  0.00    -0.226 Cl 
ENDBRANCH  15  17
ENDBRANCH  14  15
ENDBRANCH   8   9
ENDBRANCH   6   8
ENDBRANCH   5   6
ENDBRANCH   4   5
TORSDOF 6
ENDMDL
MODEL      334
REMARK 921   NORMALIZED FREE ENERGY PREDICTED BY IDOCK:   -3.82 KCAL/MOL
REMARK 922        TOTAL FREE ENERGY PREDICTED BY IDOCK:   -6.12 KCAL/MOL
REMARK 923 INTER-LIGAND FREE ENERGY PREDICTED BY IDOCK:   -4.99 KCAL/MOL
REMARK 924 INTRA-LIGAND FREE ENERGY PREDICTED BY IDOCK:   -1.13 KCAL/MOL
REMARK 927      BINDING AFFINITY PREDICTED BY RF-SCORE:    0.00 PKD
ROOT
HETATM    1  O   UNL     1     -14.401   7.071  71.627  1.00  0.00    -0.381 OA 
HETATM    2  C   UNL     1     -13.225   7.741  71.706  1.00  0.00    -0.318 C  
HETATM    3  O   UNL     1     -12.171   7.172  71.942  1.00  0.00    -0.310 OA 
HETATM    4  C   UNL     1     -13.377   9.240  71.474  1.00  0.00    -0.369 C  
ENDROOT
BRANCH   4   5
HETATM    5  O   UNL     1     -12.118   9.906  71.637  1.00  0.00    -0.389 OA 
BRANCH   5   6
HETATM    6  C   UNL     1     -11.482  10.271  70.494  1.00  0.00    -0.343 C  
HETATM    7  O   UNL     1     -11.973  10.936  69.596  1.00  0.00    -0.304 OA 
BRANCH   6   8
HETATM    8  C   UNL     1     -10.065   9.726  70.488  1.00  0.00    -0.289 C  
BRANCH   8   9
HETATM    9  C   UNL     1      -9.438   9.657  69.114  1.00  0.00    -0.172 A  
HETATM   10  C   UNL     1      -8.903  10.850  68.587  1.00  0.00    -0.158 A  
HETATM   11  C   UNL     1      -8.279  10.873  67.342  1.00  0.00    -0.117 A  
HETATM   12  C   UNL     1      -8.141   9.698  66.618  1.00  0.00    -0.119 A  
HETATM   13  C   UNL     1      -8.687   8.513  67.114  1.00  0.00    -0.134 A  
HETATM   14  C   UNL     1      -9.384   8.482  68.330  1.00  0.00    -0.134 A  
BRANCH  14  15
HETATM   15  N   UNL     1     -10.070   7.304  68.699  1.00  0.00    -0.171 NA 
HETATM   16  H   UNL     1     -11.081   7.417  68.774  1.00  0.00     0.000 HD 
BRANCH  15  17
HETATM   17  C   UNL     1      -9.607   5.985  68.987  1.00  0.00    -0.131 A  
HETATM   18  C   UNL     1      -9.771   5.003  67.976  1.00  0.00    -0.151 A  
HETATM   19  C   UNL     1      -9.192   3.732  68.071  1.00  0.00    -0.216 A  
HETATM   20 CL   UNL     1     -10.706   5.337  66.553  1.00  0.00    -0.345 Cl 
HETATM   21  C   UNL     1      -8.446   3.392  69.190  1.00  0.00    -0.094 A  
HETATM   22  C   UNL     1      -8.349   4.297  70.241  1.00  0.00    -0.081 A  
HETATM   23  C   UNL     1      -8.937   5.574  70.160  1.00  0.00    -0.136 A  
HETATM   24 CL   UNL     1      -8.678   6.568  71.551  1.00  0.00    -0.133 Cl 
ENDBRANCH  15  17
ENDBRANCH  14  15
ENDBRANCH   8   9
ENDBRANCH   6   8
ENDBRANCH   5   6
ENDBRANCH   4   5
TORSDOF 6
ENDMDL
MODEL      335
REMARK 921   NORMALIZED FREE ENERGY PREDICTED BY IDOCK:   -3.81 KCAL/MOL
REMARK 922        TOTAL FREE ENERGY PREDICTED BY IDOCK:   -6.11 KCAL/MOL
REMARK 923 INTER-LIGAND FREE ENERGY PREDICTED BY IDOCK:   -4.96 KCAL/MOL
REMARK 924 INTRA-LIGAND FREE ENERGY PREDICTED BY IDOCK:   -1.15 KCAL/MOL
REMARK 927      BINDING AFFINITY PREDICTED BY RF-SCORE:    0.00 PKD
ROOT
HETATM    1  O   UNL     1     -10.886   7.696  73.054  1.00  0.00    -0.353 OA 
HETATM    2  C   UNL     1     -11.147   6.705  72.167  1.00  0.00    -0.254 C  
HETATM    3  O   UNL     1     -11.344   5.553  72.522  1.00  0.00    -0.278 OA 
HETATM    4  C   UNL     1     -11.164   7.189  70.721  1.00  0.00    -0.279 C  
ENDROOT
BRANCH   4   5
HETATM    5  O   UNL     1     -11.377   6.092  69.824  1.00  0.00    -0.409 OA 
BRANCH   5   6
HETATM    6  C   UNL     1     -10.802   6.201  68.598  1.00  0.00    -0.332 C  
HETATM    7  O   UNL     1     -11.340   6.668  67.607  1.00  0.00    -0.246 OA 
BRANCH   6   8
HETATM    8  C   UNL     1      -9.388   5.650  68.633  1.00  0.00    -0.142 C  
BRANCH   8   9
HETATM    9  C   UNL     1      -8.318   6.708  68.780  1.00  0.00    -0.120 A  
HETATM   10  C   UNL     1      -7.600   6.736  69.993  1.00  0.00    -0.100 A  
HETATM   11  C   UNL     1      -6.576   7.657  70.204  1.00  0.00    -0.038 A  
HETATM   12  C   UNL     1      -6.224   8.539  69.193  1.00  0.00    -0.043 A  
HETATM   13  C   UNL     1      -6.942   8.542  67.996  1.00  0.00    -0.074 A  
HETATM   14  C   UNL     1      -8.024   7.674  67.792  1.00  0.00    -0.121 A  
BRANCH  14  15
HETATM   15  N   UNL     1      -8.828   7.838  66.642  1.00  0.00    -0.140 NA 
HETATM   16  H   UNL     1      -9.172   6.964  66.246  1.00  0.00     0.000 HD 
BRANCH  15  17
HETATM   17  C   UNL     1      -9.246   9.004  65.932  1.00  0.00    -0.230 A  
HETATM   18  C   UNL     1      -8.824   9.131  64.584  1.00  0.00    -0.142 A  
HETATM   19  C   UNL     1      -9.322  10.129  63.738  1.00  0.00    -0.336 A  
HETATM   20 CL   UNL     1      -7.658   8.037  63.908  1.00  0.00    -0.120 Cl 
HETATM   21  C   UNL     1     -10.243  11.048  64.218  1.00  0.00    -0.414 A  
HETATM   22  C   UNL     1     -10.602  11.011  65.562  1.00  0.00    -0.267 A  
HETATM   23  C   UNL     1     -10.098  10.018  66.422  1.00  0.00    -0.241 A  
HETATM   24 CL   UNL     1     -10.687  10.115  68.046  1.00  0.00    -0.283 Cl 
ENDBRANCH  15  17
ENDBRANCH  14  15
ENDBRANCH   8   9
ENDBRANCH   6   8
ENDBRANCH   5   6
ENDBRANCH   4   5
TORSDOF 6
ENDMDL
MODEL      336
REMARK 921   NORMALIZED FREE ENERGY PREDICTED BY IDOCK:   -3.80 KCAL/MOL
REMARK 922        TOTAL FREE ENERGY PREDICTED BY IDOCK:   -6.10 KCAL/MOL
REMARK 923 INTER-LIGAND FREE ENERGY PREDICTED BY IDOCK:   -5.04 KCAL/MOL
REMARK 924 INTRA-LIGAND FREE ENERGY PREDICTED BY IDOCK:   -1.06 KCAL/MOL
REMARK 927      BINDING AFFINITY PREDICTED BY RF-SCORE:    0.00 PKD
ROOT
HETATM    1  O   UNL     1     -10.993   7.469  73.276  1.00  0.00    -0.393 OA 
HETATM    2  C   UNL     1     -10.355   7.480  72.080  1.00  0.00    -0.199 C  
HETATM    3  O   UNL     1      -9.816   6.485  71.624  1.00  0.00    -0.168 OA 
HETATM    4  C   UNL     1     -10.393   8.844  71.399  1.00  0.00    -0.307 C  
ENDROOT
BRANCH   4   5
HETATM    5  O   UNL     1      -9.648   8.817  70.174  1.00  0.00    -0.163 OA 
BRANCH   5   6
HETATM    6  C   UNL     1      -8.459   9.474  70.182  1.00  0.00    -0.205 C  
HETATM    7  O   UNL     1      -7.785   9.698  71.175  1.00  0.00    -0.302 OA 
BRANCH   6   8
HETATM    8  C   UNL     1      -8.087   9.897  68.772  1.00  0.00    -0.102 C  
BRANCH   8   9
HETATM    9  C   UNL     1      -9.121  10.769  68.098  1.00  0.00    -0.151 A  
HETATM   10  C   UNL     1      -8.985  12.165  68.244  1.00  0.00    -0.186 A  
HETATM   11  C   UNL     1      -9.874  13.045  67.632  1.00  0.00    -0.212 A  
HETATM   12  C   UNL     1     -10.892  12.549  66.830  1.00  0.00    -0.280 A  
HETATM   13  C   UNL     1     -11.057  11.170  66.696  1.00  0.00    -0.255 A  
HETATM   14  C   UNL     1     -10.219  10.266  67.364  1.00  0.00    -0.218 A  
BRANCH  14  15
HETATM   15  N   UNL     1     -10.537   8.889  67.341  1.00  0.00    -0.374 NA 
HETATM   16  H   UNL     1     -11.430   8.661  67.777  1.00  0.00     0.000 HD 
BRANCH  15  17
HETATM   17  C   UNL     1      -9.837   7.760  66.819  1.00  0.00    -0.241 A  
HETATM   18  C   UNL     1     -10.183   6.485  67.334  1.00  0.00    -0.177 A  
HETATM   19  C   UNL     1      -9.702   5.297  66.771  1.00  0.00    -0.174 A  
HETATM   20 CL   UNL     1     -11.238   6.334  68.704  1.00  0.00    -0.413 Cl 
HETATM   21  C   UNL     1      -8.841   5.346  65.685  1.00  0.00    -0.153 A  
HETATM   22  C   UNL     1      -8.404   6.581  65.219  1.00  0.00    -0.121 A  
HETATM   23  C   UNL     1      -8.875   7.780  65.786  1.00  0.00    -0.106 A  
HETATM   24 CL   UNL     1      -8.245   9.213  65.048  1.00  0.00    -0.140 Cl 
ENDBRANCH  15  17
ENDBRANCH  14  15
ENDBRANCH   8   9
ENDBRANCH   6   8
ENDBRANCH   5   6
ENDBRANCH   4   5
TORSDOF 6
ENDMDL
MODEL      337
REMARK 921   NORMALIZED FREE ENERGY PREDICTED BY IDOCK:   -3.80 KCAL/MOL
REMARK 922        TOTAL FREE ENERGY PREDICTED BY IDOCK:   -6.09 KCAL/MOL
REMARK 923 INTER-LIGAND FREE ENERGY PREDICTED BY IDOCK:   -5.71 KCAL/MOL
REMARK 924 INTRA-LIGAND FREE ENERGY PREDICTED BY IDOCK:   -0.38 KCAL/MOL
REMARK 927      BINDING AFFINITY PREDICTED BY RF-SCORE:    0.00 PKD
ROOT
HETATM    1  O   UNL     1      -8.491   8.745  72.744  1.00  0.00    -0.414 OA 
HETATM    2  C   UNL     1      -9.052   8.222  71.626  1.00  0.00    -0.185 C  
HETATM    3  O   UNL     1      -9.652   7.159  71.638  1.00  0.00    -0.157 OA 
HETATM    4  C   UNL     1      -8.846   9.096  70.393  1.00  0.00    -0.220 C  
ENDROOT
BRANCH   4   5
HETATM    5  O   UNL     1      -9.398   8.465  69.230  1.00  0.00    -0.153 OA 
BRANCH   5   6
HETATM    6  C   UNL     1     -10.466   9.083  68.663  1.00  0.00    -0.200 C  
HETATM    7  O   UNL     1     -11.207   9.870  69.231  1.00  0.00    -0.211 OA 
BRANCH   6   8
HETATM    8  C   UNL     1     -10.614   8.649  67.216  1.00  0.00    -0.308 C  
BRANCH   8   9
HETATM    9  C   UNL     1      -9.300   8.421  66.505  1.00  0.00    -0.259 A  
HETATM   10  C   UNL     1      -8.747   7.126  66.568  1.00  0.00    -0.139 A  
HETATM   11  C   UNL     1      -7.555   6.817  65.917  1.00  0.00    -0.087 A  
HETATM   12  C   UNL     1      -6.915   7.785  65.156  1.00  0.00    -0.059 A  
HETATM   13  C   UNL     1      -7.435   9.079  65.104  1.00  0.00    -0.097 A  
HETATM   14  C   UNL     1      -8.592   9.430  65.813  1.00  0.00    -0.145 A  
BRANCH  14  15
HETATM   15  N   UNL     1      -8.975  10.789  65.872  1.00  0.00    -0.178 NA 
HETATM   16  H   UNL     1      -8.313  11.386  66.367  1.00  0.00     0.000 HD 
BRANCH  15  17
HETATM   17  C   UNL     1     -10.118  11.478  65.368  1.00  0.00    -0.260 A  
HETATM   18  C   UNL     1     -10.452  11.273  64.004  1.00  0.00    -0.378 A  
HETATM   19  C   UNL     1     -11.648  11.744  63.450  1.00  0.00    -0.419 A  
HETATM   20 CL   UNL     1      -9.379  10.415  62.944  1.00  0.00    -0.308 Cl 
HETATM   21  C   UNL     1     -12.543  12.453  64.237  1.00  0.00    -0.494 A  
HETATM   22  C   UNL     1     -12.201  12.755  65.551  1.00  0.00    -0.519 A  
HETATM   23  C   UNL     1     -10.995  12.296  66.113  1.00  0.00    -0.293 A  
HETATM   24 CL   UNL     1     -10.764  12.743  67.768  1.00  0.00    -0.227 Cl 
ENDBRANCH  15  17
ENDBRANCH  14  15
ENDBRANCH   8   9
ENDBRANCH   6   8
ENDBRANCH   5   6
ENDBRANCH   4   5
TORSDOF 6
ENDMDL
MODEL      338
REMARK 921   NORMALIZED FREE ENERGY PREDICTED BY IDOCK:   -3.80 KCAL/MOL
REMARK 922        TOTAL FREE ENERGY PREDICTED BY IDOCK:   -6.09 KCAL/MOL
REMARK 923 INTER-LIGAND FREE ENERGY PREDICTED BY IDOCK:   -5.15 KCAL/MOL
REMARK 924 INTRA-LIGAND FREE ENERGY PREDICTED BY IDOCK:   -0.94 KCAL/MOL
REMARK 927      BINDING AFFINITY PREDICTED BY RF-SCORE:    0.00 PKD
ROOT
HETATM    1  O   UNL     1     -10.566  10.526  66.138  1.00  0.00    -0.200 OA 
HETATM    2  C   UNL     1     -10.699  10.376  67.478  1.00  0.00    -0.287 C  
HETATM    3  O   UNL     1     -11.777  10.494  68.040  1.00  0.00    -0.450 OA 
HETATM    4  C   UNL     1      -9.382  10.053  68.175  1.00  0.00    -0.131 C  
ENDROOT
BRANCH   4   5
HETATM    5  O   UNL     1      -9.568   9.973  69.594  1.00  0.00    -0.214 OA 
BRANCH   5   6
HETATM    6  C   UNL     1      -8.512   9.506  70.311  1.00  0.00    -0.207 C  
HETATM    7  O   UNL     1      -7.338   9.650  70.010  1.00  0.00    -0.094 OA 
BRANCH   6   8
HETATM    8  C   UNL     1      -9.003   8.771  71.545  1.00  0.00    -0.306 C  
BRANCH   8   9
HETATM    9  C   UNL     1     -10.407   8.227  71.420  1.00  0.00    -0.270 A  
HETATM   10  C   UNL     1     -11.442   8.962  72.035  1.00  0.00    -0.431 A  
HETATM   11  C   UNL     1     -12.770   8.551  71.946  1.00  0.00    -0.401 A  
HETATM   12  C   UNL     1     -13.094   7.423  71.206  1.00  0.00    -0.349 A  
HETATM   13  C   UNL     1     -12.080   6.670  70.613  1.00  0.00    -0.342 A  
HETATM   14  C   UNL     1     -10.730   7.024  70.753  1.00  0.00    -0.228 A  
BRANCH  14  15
HETATM   15  N   UNL     1      -9.736   6.135  70.289  1.00  0.00    -0.163 NA 
HETATM   16  H   UNL     1      -9.139   6.523  69.559  1.00  0.00     0.000 HD 
BRANCH  15  17
HETATM   17  C   UNL     1      -9.414   4.793  70.654  1.00  0.00    -0.171 A  
HETATM   18  C   UNL     1      -9.319   3.839  69.609  1.00  0.00    -0.175 A  
HETATM   19  C   UNL     1      -8.831   2.544  69.823  1.00  0.00    -0.141 A  
HETATM   20 CL   UNL     1      -9.808   4.237  67.992  1.00  0.00    -0.157 Cl 
HETATM   21  C   UNL     1      -8.440   2.154  71.095  1.00  0.00    -0.087 A  
HETATM   22  C   UNL     1      -8.612   3.033  72.159  1.00  0.00    -0.092 A  
HETATM   23  C   UNL     1      -9.113   4.332  71.955  1.00  0.00    -0.122 A  
HETATM   24 CL   UNL     1      -9.222   5.288  73.393  1.00  0.00    -0.131 Cl 
ENDBRANCH  15  17
ENDBRANCH  14  15
ENDBRANCH   8   9
ENDBRANCH   6   8
ENDBRANCH   5   6
ENDBRANCH   4   5
TORSDOF 6
ENDMDL
MODEL      339
REMARK 921   NORMALIZED FREE ENERGY PREDICTED BY IDOCK:   -3.79 KCAL/MOL
REMARK 922        TOTAL FREE ENERGY PREDICTED BY IDOCK:   -6.09 KCAL/MOL
REMARK 923 INTER-LIGAND FREE ENERGY PREDICTED BY IDOCK:   -5.28 KCAL/MOL
REMARK 924 INTRA-LIGAND FREE ENERGY PREDICTED BY IDOCK:   -0.80 KCAL/MOL
REMARK 927      BINDING AFFINITY PREDICTED BY RF-SCORE:    0.00 PKD
ROOT
HETATM    1  O   UNL     1     -13.186  11.480  71.868  1.00  0.00    -0.485 OA 
HETATM    2  C   UNL     1     -12.598  10.605  71.015  1.00  0.00    -0.416 C  
HETATM    3  O   UNL     1     -12.637  10.755  69.804  1.00  0.00    -0.264 OA 
HETATM    4  C   UNL     1     -11.907   9.450  71.731  1.00  0.00    -0.382 C  
ENDROOT
BRANCH   4   5
HETATM    5  O   UNL     1     -11.363   8.521  70.783  1.00  0.00    -0.265 OA 
BRANCH   5   6
HETATM    6  C   UNL     1     -11.949   7.296  70.741  1.00  0.00    -0.272 C  
HETATM    7  O   UNL     1     -12.980   6.989  71.318  1.00  0.00    -0.378 OA 
BRANCH   6   8
HETATM    8  C   UNL     1     -11.132   6.356  69.874  1.00  0.00    -0.444 C  
BRANCH   8   9
HETATM    9  C   UNL     1      -9.975   5.702  70.595  1.00  0.00    -0.260 A  
HETATM   10  C   UNL     1     -10.266   4.582  71.401  1.00  0.00    -0.183 A  
HETATM   11  C   UNL     1      -9.259   3.899  72.078  1.00  0.00    -0.173 A  
HETATM   12  C   UNL     1      -7.938   4.296  71.930  1.00  0.00    -0.088 A  
HETATM   13  C   UNL     1      -7.635   5.417  71.157  1.00  0.00    -0.097 A  
HETATM   14  C   UNL     1      -8.641   6.164  70.528  1.00  0.00    -0.138 A  
BRANCH  14  15
HETATM   15  N   UNL     1      -8.303   7.389  69.910  1.00  0.00    -0.132 NA 
HETATM   16  H   UNL     1      -7.766   8.020  70.504  1.00  0.00     0.000 HD 
BRANCH  15  17
HETATM   17  C   UNL     1      -8.575   7.903  68.607  1.00  0.00    -0.128 A  
HETATM   18  C   UNL     1      -8.459   7.005  67.515  1.00  0.00    -0.122 A  
HETATM   19  C   UNL     1      -8.878   7.343  66.223  1.00  0.00    -0.182 A  
HETATM   20 CL   UNL     1      -7.784   5.421  67.733  1.00  0.00    -0.091 Cl 
HETATM   21  C   UNL     1      -9.411   8.599  65.975  1.00  0.00    -0.284 A  
HETATM   22  C   UNL     1      -9.447   9.537  67.002  1.00  0.00    -0.197 A  
HETATM   23  C   UNL     1      -9.017   9.209  68.302  1.00  0.00    -0.129 A  
HETATM   24 CL   UNL     1      -9.173  10.494  69.449  1.00  0.00    -0.172 Cl 
ENDBRANCH  15  17
ENDBRANCH  14  15
ENDBRANCH   8   9
ENDBRANCH   6   8
ENDBRANCH   5   6
ENDBRANCH   4   5
TORSDOF 6
ENDMDL
MODEL      340
REMARK 921   NORMALIZED FREE ENERGY PREDICTED BY IDOCK:   -3.78 KCAL/MOL
REMARK 922        TOTAL FREE ENERGY PREDICTED BY IDOCK:   -6.06 KCAL/MOL
REMARK 923 INTER-LIGAND FREE ENERGY PREDICTED BY IDOCK:   -5.05 KCAL/MOL
REMARK 924 INTRA-LIGAND FREE ENERGY PREDICTED BY IDOCK:   -1.02 KCAL/MOL
REMARK 927      BINDING AFFINITY PREDICTED BY RF-SCORE:    0.00 PKD
ROOT
HETATM    1  O   UNL     1      -9.949   6.494  69.729  1.00  0.00    -0.163 OA 
HETATM    2  C   UNL     1      -9.423   6.963  68.571  1.00  0.00    -0.133 C  
HETATM    3  O   UNL     1      -9.765   6.529  67.482  1.00  0.00    -0.119 OA 
HETATM    4  C   UNL     1      -8.386   8.059  68.789  1.00  0.00    -0.127 C  
ENDROOT
BRANCH   4   5
HETATM    5  O   UNL     1      -7.814   8.468  67.540  1.00  0.00    -0.097 OA 
BRANCH   5   6
HETATM    6  C   UNL     1      -7.219   9.689  67.525  1.00  0.00    -0.090 C  
HETATM    7  O   UNL     1      -6.047   9.905  67.790  1.00  0.00    -0.053 OA 
BRANCH   6   8
HETATM    8  C   UNL     1      -8.226  10.756  67.136  1.00  0.00    -0.123 C  
BRANCH   8   9
HETATM    9  C   UNL     1      -8.667  10.689  65.692  1.00  0.00    -0.198 A  
HETATM   10  C   UNL     1      -7.676  10.421  64.726  1.00  0.00    -0.069 A  
HETATM   11  C   UNL     1      -7.997  10.312  63.375  1.00  0.00    -0.147 A  
HETATM   12  C   UNL     1      -9.318  10.427  62.968  1.00  0.00    -0.344 A  
HETATM   13  C   UNL     1     -10.308  10.718  63.908  1.00  0.00    -0.329 A  
HETATM   14  C   UNL     1      -9.996  10.906  65.263  1.00  0.00    -0.273 A  
BRANCH  14  15
HETATM   15  N   UNL     1     -11.000  11.375  66.139  1.00  0.00    -0.270 NA 
HETATM   16  H   UNL     1     -11.750  10.705  66.309  1.00  0.00     0.000 HD 
BRANCH  15  17
HETATM   17  C   UNL     1     -11.156  12.613  66.831  1.00  0.00    -0.273 A  
HETATM   18  C   UNL     1     -11.310  12.557  68.239  1.00  0.00    -0.286 A  
HETATM   19  C   UNL     1     -11.285  13.706  69.039  1.00  0.00    -0.316 A  
HETATM   20 CL   UNL     1     -11.538  11.040  69.051  1.00  0.00    -0.359 Cl 
HETATM   21  C   UNL     1     -11.124  14.953  68.454  1.00  0.00    -0.282 A  
HETATM   22  C   UNL     1     -11.069  15.051  67.068  1.00  0.00    -0.334 A  
HETATM   23  C   UNL     1     -11.105  13.902  66.255  1.00  0.00    -0.304 A  
HETATM   24 CL   UNL     1     -10.989  14.224  64.560  1.00  0.00    -0.356 Cl 
ENDBRANCH  15  17
ENDBRANCH  14  15
ENDBRANCH   8   9
ENDBRANCH   6   8
ENDBRANCH   5   6
ENDBRANCH   4   5
TORSDOF 6
ENDMDL
MODEL      341
REMARK 921   NORMALIZED FREE ENERGY PREDICTED BY IDOCK:   -3.77 KCAL/MOL
REMARK 922        TOTAL FREE ENERGY PREDICTED BY IDOCK:   -6.06 KCAL/MOL
REMARK 923 INTER-LIGAND FREE ENERGY PREDICTED BY IDOCK:   -5.80 KCAL/MOL
REMARK 924 INTRA-LIGAND FREE ENERGY PREDICTED BY IDOCK:   -0.26 KCAL/MOL
REMARK 927      BINDING AFFINITY PREDICTED BY RF-SCORE:    0.00 PKD
ROOT
HETATM    1  O   UNL     1      -8.741  18.099  66.977  1.00  0.00    -0.246 OA 
HETATM    2  C   UNL     1      -9.442  18.023  68.134  1.00  0.00    -0.289 C  
HETATM    3  O   UNL     1      -9.191  18.738  69.091  1.00  0.00    -0.192 OA 
HETATM    4  C   UNL     1     -10.544  16.970  68.095  1.00  0.00    -0.369 C  
ENDROOT
BRANCH   4   5
HETATM    5  O   UNL     1     -11.206  16.885  69.364  1.00  0.00    -0.104 OA 
BRANCH   5   6
HETATM    6  C   UNL     1     -11.169  15.675  69.979  1.00  0.00    -0.325 C  
HETATM    7  O   UNL     1     -10.540  15.419  70.992  1.00  0.00    -0.191 OA 
BRANCH   6   8
HETATM    8  C   UNL     1     -12.023  14.676  69.218  1.00  0.00    -0.337 C  
BRANCH   8   9
HETATM    9  C   UNL     1     -12.103  13.314  69.866  1.00  0.00    -0.377 A  
HETATM   10  C   UNL     1     -12.593  13.255  71.187  1.00  0.00    -0.412 A  
HETATM   11  C   UNL     1     -12.730  12.039  71.853  1.00  0.00    -0.208 A  
HETATM   12  C   UNL     1     -12.418  10.856  71.198  1.00  0.00    -0.511 A  
HETATM   13  C   UNL     1     -11.908  10.898  69.900  1.00  0.00    -0.427 A  
HETATM   14  C   UNL     1     -11.692  12.116  69.239  1.00  0.00    -0.328 A  
BRANCH  14  15
HETATM   15  N   UNL     1     -11.008  12.114  68.003  1.00  0.00    -0.216 NA 
HETATM   16  H   UNL     1     -10.773  11.183  67.659  1.00  0.00     0.000 HD 
BRANCH  15  17
HETATM   17  C   UNL     1     -10.587  13.176  67.148  1.00  0.00    -0.257 A  
HETATM   18  C   UNL     1      -9.251  13.632  67.287  1.00  0.00    -0.232 A  
HETATM   19  C   UNL     1      -8.673  14.533  66.385  1.00  0.00     0.036 A  
HETATM   20 CL   UNL     1      -8.255  13.085  68.599  1.00  0.00    -0.053 Cl 
HETATM   21  C   UNL     1      -9.418  15.024  65.324  1.00  0.00     0.201 A  
HETATM   22  C   UNL     1     -10.760  14.674  65.216  1.00  0.00    -0.396 A  
HETATM   23  C   UNL     1     -11.352  13.777  66.125  1.00  0.00    -0.314 A  
HETATM   24 CL   UNL     1     -13.018  13.436  65.806  1.00  0.00    -0.253 Cl 
ENDBRANCH  15  17
ENDBRANCH  14  15
ENDBRANCH   8   9
ENDBRANCH   6   8
ENDBRANCH   5   6
ENDBRANCH   4   5
TORSDOF 6
ENDMDL
MODEL      342
REMARK 921   NORMALIZED FREE ENERGY PREDICTED BY IDOCK:   -3.77 KCAL/MOL
REMARK 922        TOTAL FREE ENERGY PREDICTED BY IDOCK:   -6.05 KCAL/MOL
REMARK 923 INTER-LIGAND FREE ENERGY PREDICTED BY IDOCK:   -4.98 KCAL/MOL
REMARK 924 INTRA-LIGAND FREE ENERGY PREDICTED BY IDOCK:   -1.07 KCAL/MOL
REMARK 927      BINDING AFFINITY PREDICTED BY RF-SCORE:    0.00 PKD
ROOT
HETATM    1  O   UNL     1      -6.858  15.835  67.038  1.00  0.00    -0.230 OA 
HETATM    2  C   UNL     1      -6.350  14.712  67.602  1.00  0.00    -0.111 C  
HETATM    3  O   UNL     1      -5.288  14.230  67.242  1.00  0.00    -0.289 OA 
HETATM    4  C   UNL     1      -7.239  14.145  68.704  1.00  0.00    -0.116 C  
ENDROOT
BRANCH   4   5
HETATM    5  O   UNL     1      -6.690  12.924  69.217  1.00  0.00    -0.109 OA 
BRANCH   5   6
HETATM    6  C   UNL     1      -7.206  11.775  68.708  1.00  0.00    -0.113 C  
HETATM    7  O   UNL     1      -6.553  10.806  68.355  1.00  0.00    -0.054 OA 
BRANCH   6   8
HETATM    8  C   UNL     1      -8.719  11.869  68.635  1.00  0.00    -0.034 C  
BRANCH   8   9
HETATM    9  C   UNL     1      -9.301  11.426  67.313  1.00  0.00    -0.173 A  
HETATM   10  C   UNL     1      -9.784  12.432  66.450  1.00  0.00    -0.246 A  
HETATM   11  C   UNL     1     -10.309  12.118  65.199  1.00  0.00    -0.311 A  
HETATM   12  C   UNL     1     -10.324  10.800  64.768  1.00  0.00    -0.380 A  
HETATM   13  C   UNL     1      -9.873   9.790  65.619  1.00  0.00    -0.371 A  
HETATM   14  C   UNL     1      -9.411  10.075  66.912  1.00  0.00    -0.159 A  
BRANCH  14  15
HETATM   15  N   UNL     1      -9.137   9.008  67.795  1.00  0.00    -0.134 NA 
HETATM   16  H   UNL     1      -8.143   8.826  67.933  1.00  0.00     0.000 HD 
BRANCH  15  17
HETATM   17  C   UNL     1      -9.997   8.136  68.528  1.00  0.00    -0.190 A  
HETATM   18  C   UNL     1     -10.116   6.800  68.067  1.00  0.00    -0.159 A  
HETATM   19  C   UNL     1     -10.777   5.812  68.806  1.00  0.00    -0.318 A  
HETATM   20 CL   UNL     1      -9.434   6.319  66.545  1.00  0.00    -0.176 Cl 
HETATM   21  C   UNL     1     -11.361   6.132  70.023  1.00  0.00    -0.443 A  
HETATM   22  C   UNL     1     -11.347   7.454  70.456  1.00  0.00    -0.295 A  
HETATM   23  C   UNL     1     -10.694   8.456  69.714  1.00  0.00    -0.211 A  
HETATM   24 CL   UNL     1     -10.755  10.029  70.432  1.00  0.00    -0.362 Cl 
ENDBRANCH  15  17
ENDBRANCH  14  15
ENDBRANCH   8   9
ENDBRANCH   6   8
ENDBRANCH   5   6
ENDBRANCH   4   5
TORSDOF 6
ENDMDL
MODEL      343
REMARK 921   NORMALIZED FREE ENERGY PREDICTED BY IDOCK:   -3.77 KCAL/MOL
REMARK 922        TOTAL FREE ENERGY PREDICTED BY IDOCK:   -6.05 KCAL/MOL
REMARK 923 INTER-LIGAND FREE ENERGY PREDICTED BY IDOCK:   -5.12 KCAL/MOL
REMARK 924 INTRA-LIGAND FREE ENERGY PREDICTED BY IDOCK:   -0.93 KCAL/MOL
REMARK 927      BINDING AFFINITY PREDICTED BY RF-SCORE:    0.00 PKD
ROOT
HETATM    1  O   UNL     1      -6.552   5.191  73.248  1.00  0.00    -0.065 OA 
HETATM    2  C   UNL     1      -7.799   5.620  72.934  1.00  0.00    -0.098 C  
HETATM    3  O   UNL     1      -8.658   5.791  73.784  1.00  0.00    -0.119 OA 
HETATM    4  C   UNL     1      -7.989   5.852  71.439  1.00  0.00    -0.113 C  
ENDROOT
BRANCH   4   5
HETATM    5  O   UNL     1      -9.341   6.238  71.157  1.00  0.00    -0.159 OA 
BRANCH   5   6
HETATM    6  C   UNL     1     -10.067   5.369  70.406  1.00  0.00    -0.244 C  
HETATM    7  O   UNL     1      -9.862   4.169  70.323  1.00  0.00    -0.203 OA 
BRANCH   6   8
HETATM    8  C   UNL     1     -11.173   6.108  69.675  1.00  0.00    -0.488 C  
BRANCH   8   9
HETATM    9  C   UNL     1     -11.525   7.446  70.282  1.00  0.00    -0.206 A  
HETATM   10  C   UNL     1     -12.177   7.438  71.533  1.00  0.00    -0.368 A  
HETATM   11  C   UNL     1     -12.511   8.624  72.181  1.00  0.00    -0.453 A  
HETATM   12  C   UNL     1     -12.165   9.841  71.612  1.00  0.00    -0.488 A  
HETATM   13  C   UNL     1     -11.543   9.869  70.363  1.00  0.00    -0.356 A  
HETATM   14  C   UNL     1     -11.265   8.688  69.659  1.00  0.00     0.079 A  
BRANCH  14  15
HETATM   15  N   UNL     1     -10.802   8.775  68.328  1.00  0.00    -0.457 NA 
HETATM   16  H   UNL     1     -11.230   8.102  67.693  1.00  0.00     0.000 HD 
BRANCH  15  17
HETATM   17  C   UNL     1      -9.844   9.633  67.709  1.00  0.00    -0.159 A  
HETATM   18  C   UNL     1      -8.515   9.151  67.596  1.00  0.00    -0.116 A  
HETATM   19  C   UNL     1      -7.540   9.819  66.847  1.00  0.00    -0.095 A  
HETATM   20 CL   UNL     1      -8.029   7.686  68.389  1.00  0.00    -0.121 Cl 
HETATM   21  C   UNL     1      -7.856  11.005  66.201  1.00  0.00    -0.117 A  
HETATM   22  C   UNL     1      -9.121  11.556  66.372  1.00  0.00    -0.206 A  
HETATM   23  C   UNL     1     -10.105  10.896  67.133  1.00  0.00    -0.198 A  
HETATM   24 CL   UNL     1     -11.625  11.719  67.201  1.00  0.00    -0.372 Cl 
ENDBRANCH  15  17
ENDBRANCH  14  15
ENDBRANCH   8   9
ENDBRANCH   6   8
ENDBRANCH   5   6
ENDBRANCH   4   5
TORSDOF 6
ENDMDL
MODEL      344
REMARK 921   NORMALIZED FREE ENERGY PREDICTED BY IDOCK:   -3.75 KCAL/MOL
REMARK 922        TOTAL FREE ENERGY PREDICTED BY IDOCK:   -6.03 KCAL/MOL
REMARK 923 INTER-LIGAND FREE ENERGY PREDICTED BY IDOCK:   -5.12 KCAL/MOL
REMARK 924 INTRA-LIGAND FREE ENERGY PREDICTED BY IDOCK:   -0.92 KCAL/MOL
REMARK 927      BINDING AFFINITY PREDICTED BY RF-SCORE:    0.00 PKD
ROOT
HETATM    1  O   UNL     1      -8.120  16.132  67.012  1.00  0.00    -0.169 OA 
HETATM    2  C   UNL     1      -8.484  14.965  67.597  1.00  0.00    -0.167 C  
HETATM    3  O   UNL     1      -7.980  13.898  67.282  1.00  0.00    -0.176 OA 
HETATM    4  C   UNL     1      -9.562  15.142  68.660  1.00  0.00    -0.213 C  
ENDROOT
BRANCH   4   5
HETATM    5  O   UNL     1      -9.956  13.872  69.196  1.00  0.00    -0.051 OA 
BRANCH   5   6
HETATM    6  C   UNL     1     -11.269  13.547  69.063  1.00  0.00    -0.269 C  
HETATM    7  O   UNL     1     -12.204  14.212  69.479  1.00  0.00    -0.326 OA 
BRANCH   6   8
HETATM    8  C   UNL     1     -11.408  12.229  68.324  1.00  0.00    -0.339 C  
BRANCH   8   9
HETATM    9  C   UNL     1     -11.282  12.348  66.823  1.00  0.00    -0.363 A  
HETATM   10  C   UNL     1     -11.719  13.551  66.231  1.00  0.00    -0.401 A  
HETATM   11  C   UNL     1     -11.613  13.761  64.858  1.00  0.00    -0.362 A  
HETATM   12  C   UNL     1     -11.032  12.790  64.056  1.00  0.00    -0.454 A  
HETATM   13  C   UNL     1     -10.618  11.583  64.621  1.00  0.00    -0.369 A  
HETATM   14  C   UNL     1     -10.784  11.321  65.988  1.00  0.00    -0.242 A  
BRANCH  14  15
HETATM   15  N   UNL     1     -10.517  10.023  66.477  1.00  0.00    -0.189 NA 
HETATM   16  H   UNL     1     -11.336   9.417  66.516  1.00  0.00     0.000 HD 
BRANCH  15  17
HETATM   17  C   UNL     1      -9.311   9.406  66.926  1.00  0.00    -0.147 A  
HETATM   18  C   UNL     1      -9.354   8.723  68.169  1.00  0.00    -0.140 A  
HETATM   19  C   UNL     1      -8.294   7.928  68.619  1.00  0.00    -0.128 A  
HETATM   20 CL   UNL     1     -10.742   8.841  69.203  1.00  0.00    -0.195 Cl 
HETATM   21  C   UNL     1      -7.146   7.804  67.850  1.00  0.00    -0.086 A  
HETATM   22  C   UNL     1      -7.034   8.538  66.674  1.00  0.00    -0.076 A  
HETATM   23  C   UNL     1      -8.090   9.349  66.219  1.00  0.00    -0.111 A  
HETATM   24 CL   UNL     1      -7.776  10.155  64.721  1.00  0.00    -0.143 Cl 
ENDBRANCH  15  17
ENDBRANCH  14  15
ENDBRANCH   8   9
ENDBRANCH   6   8
ENDBRANCH   5   6
ENDBRANCH   4   5
TORSDOF 6
ENDMDL
MODEL      345
REMARK 921   NORMALIZED FREE ENERGY PREDICTED BY IDOCK:   -3.74 KCAL/MOL
REMARK 922        TOTAL FREE ENERGY PREDICTED BY IDOCK:   -6.02 KCAL/MOL
REMARK 923 INTER-LIGAND FREE ENERGY PREDICTED BY IDOCK:   -4.85 KCAL/MOL
REMARK 924 INTRA-LIGAND FREE ENERGY PREDICTED BY IDOCK:   -1.17 KCAL/MOL
REMARK 927      BINDING AFFINITY PREDICTED BY RF-SCORE:    0.00 PKD
ROOT
HETATM    1  O   UNL     1     -10.094   8.304  66.567  1.00  0.00    -0.273 OA 
HETATM    2  C   UNL     1     -10.178   7.038  67.042  1.00  0.00    -0.260 C  
HETATM    3  O   UNL     1     -11.186   6.361  66.908  1.00  0.00    -0.368 OA 
HETATM    4  C   UNL     1      -8.904   6.578  67.742  1.00  0.00    -0.113 C  
ENDROOT
BRANCH   4   5
HETATM    5  O   UNL     1      -9.072   5.261  68.283  1.00  0.00    -0.108 OA 
BRANCH   5   6
HETATM    6  C   UNL     1      -9.023   5.159  69.636  1.00  0.00    -0.106 C  
HETATM    7  O   UNL     1      -8.036   4.847  70.284  1.00  0.00    -0.074 OA 
BRANCH   6   8
HETATM    8  C   UNL     1     -10.380   5.484  70.234  1.00  0.00    -0.349 C  
BRANCH   8   9
HETATM    9  C   UNL     1     -10.354   5.722  71.726  1.00  0.00    -0.271 A  
HETATM   10  C   UNL     1     -10.472   4.593  72.563  1.00  0.00    -0.257 A  
HETATM   11  C   UNL     1     -10.428   4.714  73.950  1.00  0.00    -0.309 A  
HETATM   12  C   UNL     1     -10.225   5.959  74.527  1.00  0.00    -0.293 A  
HETATM   13  C   UNL     1     -10.132   7.090  73.715  1.00  0.00    -0.390 A  
HETATM   14  C   UNL     1     -10.249   7.000  72.320  1.00  0.00    -0.186 A  
BRANCH  14  15
HETATM   15  N   UNL     1     -10.329   8.188  71.560  1.00  0.00    -0.201 NA 
HETATM   16  H   UNL     1     -11.250   8.628  71.571  1.00  0.00     0.000 HD 
BRANCH  15  17
HETATM   17  C   UNL     1      -9.359   8.884  70.779  1.00  0.00    -0.230 A  
HETATM   18  C   UNL     1      -9.838   9.843  69.849  1.00  0.00    -0.245 A  
HETATM   19  C   UNL     1      -8.980  10.713  69.167  1.00  0.00    -0.139 A  
HETATM   20 CL   UNL     1     -11.534   9.985  69.511  1.00  0.00    -0.216 Cl 
HETATM   21  C   UNL     1      -7.611  10.642  69.377  1.00  0.00    -0.135 A  
HETATM   22  C   UNL     1      -7.102   9.649  70.207  1.00  0.00    -0.127 A  
HETATM   23  C   UNL     1      -7.956   8.761  70.888  1.00  0.00    -0.135 A  
HETATM   24 CL   UNL     1      -7.139   7.620  71.900  1.00  0.00    -0.062 Cl 
ENDBRANCH  15  17
ENDBRANCH  14  15
ENDBRANCH   8   9
ENDBRANCH   6   8
ENDBRANCH   5   6
ENDBRANCH   4   5
TORSDOF 6
ENDMDL
MODEL      346
REMARK 921   NORMALIZED FREE ENERGY PREDICTED BY IDOCK:   -3.73 KCAL/MOL
REMARK 922        TOTAL FREE ENERGY PREDICTED BY IDOCK:   -6.00 KCAL/MOL
REMARK 923 INTER-LIGAND FREE ENERGY PREDICTED BY IDOCK:   -5.01 KCAL/MOL
REMARK 924 INTRA-LIGAND FREE ENERGY PREDICTED BY IDOCK:   -1.00 KCAL/MOL
REMARK 927      BINDING AFFINITY PREDICTED BY RF-SCORE:    0.00 PKD
ROOT
HETATM    1  O   UNL     1     -10.508   5.793  73.118  1.00  0.00    -0.199 OA 
HETATM    2  C   UNL     1     -10.964   6.342  71.966  1.00  0.00    -0.256 C  
HETATM    3  O   UNL     1     -11.943   7.072  71.939  1.00  0.00    -0.294 OA 
HETATM    4  C   UNL     1     -10.135   5.947  70.749  1.00  0.00    -0.199 C  
ENDROOT
BRANCH   4   5
HETATM    5  O   UNL     1     -10.701   6.498  69.552  1.00  0.00    -0.221 OA 
BRANCH   5   6
HETATM    6  C   UNL     1      -9.876   7.275  68.802  1.00  0.00    -0.161 C  
HETATM    7  O   UNL     1      -8.682   7.428  68.999  1.00  0.00    -0.132 OA 
BRANCH   6   8
HETATM    8  C   UNL     1     -10.658   7.936  67.682  1.00  0.00    -0.276 C  
BRANCH   8   9
HETATM    9  C   UNL     1     -10.571   9.445  67.676  1.00  0.00    -0.333 A  
HETATM   10  C   UNL     1     -10.908  10.116  68.870  1.00  0.00    -0.256 A  
HETATM   11  C   UNL     1     -10.828  11.503  68.966  1.00  0.00    -0.258 A  
HETATM   12  C   UNL     1     -10.370  12.243  67.885  1.00  0.00    -0.216 A  
HETATM   13  C   UNL     1     -10.057  11.597  66.688  1.00  0.00    -0.238 A  
HETATM   14  C   UNL     1     -10.202  10.210  66.547  1.00  0.00    -0.223 A  
BRANCH  14  15
HETATM   15  N   UNL     1     -10.046   9.630  65.268  1.00  0.00    -0.340 NA 
HETATM   16  H   UNL     1     -10.826   9.038  64.982  1.00  0.00     0.000 HD 
BRANCH  15  17
HETATM   17  C   UNL     1      -8.997   9.721  64.305  1.00  0.00    -0.237 A  
HETATM   18  C   UNL     1      -9.149  10.674  63.265  1.00  0.00    -0.257 A  
HETATM   19  C   UNL     1      -8.111  10.982  62.378  1.00  0.00    -0.205 A  
HETATM   20 CL   UNL     1     -10.649  11.519  63.043  1.00  0.00    -0.275 Cl 
HETATM   21  C   UNL     1      -6.891  10.331  62.487  1.00  0.00    -0.141 A  
HETATM   22  C   UNL     1      -6.742   9.321  63.432  1.00  0.00    -0.091 A  
HETATM   23  C   UNL     1      -7.784   8.998  64.321  1.00  0.00    -0.123 A  
HETATM   24 CL   UNL     1      -7.398   7.741  65.446  1.00  0.00    -0.074 Cl 
ENDBRANCH  15  17
ENDBRANCH  14  15
ENDBRANCH   8   9
ENDBRANCH   6   8
ENDBRANCH   5   6
ENDBRANCH   4   5
TORSDOF 6
ENDMDL
MODEL      347
REMARK 921   NORMALIZED FREE ENERGY PREDICTED BY IDOCK:   -3.73 KCAL/MOL
REMARK 922        TOTAL FREE ENERGY PREDICTED BY IDOCK:   -6.00 KCAL/MOL
REMARK 923 INTER-LIGAND FREE ENERGY PREDICTED BY IDOCK:   -4.69 KCAL/MOL
REMARK 924 INTRA-LIGAND FREE ENERGY PREDICTED BY IDOCK:   -1.31 KCAL/MOL
REMARK 927      BINDING AFFINITY PREDICTED BY RF-SCORE:    0.00 PKD
ROOT
HETATM    1  O   UNL     1      -8.556  11.520  66.309  1.00  0.00    -0.180 OA 
HETATM    2  C   UNL     1      -8.746  10.378  67.013  1.00  0.00    -0.130 C  
HETATM    3  O   UNL     1      -8.559  10.321  68.218  1.00  0.00    -0.117 OA 
HETATM    4  C   UNL     1      -9.207   9.213  66.144  1.00  0.00    -0.205 C  
ENDROOT
BRANCH   4   5
HETATM    5  O   UNL     1      -9.326   8.017  66.926  1.00  0.00    -0.145 OA 
BRANCH   5   6
HETATM    6  C   UNL     1      -9.094   6.849  66.272  1.00  0.00    -0.141 C  
HETATM    7  O   UNL     1      -8.109   6.605  65.595  1.00  0.00    -0.112 OA 
BRANCH   6   8
HETATM    8  C   UNL     1     -10.244   5.885  66.501  1.00  0.00    -0.217 C  
BRANCH   8   9
HETATM    9  C   UNL     1      -9.977   4.850  67.570  1.00  0.00    -0.202 A  
HETATM   10  C   UNL     1      -9.657   3.546  67.141  1.00  0.00    -0.160 A  
HETATM   11  C   UNL     1      -9.366   2.536  68.055  1.00  0.00    -0.254 A  
HETATM   12  C   UNL     1      -9.350   2.820  69.413  1.00  0.00    -0.189 A  
HETATM   13  C   UNL     1      -9.690   4.099  69.856  1.00  0.00    -0.280 A  
HETATM   14  C   UNL     1     -10.059   5.110  68.957  1.00  0.00    -0.187 A  
BRANCH  14  15
HETATM   15  N   UNL     1     -10.566   6.327  69.462  1.00  0.00    -0.240 NA 
HETATM   16  H   UNL     1     -11.300   6.743  68.888  1.00  0.00     0.000 HD 
BRANCH  15  17
HETATM   17  C   UNL     1     -10.240   7.082  70.629  1.00  0.00    -0.191 A  
HETATM   18  C   UNL     1     -11.267   7.272  71.589  1.00  0.00    -0.245 A  
HETATM   19  C   UNL     1     -11.017   7.830  72.848  1.00  0.00    -0.467 A  
HETATM   20 CL   UNL     1     -12.905   6.811  71.245  1.00  0.00    -0.335 Cl 
HETATM   21  C   UNL     1      -9.733   8.236  73.182  1.00  0.00    -0.208 A  
HETATM   22  C   UNL     1      -8.725   8.155  72.228  1.00  0.00    -0.243 A  
HETATM   23  C   UNL     1      -8.970   7.605  70.955  1.00  0.00    -0.146 A  
HETATM   24 CL   UNL     1      -7.585   7.557  69.921  1.00  0.00    -0.091 Cl 
ENDBRANCH  15  17
ENDBRANCH  14  15
ENDBRANCH   8   9
ENDBRANCH   6   8
ENDBRANCH   5   6
ENDBRANCH   4   5
TORSDOF 6
ENDMDL
MODEL      348
REMARK 921   NORMALIZED FREE ENERGY PREDICTED BY IDOCK:   -3.72 KCAL/MOL
REMARK 922        TOTAL FREE ENERGY PREDICTED BY IDOCK:   -5.99 KCAL/MOL
REMARK 923 INTER-LIGAND FREE ENERGY PREDICTED BY IDOCK:   -5.26 KCAL/MOL
REMARK 924 INTRA-LIGAND FREE ENERGY PREDICTED BY IDOCK:   -0.73 KCAL/MOL
REMARK 927      BINDING AFFINITY PREDICTED BY RF-SCORE:    0.00 PKD
ROOT
HETATM    1  O   UNL     1     -13.351  12.892  72.401  1.00  0.00    -0.528 OA 
HETATM    2  C   UNL     1     -12.863  12.669  71.156  1.00  0.00    -0.220 C  
HETATM    3  O   UNL     1     -12.591  13.583  70.394  1.00  0.00    -0.279 OA 
HETATM    4  C   UNL     1     -12.702  11.187  70.837  1.00  0.00    -0.344 C  
ENDROOT
BRANCH   4   5
HETATM    5  O   UNL     1     -12.248  11.008  69.489  1.00  0.00    -0.336 OA 
BRANCH   5   6
HETATM    6  C   UNL     1     -10.905  10.907  69.317  1.00  0.00    -0.241 C  
HETATM    7  O   UNL     1     -10.208  11.715  68.725  1.00  0.00    -0.212 OA 
BRANCH   6   8
HETATM    8  C   UNL     1     -10.390   9.634  69.965  1.00  0.00    -0.298 C  
BRANCH   8   9
HETATM    9  C   UNL     1     -10.347   8.444  69.035  1.00  0.00    -0.231 A  
HETATM   10  C   UNL     1     -10.509   8.694  67.657  1.00  0.00    -0.311 A  
HETATM   11  C   UNL     1     -10.453   7.661  66.724  1.00  0.00    -0.319 A  
HETATM   12  C   UNL     1     -10.193   6.365  67.146  1.00  0.00    -0.254 A  
HETATM   13  C   UNL     1     -10.055   6.096  68.508  1.00  0.00    -0.193 A  
HETATM   14  C   UNL     1     -10.183   7.109  69.470  1.00  0.00    -0.195 A  
BRANCH  14  15
HETATM   15  N   UNL     1     -10.214   6.757  70.838  1.00  0.00    -0.195 NA 
HETATM   16  H   UNL     1     -11.099   6.967  71.300  1.00  0.00     0.000 HD 
BRANCH  15  17
HETATM   17  C   UNL     1      -9.236   6.164  71.690  1.00  0.00    -0.145 A  
HETATM   18  C   UNL     1      -9.700   5.282  72.699  1.00  0.00    -0.151 A  
HETATM   19  C   UNL     1      -8.828   4.503  73.468  1.00  0.00    -0.101 A  
HETATM   20 CL   UNL     1     -11.397   5.124  73.032  1.00  0.00    -0.385 Cl 
HETATM   21  C   UNL     1      -7.459   4.593  73.267  1.00  0.00    -0.083 A  
HETATM   22  C   UNL     1      -6.967   5.519  72.354  1.00  0.00    -0.082 A  
HETATM   23  C   UNL     1      -7.836   6.315  71.584  1.00  0.00    -0.102 A  
HETATM   24 CL   UNL     1      -7.037   7.380  70.480  1.00  0.00    -0.056 Cl 
ENDBRANCH  15  17
ENDBRANCH  14  15
ENDBRANCH   8   9
ENDBRANCH   6   8
ENDBRANCH   5   6
ENDBRANCH   4   5
TORSDOF 6
ENDMDL
MODEL      349
REMARK 921   NORMALIZED FREE ENERGY PREDICTED BY IDOCK:   -3.72 KCAL/MOL
REMARK 922        TOTAL FREE ENERGY PREDICTED BY IDOCK:   -5.99 KCAL/MOL
REMARK 923 INTER-LIGAND FREE ENERGY PREDICTED BY IDOCK:   -4.83 KCAL/MOL
REMARK 924 INTRA-LIGAND FREE ENERGY PREDICTED BY IDOCK:   -1.16 KCAL/MOL
REMARK 927      BINDING AFFINITY PREDICTED BY RF-SCORE:    0.00 PKD
ROOT
HETATM    1  O   UNL     1      -8.080   4.469  66.911  1.00  0.00    -0.101 OA 
HETATM    2  C   UNL     1      -8.688   5.412  66.150  1.00  0.00    -0.129 C  
HETATM    3  O   UNL     1      -9.897   5.429  65.984  1.00  0.00    -0.152 OA 
HETATM    4  C   UNL     1      -7.709   6.413  65.547  1.00  0.00    -0.096 C  
ENDROOT
BRANCH   4   5
HETATM    5  O   UNL     1      -8.396   7.343  64.699  1.00  0.00    -0.080 OA 
BRANCH   5   6
HETATM    6  C   UNL     1      -8.178   8.659  64.954  1.00  0.00    -0.157 C  
HETATM    7  O   UNL     1      -7.093   9.216  64.905  1.00  0.00    -0.092 OA 
BRANCH   6   8
HETATM    8  C   UNL     1      -9.483   9.344  65.317  1.00  0.00    -0.296 C  
BRANCH   8   9
HETATM    9  C   UNL     1      -9.625   9.658  66.789  1.00  0.00    -0.225 A  
HETATM   10  C   UNL     1     -10.119   8.634  67.623  1.00  0.00    -0.271 A  
HETATM   11  C   UNL     1     -10.253   8.825  68.997  1.00  0.00    -0.218 A  
HETATM   12  C   UNL     1      -9.859  10.026  69.568  1.00  0.00    -0.249 A  
HETATM   13  C   UNL     1      -9.393  11.059  68.753  1.00  0.00    -0.185 A  
HETATM   14  C   UNL     1      -9.320  10.914  67.360  1.00  0.00    -0.155 A  
BRANCH  14  15
HETATM   15  N   UNL     1      -9.015  12.043  66.567  1.00  0.00    -0.237 NA 
HETATM   16  H   UNL     1      -8.333  11.862  65.831  1.00  0.00     0.000 HD 
BRANCH  15  17
HETATM   17  C   UNL     1      -9.485  13.390  66.609  1.00  0.00    -0.260 A  
HETATM   18  C   UNL     1     -10.822  13.625  66.199  1.00  0.00    -0.279 A  
HETATM   19  C   UNL     1     -11.449  14.865  66.373  1.00  0.00    -0.280 A  
HETATM   20 CL   UNL     1     -11.760  12.368  65.456  1.00  0.00    -0.439 Cl 
HETATM   21  C   UNL     1     -10.751  15.918  66.944  1.00  0.00    -0.289 A  
HETATM   22  C   UNL     1      -9.409  15.749  67.266  1.00  0.00    -0.219 A  
HETATM   23  C   UNL     1      -8.768  14.509  67.085  1.00  0.00    -0.219 A  
HETATM   24 CL   UNL     1      -7.110  14.485  67.577  1.00  0.00    -0.204 Cl 
ENDBRANCH  15  17
ENDBRANCH  14  15
ENDBRANCH   8   9
ENDBRANCH   6   8
ENDBRANCH   5   6
ENDBRANCH   4   5
TORSDOF 6
ENDMDL
MODEL      350
REMARK 921   NORMALIZED FREE ENERGY PREDICTED BY IDOCK:   -3.69 KCAL/MOL
REMARK 922        TOTAL FREE ENERGY PREDICTED BY IDOCK:   -5.94 KCAL/MOL
REMARK 923 INTER-LIGAND FREE ENERGY PREDICTED BY IDOCK:   -5.05 KCAL/MOL
REMARK 924 INTRA-LIGAND FREE ENERGY PREDICTED BY IDOCK:   -0.89 KCAL/MOL
REMARK 927      BINDING AFFINITY PREDICTED BY RF-SCORE:    0.00 PKD
ROOT
HETATM    1  O   UNL     1      -5.854  11.629  71.353  1.00  0.00    -0.343 OA 
HETATM    2  C   UNL     1      -6.121  11.629  70.024  1.00  0.00    -0.158 C  
HETATM    3  O   UNL     1      -6.062  12.646  69.351  1.00  0.00    -0.092 OA 
HETATM    4  C   UNL     1      -6.493  10.249  69.492  1.00  0.00    -0.060 C  
ENDROOT
BRANCH   4   5
HETATM    5  O   UNL     1      -6.832  10.319  68.100  1.00  0.00    -0.065 OA 
BRANCH   5   6
HETATM    6  C   UNL     1      -6.700   9.167  67.393  1.00  0.00    -0.069 C  
HETATM    7  O   UNL     1      -6.260   9.084  66.258  1.00  0.00    -0.062 OA 
BRANCH   6   8
HETATM    8  C   UNL     1      -7.188   7.989  68.218  1.00  0.00    -0.093 C  
BRANCH   8   9
HETATM    9  C   UNL     1      -8.490   7.395  67.733  1.00  0.00    -0.118 A  
HETATM   10  C   UNL     1      -8.640   5.997  67.835  1.00  0.00    -0.113 A  
HETATM   11  C   UNL     1      -9.818   5.366  67.441  1.00  0.00    -0.175 A  
HETATM   12  C   UNL     1     -10.883   6.124  66.976  1.00  0.00    -0.435 A  
HETATM   13  C   UNL     1     -10.742   7.506  66.845  1.00  0.00    -0.299 A  
HETATM   14  C   UNL     1      -9.539   8.152  67.165  1.00  0.00    -0.174 A  
BRANCH  14  15
HETATM   15  N   UNL     1      -9.388   9.520  66.846  1.00  0.00    -0.142 NA 
HETATM   16  H   UNL     1      -8.781  10.032  67.485  1.00  0.00     0.000 HD 
BRANCH  15  17
HETATM   17  C   UNL     1      -9.930  10.316  65.792  1.00  0.00    -0.271 A  
HETATM   18  C   UNL     1     -10.833  11.348  66.155  1.00  0.00    -0.255 A  
HETATM   19  C   UNL     1     -11.280  12.305  65.236  1.00  0.00    -0.372 A  
HETATM   20 CL   UNL     1     -11.432  11.478  67.778  1.00  0.00    -0.357 Cl 
HETATM   21  C   UNL     1     -10.855  12.250  63.917  1.00  0.00    -0.464 A  
HETATM   22  C   UNL     1     -10.048  11.193  63.507  1.00  0.00    -0.437 A  
HETATM   23  C   UNL     1      -9.603  10.221  64.422  1.00  0.00    -0.316 A  
HETATM   24 CL   UNL     1      -8.580   9.008  63.731  1.00  0.00    -0.180 Cl 
ENDBRANCH  15  17
ENDBRANCH  14  15
ENDBRANCH   8   9
ENDBRANCH   6   8
ENDBRANCH   5   6
ENDBRANCH   4   5
TORSDOF 6
ENDMDL
MODEL      351
REMARK 921   NORMALIZED FREE ENERGY PREDICTED BY IDOCK:   -3.69 KCAL/MOL
REMARK 922        TOTAL FREE ENERGY PREDICTED BY IDOCK:   -5.94 KCAL/MOL
REMARK 923 INTER-LIGAND FREE ENERGY PREDICTED BY IDOCK:   -4.99 KCAL/MOL
REMARK 924 INTRA-LIGAND FREE ENERGY PREDICTED BY IDOCK:   -0.95 KCAL/MOL
REMARK 927      BINDING AFFINITY PREDICTED BY RF-SCORE:    0.00 PKD
ROOT
HETATM    1  O   UNL     1      -7.265   8.217  69.765  1.00  0.00    -0.062 OA 
HETATM    2  C   UNL     1      -7.953   9.341  70.081  1.00  0.00    -0.137 C  
HETATM    3  O   UNL     1      -8.169   9.665  71.238  1.00  0.00    -0.186 OA 
HETATM    4  C   UNL     1      -8.407  10.124  68.854  1.00  0.00    -0.130 C  
ENDROOT
BRANCH   4   5
HETATM    5  O   UNL     1      -9.186  11.264  69.243  1.00  0.00     0.036 OA 
BRANCH   5   6
HETATM    6  C   UNL     1     -10.428  11.354  68.700  1.00  0.00    -0.201 C  
HETATM    7  O   UNL     1     -11.274  10.475  68.730  1.00  0.00    -0.243 OA 
BRANCH   6   8
HETATM    8  C   UNL     1     -10.614  12.709  68.042  1.00  0.00    -0.233 C  
BRANCH   8   9
HETATM    9  C   UNL     1     -10.941  13.823  69.008  1.00  0.00    -0.277 A  
HETATM   10  C   UNL     1     -12.003  13.606  69.910  1.00  0.00    -0.415 A  
HETATM   11  C   UNL     1     -12.355  14.566  70.856  1.00  0.00    -0.415 A  
HETATM   12  C   UNL     1     -11.627  15.743  70.947  1.00  0.00    -0.440 A  
HETATM   13  C   UNL     1     -10.589  15.985  70.046  1.00  0.00    -0.297 A  
HETATM   14  C   UNL     1     -10.267  15.065  69.038  1.00  0.00    -0.242 A  
BRANCH  14  15
HETATM   15  N   UNL     1      -9.334  15.435  68.044  1.00  0.00    -0.195 NA 
HETATM   16  H   UNL     1      -9.480  14.976  67.145  1.00  0.00     0.000 HD 
BRANCH  15  17
HETATM   17  C   UNL     1      -8.224  16.331  68.068  1.00  0.00    -0.156 A  
HETATM   18  C   UNL     1      -8.424  17.629  67.533  1.00  0.00    -0.219 A  
HETATM   19  C   UNL     1      -7.473  18.648  67.670  1.00  0.00    -0.241 A  
HETATM   20 CL   UNL     1      -9.879  18.024  66.674  1.00  0.00    -0.334 Cl 
HETATM   21  C   UNL     1      -6.280  18.396  68.331  1.00  0.00    -0.199 A  
HETATM   22  C   UNL     1      -6.011  17.107  68.780  1.00  0.00    -0.155 A  
HETATM   23  C   UNL     1      -6.957  16.075  68.636  1.00  0.00    -0.133 A  
HETATM   24 CL   UNL     1      -6.455  14.553  69.289  1.00  0.00    -0.115 Cl 
ENDBRANCH  15  17
ENDBRANCH  14  15
ENDBRANCH   8   9
ENDBRANCH   6   8
ENDBRANCH   5   6
ENDBRANCH   4   5
TORSDOF 6
ENDMDL
MODEL      352
REMARK 921   NORMALIZED FREE ENERGY PREDICTED BY IDOCK:   -3.67 KCAL/MOL
REMARK 922        TOTAL FREE ENERGY PREDICTED BY IDOCK:   -5.92 KCAL/MOL
REMARK 923 INTER-LIGAND FREE ENERGY PREDICTED BY IDOCK:   -5.05 KCAL/MOL
REMARK 924 INTRA-LIGAND FREE ENERGY PREDICTED BY IDOCK:   -0.87 KCAL/MOL
REMARK 927      BINDING AFFINITY PREDICTED BY RF-SCORE:    0.00 PKD
ROOT
HETATM    1  O   UNL     1      -9.897   5.337  72.841  1.00  0.00    -0.153 OA 
HETATM    2  C   UNL     1     -10.465   6.568  72.811  1.00  0.00    -0.215 C  
HETATM    3  O   UNL     1     -10.594   7.246  73.818  1.00  0.00    -0.364 OA 
HETATM    4  C   UNL     1     -10.909   6.984  71.414  1.00  0.00    -0.229 C  
ENDROOT
BRANCH   4   5
HETATM    5  O   UNL     1     -11.563   8.260  71.451  1.00  0.00    -0.264 OA 
BRANCH   5   6
HETATM    6  C   UNL     1     -11.177   9.159  70.509  1.00  0.00    -0.264 C  
HETATM    7  O   UNL     1     -11.301  10.369  70.598  1.00  0.00    -0.319 OA 
BRANCH   6   8
HETATM    8  C   UNL     1     -10.572   8.439  69.317  1.00  0.00    -0.193 C  
BRANCH   8   9
HETATM    9  C   UNL     1      -9.214   8.961  68.907  1.00  0.00    -0.140 A  
HETATM   10  C   UNL     1      -8.211   9.001  69.898  1.00  0.00    -0.124 A  
HETATM   11  C   UNL     1      -6.922   9.439  69.602  1.00  0.00    -0.058 A  
HETATM   12  C   UNL     1      -6.599   9.806  68.304  1.00  0.00    -0.056 A  
HETATM   13  C   UNL     1      -7.586   9.796  67.317  1.00  0.00    -0.088 A  
HETATM   14  C   UNL     1      -8.908   9.431  67.610  1.00  0.00    -0.115 A  
BRANCH  14  15
HETATM   15  N   UNL     1      -9.904   9.610  66.624  1.00  0.00    -0.209 NA 
HETATM   16  H   UNL     1     -10.836   9.313  66.915  1.00  0.00     0.000 HD 
BRANCH  15  17
HETATM   17  C   UNL     1      -9.845  10.129  65.296  1.00  0.00    -0.319 A  
HETATM   18  C   UNL     1     -10.475  11.377  65.057  1.00  0.00    -0.303 A  
HETATM   19  C   UNL     1     -10.324  12.069  63.850  1.00  0.00    -0.433 A  
HETATM   20 CL   UNL     1     -11.473  12.118  66.268  1.00  0.00    -0.417 Cl 
HETATM   21  C   UNL     1      -9.554  11.526  62.832  1.00  0.00    -0.314 A  
HETATM   22  C   UNL     1      -9.005  10.259  62.998  1.00  0.00    -0.252 A  
HETATM   23  C   UNL     1      -9.161   9.551  64.205  1.00  0.00    -0.153 A  
HETATM   24 CL   UNL     1      -8.376   8.010  64.233  1.00  0.00    -0.067 Cl 
ENDBRANCH  15  17
ENDBRANCH  14  15
ENDBRANCH   8   9
ENDBRANCH   6   8
ENDBRANCH   5   6
ENDBRANCH   4   5
TORSDOF 6
ENDMDL
MODEL      353
REMARK 921   NORMALIZED FREE ENERGY PREDICTED BY IDOCK:   -3.66 KCAL/MOL
REMARK 922        TOTAL FREE ENERGY PREDICTED BY IDOCK:   -5.90 KCAL/MOL
REMARK 923 INTER-LIGAND FREE ENERGY PREDICTED BY IDOCK:   -5.14 KCAL/MOL
REMARK 924 INTRA-LIGAND FREE ENERGY PREDICTED BY IDOCK:   -0.76 KCAL/MOL
REMARK 927      BINDING AFFINITY PREDICTED BY RF-SCORE:    0.00 PKD
ROOT
HETATM    1  O   UNL     1      -9.043  10.947  65.418  1.00  0.00    -0.191 OA 
HETATM    2  C   UNL     1      -7.980  11.410  66.120  1.00  0.00     0.021 C  
HETATM    3  O   UNL     1      -6.964  10.748  66.268  1.00  0.00    -0.125 OA 
HETATM    4  C   UNL     1      -8.200  12.810  66.681  1.00  0.00     0.180 C  
ENDROOT
BRANCH   4   5
HETATM    5  O   UNL     1      -7.075  13.221  67.468  1.00  0.00    -0.153 OA 
BRANCH   5   6
HETATM    6  C   UNL     1      -7.359  13.764  68.681  1.00  0.00    -0.117 C  
HETATM    7  O   UNL     1      -6.643  13.698  69.667  1.00  0.00    -0.108 OA 
BRANCH   6   8
HETATM    8  C   UNL     1      -8.705  14.465  68.637  1.00  0.00    -0.164 C  
BRANCH   8   9
HETATM    9  C   UNL     1      -8.656  15.855  68.046  1.00  0.00    -0.164 A  
HETATM   10  C   UNL     1      -7.466  16.590  68.220  1.00  0.00    -0.171 A  
HETATM   11  C   UNL     1      -7.321  17.867  67.683  1.00  0.00    -0.211 A  
HETATM   12  C   UNL     1      -8.346  18.418  66.929  1.00  0.00    -0.261 A  
HETATM   13  C   UNL     1      -9.541  17.715  66.769  1.00  0.00    -0.297 A  
HETATM   14  C   UNL     1      -9.736  16.460  67.363  1.00  0.00    -0.238 A  
BRANCH  14  15
HETATM   15  N   UNL     1     -11.020  15.873  67.323  1.00  0.00    -0.281 NA 
HETATM   16  H   UNL     1     -11.723  16.372  67.867  1.00  0.00     0.000 HD 
BRANCH  15  17
HETATM   17  C   UNL     1     -11.513  14.708  66.661  1.00  0.00    -0.357 A  
HETATM   18  C   UNL     1     -11.576  14.743  65.245  1.00  0.00    -0.338 A  
HETATM   19  C   UNL     1     -11.863  13.604  64.483  1.00  0.00    -0.445 A  
HETATM   20 CL   UNL     1     -11.294  16.219  64.376  1.00  0.00    -0.343 Cl 
HETATM   21  C   UNL     1     -12.117  12.395  65.113  1.00  0.00    -0.464 A  
HETATM   22  C   UNL     1     -12.159  12.350  66.503  1.00  0.00    -0.179 A  
HETATM   23  C   UNL     1     -11.883  13.493  67.277  1.00  0.00    -0.385 A  
HETATM   24 CL   UNL     1     -11.950  13.230  68.985  1.00  0.00    -0.351 Cl 
ENDBRANCH  15  17
ENDBRANCH  14  15
ENDBRANCH   8   9
ENDBRANCH   6   8
ENDBRANCH   5   6
ENDBRANCH   4   5
TORSDOF 6
ENDMDL
MODEL      354
REMARK 921   NORMALIZED FREE ENERGY PREDICTED BY IDOCK:   -3.61 KCAL/MOL
REMARK 922        TOTAL FREE ENERGY PREDICTED BY IDOCK:   -5.84 KCAL/MOL
REMARK 923 INTER-LIGAND FREE ENERGY PREDICTED BY IDOCK:   -4.25 KCAL/MOL
REMARK 924 INTRA-LIGAND FREE ENERGY PREDICTED BY IDOCK:   -1.59 KCAL/MOL
REMARK 927      BINDING AFFINITY PREDICTED BY RF-SCORE:    0.00 PKD
ROOT
HETATM    1  O   UNL     1      -5.583  12.268  69.367  1.00  0.00    -0.070 OA 
HETATM    2  C   UNL     1      -6.408  11.271  68.965  1.00  0.00    -0.060 C  
HETATM    3  O   UNL     1      -7.161  10.701  69.739  1.00  0.00    -0.134 OA 
HETATM    4  C   UNL     1      -6.285  10.960  67.477  1.00  0.00    -0.053 C  
ENDROOT
BRANCH   4   5
HETATM    5  O   UNL     1      -7.127   9.855  67.121  1.00  0.00    -0.084 OA 
BRANCH   5   6
HETATM    6  C   UNL     1      -8.121  10.121  66.235  1.00  0.00    -0.124 C  
HETATM    7  O   UNL     1      -8.052  10.927  65.321  1.00  0.00    -0.077 OA 
BRANCH   6   8
HETATM    8  C   UNL     1      -9.341   9.274  66.549  1.00  0.00    -0.231 C  
BRANCH   8   9
HETATM    9  C   UNL     1     -10.151   9.772  67.724  1.00  0.00    -0.223 A  
HETATM   10  C   UNL     1     -11.038  10.843  67.490  1.00  0.00    -0.375 A  
HETATM   11  C   UNL     1     -11.846  11.346  68.507  1.00  0.00    -0.364 A  
HETATM   12  C   UNL     1     -11.812  10.763  69.766  1.00  0.00    -0.409 A  
HETATM   13  C   UNL     1     -10.922   9.719  70.021  1.00  0.00    -0.319 A  
HETATM   14  C   UNL     1     -10.047   9.248  69.032  1.00  0.00    -0.199 A  
BRANCH  14  15
HETATM   15  N   UNL     1      -9.045   8.318  69.389  1.00  0.00    -0.153 NA 
HETATM   16  H   UNL     1      -8.093   8.671  69.284  1.00  0.00     0.000 HD 
BRANCH  15  17
HETATM   17  C   UNL     1      -9.120   6.976  69.868  1.00  0.00    -0.141 A  
HETATM   18  C   UNL     1      -9.004   6.777  71.268  1.00  0.00    -0.139 A  
HETATM   19  C   UNL     1      -9.247   5.536  71.868  1.00  0.00    -0.156 A  
HETATM   20 CL   UNL     1      -8.553   8.083  72.318  1.00  0.00    -0.190 Cl 
HETATM   21  C   UNL     1      -9.595   4.446  71.085  1.00  0.00    -0.245 A  
HETATM   22  C   UNL     1      -9.620   4.583  69.701  1.00  0.00    -0.270 A  
HETATM   23  C   UNL     1      -9.366   5.825  69.089  1.00  0.00    -0.123 A  
HETATM   24 CL   UNL     1      -9.479   5.804  67.362  1.00  0.00    -0.111 Cl 
ENDBRANCH  15  17
ENDBRANCH  14  15
ENDBRANCH   8   9
ENDBRANCH   6   8
ENDBRANCH   5   6
ENDBRANCH   4   5
TORSDOF 6
ENDMDL
MODEL      355
REMARK 921   NORMALIZED FREE ENERGY PREDICTED BY IDOCK:   -3.60 KCAL/MOL
REMARK 922        TOTAL FREE ENERGY PREDICTED BY IDOCK:   -5.82 KCAL/MOL
REMARK 923 INTER-LIGAND FREE ENERGY PREDICTED BY IDOCK:   -4.98 KCAL/MOL
REMARK 924 INTRA-LIGAND FREE ENERGY PREDICTED BY IDOCK:   -0.85 KCAL/MOL
REMARK 927      BINDING AFFINITY PREDICTED BY RF-SCORE:    0.00 PKD
ROOT
HETATM    1  O   UNL     1      -8.507   5.977  66.695  1.00  0.00    -0.109 OA 
HETATM    2  C   UNL     1      -9.366   7.004  66.484  1.00  0.00    -0.159 C  
HETATM    3  O   UNL     1     -10.493   7.012  66.952  1.00  0.00    -0.269 OA 
HETATM    4  C   UNL     1      -8.770   8.110  65.619  1.00  0.00    -0.145 C  
ENDROOT
BRANCH   4   5
HETATM    5  O   UNL     1      -9.741   9.135  65.372  1.00  0.00    -0.207 OA 
BRANCH   5   6
HETATM    6  C   UNL     1      -9.692  10.216  66.193  1.00  0.00    -0.218 C  
HETATM    7  O   UNL     1      -9.903  10.197  67.395  1.00  0.00    -0.175 OA 
BRANCH   6   8
HETATM    8  C   UNL     1      -9.342  11.461  65.398  1.00  0.00    -0.206 C  
BRANCH   8   9
HETATM    9  C   UNL     1     -10.287  12.620  65.621  1.00  0.00    -0.293 A  
HETATM   10  C   UNL     1     -11.646  12.415  65.305  1.00  0.00    -0.419 A  
HETATM   11  C   UNL     1     -12.593  13.417  65.507  1.00  0.00    -0.520 A  
HETATM   12  C   UNL     1     -12.207  14.627  66.065  1.00  0.00    -0.166 A  
HETATM   13  C   UNL     1     -10.862  14.855  66.359  1.00  0.00    -0.325 A  
HETATM   14  C   UNL     1      -9.882  13.888  66.095  1.00  0.00    -0.302 A  
BRANCH  14  15
HETATM   15  N   UNL     1      -8.520  14.233  66.241  1.00  0.00    -0.160 NA 
HETATM   16  H   UNL     1      -7.942  13.994  65.436  1.00  0.00     0.000 HD 
BRANCH  15  17
HETATM   17  C   UNL     1      -7.806  14.854  67.309  1.00  0.00    -0.206 A  
HETATM   18  C   UNL     1      -7.736  16.271  67.307  1.00  0.00    -0.178 A  
HETATM   19  C   UNL     1      -7.227  16.994  68.393  1.00  0.00    -0.202 A  
HETATM   20 CL   UNL     1      -8.287  17.189  65.941  1.00  0.00    -0.147 Cl 
HETATM   21  C   UNL     1      -6.753  16.322  69.510  1.00  0.00    -0.198 A  
HETATM   22  C   UNL     1      -6.717  14.932  69.503  1.00  0.00    -0.165 A  
HETATM   23  C   UNL     1      -7.216  14.197  68.411  1.00  0.00    -0.109 A  
HETATM   24 CL   UNL     1      -7.117  12.481  68.602  1.00  0.00    -0.096 Cl 
ENDBRANCH  15  17
ENDBRANCH  14  15
ENDBRANCH   8   9
ENDBRANCH   6   8
ENDBRANCH   5   6
ENDBRANCH   4   5
TORSDOF 6
ENDMDL
MODEL      356
REMARK 921   NORMALIZED FREE ENERGY PREDICTED BY IDOCK:   -3.57 KCAL/MOL
REMARK 922        TOTAL FREE ENERGY PREDICTED BY IDOCK:   -5.78 KCAL/MOL
REMARK 923 INTER-LIGAND FREE ENERGY PREDICTED BY IDOCK:   -4.92 KCAL/MOL
REMARK 924 INTRA-LIGAND FREE ENERGY PREDICTED BY IDOCK:   -0.86 KCAL/MOL
REMARK 927      BINDING AFFINITY PREDICTED BY RF-SCORE:    0.00 PKD
ROOT
HETATM    1  O   UNL     1      -8.489   9.515  63.368  1.00  0.00    -0.169 OA 
HETATM    2  C   UNL     1      -7.990   9.439  64.626  1.00  0.00    -0.124 C  
HETATM    3  O   UNL     1      -6.980  10.039  64.959  1.00  0.00    -0.124 OA 
HETATM    4  C   UNL     1      -8.817   8.544  65.542  1.00  0.00    -0.154 C  
ENDROOT
BRANCH   4   5
HETATM    5  O   UNL     1      -8.208   8.446  66.836  1.00  0.00    -0.101 OA 
BRANCH   5   6
HETATM    6  C   UNL     1      -9.034   8.615  67.901  1.00  0.00    -0.140 C  
HETATM    7  O   UNL     1      -9.949   7.867  68.208  1.00  0.00    -0.168 OA 
BRANCH   6   8
HETATM    8  C   UNL     1      -8.661   9.877  68.657  1.00  0.00    -0.119 C  
BRANCH   8   9
HETATM    9  C   UNL     1      -9.838  10.763  68.996  1.00  0.00    -0.208 A  
HETATM   10  C   UNL     1     -10.098  11.849  68.135  1.00  0.00    -0.200 A  
HETATM   11  C   UNL     1     -11.180  12.699  68.353  1.00  0.00    -0.316 A  
HETATM   12  C   UNL     1     -12.044  12.457  69.410  1.00  0.00    -0.237 A  
HETATM   13  C   UNL     1     -11.786  11.403  70.287  1.00  0.00    -0.438 A  
HETATM   14  C   UNL     1     -10.662  10.580  70.129  1.00  0.00    -0.171 A  
BRANCH  14  15
HETATM   15  N   UNL     1     -10.348   9.645  71.141  1.00  0.00    -0.283 NA 
HETATM   16  H   UNL     1      -9.648   9.972  71.807  1.00  0.00     0.000 HD 
BRANCH  15  17
HETATM   17  C   UNL     1     -10.830   8.328  71.401  1.00  0.00    -0.239 A  
HETATM   18  C   UNL     1      -9.864   7.302  71.566  1.00  0.00    -0.174 A  
HETATM   19  C   UNL     1     -10.208   6.018  72.006  1.00  0.00    -0.228 A  
HETATM   20 CL   UNL     1      -8.187   7.595  71.230  1.00  0.00    -0.098 Cl 
HETATM   21  C   UNL     1     -11.533   5.711  72.277  1.00  0.00    -0.278 A  
HETATM   22  C   UNL     1     -12.515   6.664  72.030  1.00  0.00    -0.288 A  
HETATM   23  C   UNL     1     -12.180   7.954  71.577  1.00  0.00    -0.311 A  
HETATM   24 CL   UNL     1     -13.535   9.008  71.363  1.00  0.00    -0.356 Cl 
ENDBRANCH  15  17
ENDBRANCH  14  15
ENDBRANCH   8   9
ENDBRANCH   6   8
ENDBRANCH   5   6
ENDBRANCH   4   5
TORSDOF 6
ENDMDL
MODEL      357
REMARK 921   NORMALIZED FREE ENERGY PREDICTED BY IDOCK:   -3.57 KCAL/MOL
REMARK 922        TOTAL FREE ENERGY PREDICTED BY IDOCK:   -5.78 KCAL/MOL
REMARK 923 INTER-LIGAND FREE ENERGY PREDICTED BY IDOCK:   -4.93 KCAL/MOL
REMARK 924 INTRA-LIGAND FREE ENERGY PREDICTED BY IDOCK:   -0.84 KCAL/MOL
REMARK 927      BINDING AFFINITY PREDICTED BY RF-SCORE:    0.00 PKD
ROOT
HETATM    1  O   UNL     1     -11.069   7.566  73.246  1.00  0.00    -0.378 OA 
HETATM    2  C   UNL     1     -10.656   7.704  71.963  1.00  0.00    -0.220 C  
HETATM    3  O   UNL     1     -10.341   6.744  71.277  1.00  0.00    -0.203 OA 
HETATM    4  C   UNL     1     -10.634   9.155  71.497  1.00  0.00    -0.358 C  
ENDROOT
BRANCH   4   5
HETATM    5  O   UNL     1     -10.126   9.249  70.160  1.00  0.00    -0.186 OA 
BRANCH   5   6
HETATM    6  C   UNL     1      -8.828   9.632  70.037  1.00  0.00    -0.232 C  
HETATM    7  O   UNL     1      -7.934   9.347  70.817  1.00  0.00    -0.182 OA 
BRANCH   6   8
HETATM    8  C   UNL     1      -8.648  10.475  68.788  1.00  0.00    -0.146 C  
BRANCH   8   9
HETATM    9  C   UNL     1      -9.843  11.336  68.449  1.00  0.00    -0.200 A  
HETATM   10  C   UNL     1      -9.923  12.601  69.065  1.00  0.00     0.218 A  
HETATM   11  C   UNL     1     -10.974  13.474  68.788  1.00  0.00    -0.291 A  
HETATM   12  C   UNL     1     -11.941  13.116  67.861  1.00  0.00    -0.347 A  
HETATM   13  C   UNL     1     -11.891  11.857  67.261  1.00  0.00    -0.222 A  
HETATM   14  C   UNL     1     -10.884  10.934  67.581  1.00  0.00    -0.266 A  
BRANCH  14  15
HETATM   15  N   UNL     1     -10.979   9.615  67.086  1.00  0.00    -0.252 NA 
HETATM   16  H   UNL     1     -11.885   9.174  67.247  1.00  0.00     0.000 HD 
BRANCH  15  17
HETATM   17  C   UNL     1     -10.040   8.786  66.402  1.00  0.00    -0.243 A  
HETATM   18  C   UNL     1      -9.346   9.357  65.305  1.00  0.00    -0.238 A  
HETATM   19  C   UNL     1      -8.275   8.707  64.680  1.00  0.00    -0.167 A  
HETATM   20 CL   UNL     1      -9.796  10.911  64.678  1.00  0.00    -0.319 Cl 
HETATM   21  C   UNL     1      -7.874   7.454  65.119  1.00  0.00    -0.123 A  
HETATM   22  C   UNL     1      -8.596   6.825  66.128  1.00  0.00    -0.146 A  
HETATM   23  C   UNL     1      -9.681   7.466  66.754  1.00  0.00    -0.207 A  
HETATM   24 CL   UNL     1     -10.430   6.539  68.008  1.00  0.00    -0.225 Cl 
ENDBRANCH  15  17
ENDBRANCH  14  15
ENDBRANCH   8   9
ENDBRANCH   6   8
ENDBRANCH   5   6
ENDBRANCH   4   5
TORSDOF 6
ENDMDL
MODEL      358
REMARK 921   NORMALIZED FREE ENERGY PREDICTED BY IDOCK:   -3.53 KCAL/MOL
REMARK 922        TOTAL FREE ENERGY PREDICTED BY IDOCK:   -5.73 KCAL/MOL
REMARK 923 INTER-LIGAND FREE ENERGY PREDICTED BY IDOCK:   -4.49 KCAL/MOL
REMARK 924 INTRA-LIGAND FREE ENERGY PREDICTED BY IDOCK:   -1.24 KCAL/MOL
REMARK 927      BINDING AFFINITY PREDICTED BY RF-SCORE:    0.00 PKD
ROOT
HETATM    1  O   UNL     1      -5.580   9.971  66.753  1.00  0.00    -0.045 OA 
HETATM    2  C   UNL     1      -6.725   9.270  66.940  1.00  0.00    -0.076 C  
HETATM    3  O   UNL     1      -7.006   8.765  68.015  1.00  0.00    -0.075 OA 
HETATM    4  C   UNL     1      -7.587   9.192  65.685  1.00  0.00    -0.094 C  
ENDROOT
BRANCH   4   5
HETATM    5  O   UNL     1      -8.748   8.384  65.919  1.00  0.00    -0.151 OA 
BRANCH   5   6
HETATM    6  C   UNL     1      -9.873   9.046  66.296  1.00  0.00    -0.291 C  
HETATM    7  O   UNL     1     -10.247  10.114  65.839  1.00  0.00    -0.254 OA 
BRANCH   6   8
HETATM    8  C   UNL     1     -10.600   8.267  67.377  1.00  0.00    -0.324 C  
BRANCH   8   9
HETATM    9  C   UNL     1     -10.181   6.819  67.481  1.00  0.00    -0.241 A  
HETATM   10  C   UNL     1     -10.640   5.940  66.479  1.00  0.00    -0.266 A  
HETATM   11  C   UNL     1     -10.278   4.595  66.477  1.00  0.00    -0.273 A  
HETATM   12  C   UNL     1      -9.419   4.111  67.453  1.00  0.00    -0.223 A  
HETATM   13  C   UNL     1      -8.975   4.962  68.466  1.00  0.00    -0.131 A  
HETATM   14  C   UNL     1      -9.387   6.301  68.529  1.00  0.00    -0.121 A  
BRANCH  14  15
HETATM   15  N   UNL     1      -9.058   7.068  69.669  1.00  0.00    -0.144 NA 
HETATM   16  H   UNL     1      -8.426   7.846  69.478  1.00  0.00     0.000 HD 
BRANCH  15  17
HETATM   17  C   UNL     1      -9.447   6.953  71.037  1.00  0.00    -0.163 A  
HETATM   18  C   UNL     1      -8.415   6.976  72.011  1.00  0.00    -0.112 A  
HETATM   19  C   UNL     1      -8.686   7.058  73.382  1.00  0.00    -0.159 A  
HETATM   20 CL   UNL     1      -6.746   6.905  71.542  1.00  0.00    -0.059 Cl 
HETATM   21  C   UNL     1      -9.998   7.100  73.827  1.00  0.00    -0.373 A  
HETATM   22  C   UNL     1     -11.033   6.980  72.905  1.00  0.00    -0.337 A  
HETATM   23  C   UNL     1     -10.770   6.886  71.525  1.00  0.00    -0.223 A  
HETATM   24 CL   UNL     1     -12.185   6.780  70.536  1.00  0.00    -0.355 Cl 
ENDBRANCH  15  17
ENDBRANCH  14  15
ENDBRANCH   8   9
ENDBRANCH   6   8
ENDBRANCH   5   6
ENDBRANCH   4   5
TORSDOF 6
ENDMDL
MODEL      359
REMARK 921   NORMALIZED FREE ENERGY PREDICTED BY IDOCK:   -3.53 KCAL/MOL
REMARK 922        TOTAL FREE ENERGY PREDICTED BY IDOCK:   -5.72 KCAL/MOL
REMARK 923 INTER-LIGAND FREE ENERGY PREDICTED BY IDOCK:   -5.13 KCAL/MOL
REMARK 924 INTRA-LIGAND FREE ENERGY PREDICTED BY IDOCK:   -0.60 KCAL/MOL
REMARK 927      BINDING AFFINITY PREDICTED BY RF-SCORE:    0.00 PKD
ROOT
HETATM    1  O   UNL     1     -14.252   7.604  71.845  1.00  0.00    -0.381 OA 
HETATM    2  C   UNL     1     -12.921   7.657  71.598  1.00  0.00    -0.350 C  
HETATM    3  O   UNL     1     -12.201   6.678  71.713  1.00  0.00    -0.339 OA 
HETATM    4  C   UNL     1     -12.449   9.044  71.174  1.00  0.00    -0.231 C  
ENDROOT
BRANCH   4   5
HETATM    5  O   UNL     1     -11.027   9.059  70.993  1.00  0.00    -0.242 OA 
BRANCH   5   6
HETATM    6  C   UNL     1     -10.587   9.086  69.708  1.00  0.00    -0.228 C  
HETATM    7  O   UNL     1     -10.552   8.126  68.955  1.00  0.00    -0.215 OA 
BRANCH   6   8
HETATM    8  C   UNL     1     -10.136  10.488  69.339  1.00  0.00    -0.233 C  
BRANCH   8   9
HETATM    9  C   UNL     1      -8.636  10.649  69.247  1.00  0.00    -0.096 A  
HETATM   10  C   UNL     1      -7.850   9.901  70.147  1.00  0.00    -0.186 A  
HETATM   11  C   UNL     1      -6.459   9.963  70.114  1.00  0.00    -0.093 A  
HETATM   12  C   UNL     1      -5.826  10.741  69.155  1.00  0.00    -0.041 A  
HETATM   13  C   UNL     1      -6.590  11.508  68.274  1.00  0.00    -0.061 A  
HETATM   14  C   UNL     1      -7.990  11.518  68.338  1.00  0.00    -0.143 A  
BRANCH  14  15
HETATM   15  N   UNL     1      -8.708  12.443  67.548  1.00  0.00    -0.170 NA 
HETATM   16  H   UNL     1      -8.520  12.370  66.548  1.00  0.00     0.000 HD 
BRANCH  15  17
HETATM   17  C   UNL     1      -9.647  13.461  67.893  1.00  0.00    -0.216 A  
HETATM   18  C   UNL     1      -9.150  14.601  68.574  1.00  0.00    -0.188 A  
HETATM   19  C   UNL     1      -9.935  15.739  68.796  1.00  0.00    -0.214 A  
HETATM   20 CL   UNL     1      -7.520  14.643  69.170  1.00  0.00    -0.140 Cl 
HETATM   21  C   UNL     1     -11.251  15.766  68.361  1.00  0.00    -0.362 A  
HETATM   22  C   UNL     1     -11.798  14.628  67.778  1.00  0.00    -0.359 A  
HETATM   23  C   UNL     1     -11.019  13.476  67.561  1.00  0.00    -0.268 A  
HETATM   24 CL   UNL     1     -11.866  12.178  66.792  1.00  0.00    -0.371 Cl 
ENDBRANCH  15  17
ENDBRANCH  14  15
ENDBRANCH   8   9
ENDBRANCH   6   8
ENDBRANCH   5   6
ENDBRANCH   4   5
TORSDOF 6
ENDMDL
MODEL      360
REMARK 921   NORMALIZED FREE ENERGY PREDICTED BY IDOCK:   -3.51 KCAL/MOL
REMARK 922        TOTAL FREE ENERGY PREDICTED BY IDOCK:   -5.71 KCAL/MOL
REMARK 923 INTER-LIGAND FREE ENERGY PREDICTED BY IDOCK:   -4.89 KCAL/MOL
REMARK 924 INTRA-LIGAND FREE ENERGY PREDICTED BY IDOCK:   -0.81 KCAL/MOL
REMARK 927      BINDING AFFINITY PREDICTED BY RF-SCORE:    0.00 PKD
ROOT
HETATM    1  O   UNL     1     -11.614  17.158  64.219  1.00  0.00    -0.876 OA 
HETATM    2  C   UNL     1     -12.118  15.901  64.175  1.00  0.00     0.182 C  
HETATM    3  O   UNL     1     -13.271  15.676  63.841  1.00  0.00    -0.129 OA 
HETATM    4  C   UNL     1     -11.103  14.838  64.582  1.00  0.00    -0.325 C  
ENDROOT
BRANCH   4   5
HETATM    5  O   UNL     1     -11.707  13.538  64.584  1.00  0.00    -0.351 OA 
BRANCH   5   6
HETATM    6  C   UNL     1     -11.436  12.754  65.660  1.00  0.00    -0.342 C  
HETATM    7  O   UNL     1     -12.269  12.158  66.324  1.00  0.00    -0.604 OA 
BRANCH   6   8
HETATM    8  C   UNL     1      -9.942  12.728  65.925  1.00  0.00    -0.273 C  
BRANCH   8   9
HETATM    9  C   UNL     1      -9.495  11.601  66.827  1.00  0.00    -0.197 A  
HETATM   10  C   UNL     1      -9.084  10.403  66.208  1.00  0.00    -0.180 A  
HETATM   11  C   UNL     1      -8.628   9.322  66.960  1.00  0.00    -0.128 A  
HETATM   12  C   UNL     1      -8.536   9.432  68.340  1.00  0.00    -0.120 A  
HETATM   13  C   UNL     1      -8.963  10.601  68.970  1.00  0.00    -0.165 A  
HETATM   14  C   UNL     1      -9.495  11.673  68.239  1.00  0.00    -0.191 A  
BRANCH  14  15
HETATM   15  N   UNL     1     -10.078  12.756  68.933  1.00  0.00    -0.424 NA 
HETATM   16  H   UNL     1     -10.586  12.485  69.775  1.00  0.00     0.000 HD 
BRANCH  15  17
HETATM   17  C   UNL     1     -10.086  14.159  68.672  1.00  0.00    -0.229 A  
HETATM   18  C   UNL     1      -8.829  14.800  68.520  1.00  0.00    -0.176 A  
HETATM   19  C   UNL     1      -8.716  16.124  68.080  1.00  0.00    -0.175 A  
HETATM   20 CL   UNL     1      -7.352  13.959  68.872  1.00  0.00    -0.107 Cl 
HETATM   21  C   UNL     1      -9.857  16.859  67.797  1.00  0.00    -0.252 A  
HETATM   22  C   UNL     1     -11.105  16.293  68.031  1.00  0.00    -0.299 A  
HETATM   23  C   UNL     1     -11.229  14.966  68.484  1.00  0.00    -0.279 A  
HETATM   24 CL   UNL     1     -12.862  14.429  68.681  1.00  0.00     0.746 Cl 
ENDBRANCH  15  17
ENDBRANCH  14  15
ENDBRANCH   8   9
ENDBRANCH   6   8
ENDBRANCH   5   6
ENDBRANCH   4   5
TORSDOF 6
ENDMDL
MODEL      361
REMARK 921   NORMALIZED FREE ENERGY PREDICTED BY IDOCK:   -3.50 KCAL/MOL
REMARK 922        TOTAL FREE ENERGY PREDICTED BY IDOCK:   -5.69 KCAL/MOL
REMARK 923 INTER-LIGAND FREE ENERGY PREDICTED BY IDOCK:   -5.26 KCAL/MOL
REMARK 924 INTRA-LIGAND FREE ENERGY PREDICTED BY IDOCK:   -0.43 KCAL/MOL
REMARK 927      BINDING AFFINITY PREDICTED BY RF-SCORE:    0.00 PKD
ROOT
HETATM    1  O   UNL     1      -6.018   5.353  65.041  1.00  0.00    -0.021 OA 
HETATM    2  C   UNL     1      -7.321   5.711  65.147  1.00  0.00    -0.075 C  
HETATM    3  O   UNL     1      -8.225   4.893  65.079  1.00  0.00    -0.118 OA 
HETATM    4  C   UNL     1      -7.512   7.210  65.353  1.00  0.00    -0.087 C  
ENDROOT
BRANCH   4   5
HETATM    5  O   UNL     1      -8.907   7.540  65.390  1.00  0.00    -0.059 OA 
BRANCH   5   6
HETATM    6  C   UNL     1      -9.285   8.437  66.338  1.00  0.00    -0.201 C  
HETATM    7  O   UNL     1      -8.728   9.499  66.564  1.00  0.00    -0.131 OA 
BRANCH   6   8
HETATM    8  C   UNL     1     -10.503   7.925  67.085  1.00  0.00    -0.414 C  
BRANCH   8   9
HETATM    9  C   UNL     1     -10.208   6.787  68.035  1.00  0.00    -0.200 A  
HETATM   10  C   UNL     1     -10.273   5.478  67.515  1.00  0.00    -0.245 A  
HETATM   11  C   UNL     1      -9.987   4.371  68.311  1.00  0.00    -0.066 A  
HETATM   12  C   UNL     1      -9.592   4.552  69.628  1.00  0.00    -0.270 A  
HETATM   13  C   UNL     1      -9.548   5.839  70.166  1.00  0.00    -0.208 A  
HETATM   14  C   UNL     1      -9.904   6.961  69.404  1.00  0.00    -0.158 A  
BRANCH  14  15
HETATM   15  N   UNL     1     -10.016   8.216  70.043  1.00  0.00    -0.189 NA 
HETATM   16  H   UNL     1      -9.124   8.684  70.200  1.00  0.00     0.000 HD 
BRANCH  15  17
HETATM   17  C   UNL     1     -11.149   8.949  70.508  1.00  0.00    -0.251 A  
HETATM   18  C   UNL     1     -11.805   8.465  71.669  1.00  0.00    -0.304 A  
HETATM   19  C   UNL     1     -12.804   9.197  72.321  1.00  0.00    -0.472 A  
HETATM   20 CL   UNL     1     -11.391   6.922  72.348  1.00  0.00    -0.297 Cl 
HETATM   21  C   UNL     1     -13.196  10.430  71.822  1.00  0.00    -0.529 A  
HETATM   22  C   UNL     1     -12.643  10.887  70.631  1.00  0.00    -0.435 A  
HETATM   23  C   UNL     1     -11.646  10.153  69.962  1.00  0.00    -0.253 A  
HETATM   24 CL   UNL     1     -11.056  10.901  68.518  1.00  0.00    -0.282 Cl 
ENDBRANCH  15  17
ENDBRANCH  14  15
ENDBRANCH   8   9
ENDBRANCH   6   8
ENDBRANCH   5   6
ENDBRANCH   4   5
TORSDOF 6
ENDMDL
MODEL      362
REMARK 921   NORMALIZED FREE ENERGY PREDICTED BY IDOCK:   -3.48 KCAL/MOL
REMARK 922        TOTAL FREE ENERGY PREDICTED BY IDOCK:   -5.66 KCAL/MOL
REMARK 923 INTER-LIGAND FREE ENERGY PREDICTED BY IDOCK:   -4.81 KCAL/MOL
REMARK 924 INTRA-LIGAND FREE ENERGY PREDICTED BY IDOCK:   -0.85 KCAL/MOL
REMARK 927      BINDING AFFINITY PREDICTED BY RF-SCORE:    0.00 PKD
ROOT
HETATM    1  O   UNL     1      -5.887   8.014  64.893  1.00  0.00    -0.044 OA 
HETATM    2  C   UNL     1      -6.853   7.070  65.000  1.00  0.00    -0.051 C  
HETATM    3  O   UNL     1      -6.727   5.956  64.515  1.00  0.00    -0.043 OA 
HETATM    4  C   UNL     1      -8.076   7.554  65.772  1.00  0.00    -0.127 C  
ENDROOT
BRANCH   4   5
HETATM    5  O   UNL     1      -9.091   6.542  65.795  1.00  0.00    -0.103 OA 
BRANCH   5   6
HETATM    6  C   UNL     1     -10.066   6.693  66.728  1.00  0.00    -0.175 C  
HETATM    7  O   UNL     1     -11.195   6.236  66.648  1.00  0.00    -0.243 OA 
BRANCH   6   8
HETATM    8  C   UNL     1      -9.552   7.522  67.891  1.00  0.00    -0.161 C  
BRANCH   8   9
HETATM    9  C   UNL     1      -9.167   6.708  69.105  1.00  0.00    -0.136 A  
HETATM   10  C   UNL     1      -9.007   5.318  68.927  1.00  0.00    -0.120 A  
HETATM   11  C   UNL     1      -8.624   4.495  69.983  1.00  0.00    -0.103 A  
HETATM   12  C   UNL     1      -8.354   5.048  71.226  1.00  0.00    -0.117 A  
HETATM   13  C   UNL     1      -8.533   6.418  71.426  1.00  0.00    -0.126 A  
HETATM   14  C   UNL     1      -8.990   7.253  70.397  1.00  0.00    -0.151 A  
BRANCH  14  15
HETATM   15  N   UNL     1      -9.325   8.592  70.697  1.00  0.00    -0.172 NA 
HETATM   16  H   UNL     1      -8.527   9.226  70.722  1.00  0.00     0.000 HD 
BRANCH  15  17
HETATM   17  C   UNL     1     -10.577   9.220  70.973  1.00  0.00    -0.316 A  
HETATM   18  C   UNL     1     -10.966  10.293  70.131  1.00  0.00    -0.314 A  
HETATM   19  C   UNL     1     -12.245  10.859  70.186  1.00  0.00    -0.423 A  
HETATM   20 CL   UNL     1      -9.860  10.963  68.974  1.00  0.00    -0.214 Cl 
HETATM   21  C   UNL     1     -13.173  10.383  71.100  1.00  0.00    -0.399 A  
HETATM   22  C   UNL     1     -12.792   9.398  72.006  1.00  0.00    -0.496 A  
HETATM   23  C   UNL     1     -11.504   8.832  71.965  1.00  0.00    -0.371 A  
HETATM   24 CL   UNL     1     -11.230   7.599  73.147  1.00  0.00    -0.403 Cl 
ENDBRANCH  15  17
ENDBRANCH  14  15
ENDBRANCH   8   9
ENDBRANCH   6   8
ENDBRANCH   5   6
ENDBRANCH   4   5
TORSDOF 6
ENDMDL
MODEL      363
REMARK 921   NORMALIZED FREE ENERGY PREDICTED BY IDOCK:   -3.47 KCAL/MOL
REMARK 922        TOTAL FREE ENERGY PREDICTED BY IDOCK:   -5.64 KCAL/MOL
REMARK 923 INTER-LIGAND FREE ENERGY PREDICTED BY IDOCK:   -4.84 KCAL/MOL
REMARK 924 INTRA-LIGAND FREE ENERGY PREDICTED BY IDOCK:   -0.81 KCAL/MOL
REMARK 927      BINDING AFFINITY PREDICTED BY RF-SCORE:    0.00 PKD
ROOT
HETATM    1  O   UNL     1      -5.560   6.095  73.827  1.00  0.00    -0.043 OA 
HETATM    2  C   UNL     1      -6.700   5.994  73.101  1.00  0.00    -0.074 C  
HETATM    3  O   UNL     1      -7.503   5.091  73.278  1.00  0.00    -0.085 OA 
HETATM    4  C   UNL     1      -6.850   7.107  72.070  1.00  0.00    -0.056 C  
ENDROOT
BRANCH   4   5
HETATM    5  O   UNL     1      -8.034   6.913  71.286  1.00  0.00    -0.106 OA 
BRANCH   5   6
HETATM    6  C   UNL     1      -7.878   6.224  70.126  1.00  0.00    -0.106 C  
HETATM    7  O   UNL     1      -6.940   6.347  69.355  1.00  0.00    -0.066 OA 
BRANCH   6   8
HETATM    8  C   UNL     1      -9.047   5.277  69.919  1.00  0.00    -0.165 C  
BRANCH   8   9
HETATM    9  C   UNL     1     -10.298   5.670  70.670  1.00  0.00    -0.320 A  
HETATM   10  C   UNL     1     -10.464   5.144  71.968  1.00  0.00    -0.278 A  
HETATM   11  C   UNL     1     -11.571   5.477  72.745  1.00  0.00    -0.298 A  
HETATM   12  C   UNL     1     -12.512   6.372  72.257  1.00  0.00    -0.107 A  
HETATM   13  C   UNL     1     -12.376   6.881  70.965  1.00  0.00    -0.401 A  
HETATM   14  C   UNL     1     -11.309   6.501  70.138  1.00  0.00    -0.402 A  
BRANCH  14  15
HETATM   15  N   UNL     1     -11.314   6.901  68.783  1.00  0.00    -0.533 NA 
HETATM   16  H   UNL     1     -11.903   6.326  68.182  1.00  0.00     0.000 HD 
BRANCH  15  17
HETATM   17  C   UNL     1     -10.645   7.963  68.103  1.00  0.00    -0.120 A  
HETATM   18  C   UNL     1      -9.999   7.647  66.881  1.00  0.00    -0.255 A  
HETATM   19  C   UNL     1      -9.475   8.634  66.037  1.00  0.00    -0.278 A  
HETATM   20 CL   UNL     1      -9.829   5.999  66.363  1.00  0.00    -0.181 Cl 
HETATM   21  C   UNL     1      -9.561   9.970  66.398  1.00  0.00    -0.248 A  
HETATM   22  C   UNL     1     -10.100  10.306  67.636  1.00  0.00    -0.229 A  
HETATM   23  C   UNL     1     -10.620   9.319  68.495  1.00  0.00    -0.183 A  
HETATM   24 CL   UNL     1     -11.278   9.935  69.971  1.00  0.00    -0.305 Cl 
ENDBRANCH  15  17
ENDBRANCH  14  15
ENDBRANCH   8   9
ENDBRANCH   6   8
ENDBRANCH   5   6
ENDBRANCH   4   5
TORSDOF 6
ENDMDL
MODEL      364
REMARK 921   NORMALIZED FREE ENERGY PREDICTED BY IDOCK:   -3.45 KCAL/MOL
REMARK 922        TOTAL FREE ENERGY PREDICTED BY IDOCK:   -5.62 KCAL/MOL
REMARK 923 INTER-LIGAND FREE ENERGY PREDICTED BY IDOCK:   -4.99 KCAL/MOL
REMARK 924 INTRA-LIGAND FREE ENERGY PREDICTED BY IDOCK:   -0.63 KCAL/MOL
REMARK 927      BINDING AFFINITY PREDICTED BY RF-SCORE:    0.00 PKD
ROOT
HETATM    1  O   UNL     1      -6.039  11.574  69.461  1.00  0.00    -0.076 OA 
HETATM    2  C   UNL     1      -6.682  10.431  69.119  1.00  0.00    -0.061 C  
HETATM    3  O   UNL     1      -6.908   9.548  69.931  1.00  0.00    -0.052 OA 
HETATM    4  C   UNL     1      -7.074  10.387  67.647  1.00  0.00    -0.085 C  
ENDROOT
BRANCH   4   5
HETATM    5  O   UNL     1      -7.687   9.131  67.325  1.00  0.00    -0.094 OA 
BRANCH   5   6
HETATM    6  C   UNL     1      -8.828   9.193  66.589  1.00  0.00    -0.128 C  
HETATM    7  O   UNL     1      -9.456   8.229  66.183  1.00  0.00    -0.209 OA 
BRANCH   6   8
HETATM    8  C   UNL     1      -9.208  10.641  66.337  1.00  0.00    -0.190 C  
BRANCH   8   9
HETATM    9  C   UNL     1     -10.107  11.235  67.397  1.00  0.00    -0.214 A  
HETATM   10  C   UNL     1     -10.996  10.360  68.054  1.00  0.00    -0.347 A  
HETATM   11  C   UNL     1     -11.840  10.814  69.065  1.00  0.00    -0.325 A  
HETATM   12  C   UNL     1     -11.783  12.141  69.467  1.00  0.00    -0.402 A  
HETATM   13  C   UNL     1     -10.927  13.026  68.809  1.00  0.00    -0.295 A  
HETATM   14  C   UNL     1     -10.124  12.606  67.739  1.00  0.00    -0.220 A  
BRANCH  14  15
HETATM   15  N   UNL     1      -9.414  13.573  66.993  1.00  0.00    -0.243 NA 
HETATM   16  H   UNL     1      -8.625  13.196  66.467  1.00  0.00     0.000 HD 
BRANCH  15  17
HETATM   17  C   UNL     1      -9.597  14.980  66.842  1.00  0.00    -0.239 A  
HETATM   18  C   UNL     1     -10.403  15.418  65.760  1.00  0.00    -0.361 A  
HETATM   19  C   UNL     1     -10.804  16.752  65.621  1.00  0.00    -0.111 A  
HETATM   20 CL   UNL     1     -10.940  14.305  64.541  1.00  0.00    -0.356 Cl 
HETATM   21  C   UNL     1     -10.396  17.698  66.550  1.00  0.00    -0.337 A  
HETATM   22  C   UNL     1      -9.526  17.320  67.566  1.00  0.00    -0.245 A  
HETATM   23  C   UNL     1      -9.108  15.983  67.707  1.00  0.00    -0.196 A  
HETATM   24 CL   UNL     1      -8.056  15.702  69.051  1.00  0.00    -0.204 Cl 
ENDBRANCH  15  17
ENDBRANCH  14  15
ENDBRANCH   8   9
ENDBRANCH   6   8
ENDBRANCH   5   6
ENDBRANCH   4   5
TORSDOF 6
ENDMDL
MODEL      365
REMARK 921   NORMALIZED FREE ENERGY PREDICTED BY IDOCK:   -3.43 KCAL/MOL
REMARK 922        TOTAL FREE ENERGY PREDICTED BY IDOCK:   -5.60 KCAL/MOL
REMARK 923 INTER-LIGAND FREE ENERGY PREDICTED BY IDOCK:   -4.94 KCAL/MOL
REMARK 924 INTRA-LIGAND FREE ENERGY PREDICTED BY IDOCK:   -0.66 KCAL/MOL
REMARK 927      BINDING AFFINITY PREDICTED BY RF-SCORE:    0.00 PKD
ROOT
HETATM    1  O   UNL     1      -5.970  11.580  69.487  1.00  0.00    -0.066 OA 
HETATM    2  C   UNL     1      -6.572  10.485  68.961  1.00  0.00    -0.060 C  
HETATM    3  O   UNL     1      -6.871   9.519  69.645  1.00  0.00    -0.055 OA 
HETATM    4  C   UNL     1      -6.820  10.605  67.462  1.00  0.00    -0.078 C  
ENDROOT
BRANCH   4   5
HETATM    5  O   UNL     1      -7.395   9.396  66.947  1.00  0.00    -0.089 OA 
BRANCH   5   6
HETATM    6  C   UNL     1      -8.471   9.544  66.131  1.00  0.00    -0.120 C  
HETATM    7  O   UNL     1      -9.045   8.636  65.552  1.00  0.00    -0.193 OA 
BRANCH   6   8
HETATM    8  C   UNL     1      -8.857  11.009  66.037  1.00  0.00    -0.199 C  
BRANCH   8   9
HETATM    9  C   UNL     1      -9.833  11.458  67.100  1.00  0.00    -0.212 A  
HETATM   10  C   UNL     1     -10.804  10.526  67.521  1.00  0.00    -0.357 A  
HETATM   11  C   UNL     1     -11.724  10.843  68.517  1.00  0.00    -0.307 A  
HETATM   12  C   UNL     1     -11.668  12.081  69.140  1.00  0.00    -0.389 A  
HETATM   13  C   UNL     1     -10.730  13.025  68.717  1.00  0.00    -0.250 A  
HETATM   14  C   UNL     1      -9.843  12.753  67.665  1.00  0.00    -0.214 A  
BRANCH  14  15
HETATM   15  N   UNL     1      -9.040  13.799  67.157  1.00  0.00    -0.230 NA 
HETATM   16  H   UNL     1      -8.178  13.483  66.713  1.00  0.00     0.000 HD 
BRANCH  15  17
HETATM   17  C   UNL     1      -9.214  15.215  67.153  1.00  0.00    -0.213 A  
HETATM   18  C   UNL     1      -8.537  15.957  68.154  1.00  0.00    -0.169 A  
HETATM   19  C   UNL     1      -8.482  17.356  68.137  1.00  0.00    -0.241 A  
HETATM   20 CL   UNL     1      -7.730  15.155  69.465  1.00  0.00    -0.213 Cl 
HETATM   21  C   UNL     1      -9.120  18.061  67.128  1.00  0.00    -0.256 A  
HETATM   22  C   UNL     1      -9.875  17.368  66.187  1.00  0.00    -0.260 A  
HETATM   23  C   UNL     1      -9.945  15.962  66.203  1.00  0.00    -0.314 A  
HETATM   24 CL   UNL     1     -10.903  15.282  64.934  1.00  0.00    -0.449 Cl 
ENDBRANCH  15  17
ENDBRANCH  14  15
ENDBRANCH   8   9
ENDBRANCH   6   8
ENDBRANCH   5   6
ENDBRANCH   4   5
TORSDOF 6
ENDMDL
MODEL      366
REMARK 921   NORMALIZED FREE ENERGY PREDICTED BY IDOCK:   -3.42 KCAL/MOL
REMARK 922        TOTAL FREE ENERGY PREDICTED BY IDOCK:   -5.57 KCAL/MOL
REMARK 923 INTER-LIGAND FREE ENERGY PREDICTED BY IDOCK:   -4.94 KCAL/MOL
REMARK 924 INTRA-LIGAND FREE ENERGY PREDICTED BY IDOCK:   -0.64 KCAL/MOL
REMARK 927      BINDING AFFINITY PREDICTED BY RF-SCORE:    0.00 PKD
ROOT
HETATM    1  O   UNL     1      -6.424   9.272  63.704  1.00  0.00    -0.089 OA 
HETATM    2  C   UNL     1      -6.699   8.051  64.224  1.00  0.00    -0.065 C  
HETATM    3  O   UNL     1      -5.903   7.127  64.163  1.00  0.00    -0.035 OA 
HETATM    4  C   UNL     1      -8.077   7.976  64.871  1.00  0.00    -0.147 C  
ENDROOT
BRANCH   4   5
HETATM    5  O   UNL     1      -8.342   6.648  65.341  1.00  0.00    -0.139 OA 
BRANCH   5   6
HETATM    6  C   UNL     1      -9.163   6.547  66.419  1.00  0.00    -0.153 C  
HETATM    7  O   UNL     1      -9.697   5.520  66.804  1.00  0.00    -0.135 OA 
BRANCH   6   8
HETATM    8  C   UNL     1      -9.328   7.905  67.078  1.00  0.00    -0.200 C  
BRANCH   8   9
HETATM    9  C   UNL     1      -8.668   8.016  68.433  1.00  0.00    -0.130 A  
HETATM   10  C   UNL     1      -7.496   7.262  68.644  1.00  0.00    -0.102 A  
HETATM   11  C   UNL     1      -6.804   7.326  69.852  1.00  0.00    -0.056 A  
HETATM   12  C   UNL     1      -7.246   8.176  70.855  1.00  0.00    -0.055 A  
HETATM   13  C   UNL     1      -8.419   8.910  70.672  1.00  0.00    -0.211 A  
HETATM   14  C   UNL     1      -9.171   8.803  69.494  1.00  0.00    -0.149 A  
BRANCH  14  15
HETATM   15  N   UNL     1     -10.438   9.424  69.430  1.00  0.00    -0.213 NA 
HETATM   16  H   UNL     1     -10.600   9.952  68.572  1.00  0.00     0.000 HD 
BRANCH  15  17
HETATM   17  C   UNL     1     -11.533   9.449  70.345  1.00  0.00    -0.223 A  
HETATM   18  C   UNL     1     -11.939   8.212  70.907  1.00  0.00    -0.183 A  
HETATM   19  C   UNL     1     -12.870   8.136  71.950  1.00  0.00    -0.360 A  
HETATM   20 CL   UNL     1     -11.289   6.712  70.323  1.00  0.00    -0.400 Cl 
HETATM   21  C   UNL     1     -13.442   9.295  72.452  1.00  0.00    -0.526 A  
HETATM   22  C   UNL     1     -13.139  10.515  71.857  1.00  0.00    -0.567 A  
HETATM   23  C   UNL     1     -12.213  10.600  70.801  1.00  0.00    -0.375 A  
HETATM   24 CL   UNL     1     -11.942  12.205  70.217  1.00  0.00    -0.424 Cl 
ENDBRANCH  15  17
ENDBRANCH  14  15
ENDBRANCH   8   9
ENDBRANCH   6   8
ENDBRANCH   5   6
ENDBRANCH   4   5
TORSDOF 6
ENDMDL
MODEL      367
REMARK 921   NORMALIZED FREE ENERGY PREDICTED BY IDOCK:   -3.39 KCAL/MOL
REMARK 922        TOTAL FREE ENERGY PREDICTED BY IDOCK:   -5.54 KCAL/MOL
REMARK 923 INTER-LIGAND FREE ENERGY PREDICTED BY IDOCK:   -4.69 KCAL/MOL
REMARK 924 INTRA-LIGAND FREE ENERGY PREDICTED BY IDOCK:   -0.85 KCAL/MOL
REMARK 927      BINDING AFFINITY PREDICTED BY RF-SCORE:    0.00 PKD
ROOT
HETATM    1  O   UNL     1      -8.349  15.613  67.726  1.00  0.00    -0.143 OA 
HETATM    2  C   UNL     1      -9.497  15.027  68.144  1.00  0.00    -0.196 C  
HETATM    3  O   UNL     1     -10.422  15.673  68.610  1.00  0.00    -0.221 OA 
HETATM    4  C   UNL     1      -9.490  13.512  67.966  1.00  0.00    -0.220 C  
ENDROOT
BRANCH   4   5
HETATM    5  O   UNL     1     -10.697  12.938  68.485  1.00  0.00    -0.242 OA 
BRANCH   5   6
HETATM    6  C   UNL     1     -11.552  12.412  67.570  1.00  0.00    -0.365 C  
HETATM    7  O   UNL     1     -12.227  13.058  66.785  1.00  0.00    -0.368 OA 
BRANCH   6   8
HETATM    8  C   UNL     1     -11.554  10.897  67.667  1.00  0.00    -0.171 C  
BRANCH   8   9
HETATM    9  C   UNL     1     -10.475  10.226  66.849  1.00  0.00    -0.291 A  
HETATM   10  C   UNL     1     -10.301  10.669  65.522  1.00  0.00    -0.297 A  
HETATM   11  C   UNL     1      -9.311  10.129  64.704  1.00  0.00    -0.334 A  
HETATM   12  C   UNL     1      -8.449   9.166  65.210  1.00  0.00    -0.169 A  
HETATM   13  C   UNL     1      -8.623   8.699  66.513  1.00  0.00    -0.124 A  
HETATM   14  C   UNL     1      -9.661   9.175  67.328  1.00  0.00    -0.154 A  
BRANCH  14  15
HETATM   15  N   UNL     1      -9.905   8.544  68.568  1.00  0.00    -0.168 NA 
HETATM   16  H   UNL     1     -10.684   8.942  69.091  1.00  0.00     0.000 HD 
BRANCH  15  17
HETATM   17  C   UNL     1      -9.261   7.451  69.222  1.00  0.00    -0.147 A  
HETATM   18  C   UNL     1      -9.560   6.145  68.755  1.00  0.00    -0.125 A  
HETATM   19  C   UNL     1      -8.853   5.018  69.190  1.00  0.00    -0.114 A  
HETATM   20 CL   UNL     1     -10.830   5.881  67.603  1.00  0.00    -0.354 Cl 
HETATM   21  C   UNL     1      -7.837   5.155  70.123  1.00  0.00    -0.078 A  
HETATM   22  C   UNL     1      -7.585   6.408  70.674  1.00  0.00    -0.103 A  
HETATM   23  C   UNL     1      -8.298   7.545  70.250  1.00  0.00    -0.133 A  
HETATM   24 CL   UNL     1      -7.819   9.016  71.025  1.00  0.00    -0.171 Cl 
ENDBRANCH  15  17
ENDBRANCH  14  15
ENDBRANCH   8   9
ENDBRANCH   6   8
ENDBRANCH   5   6
ENDBRANCH   4   5
TORSDOF 6
ENDMDL
MODEL      368
REMARK 921   NORMALIZED FREE ENERGY PREDICTED BY IDOCK:   -3.35 KCAL/MOL
REMARK 922        TOTAL FREE ENERGY PREDICTED BY IDOCK:   -5.49 KCAL/MOL
REMARK 923 INTER-LIGAND FREE ENERGY PREDICTED BY IDOCK:   -4.69 KCAL/MOL
REMARK 924 INTRA-LIGAND FREE ENERGY PREDICTED BY IDOCK:   -0.79 KCAL/MOL
REMARK 927      BINDING AFFINITY PREDICTED BY RF-SCORE:    0.00 PKD
ROOT
HETATM    1  O   UNL     1     -10.378  19.260  67.356  1.00  0.00    -0.379 OA 
HETATM    2  C   UNL     1     -10.038  18.381  66.382  1.00  0.00    -0.403 C  
HETATM    3  O   UNL     1      -8.974  18.452  65.788  1.00  0.00    -0.429 OA 
HETATM    4  C   UNL     1     -11.113  17.330  66.127  1.00  0.00     0.437 C  
ENDROOT
BRANCH   4   5
HETATM    5  O   UNL     1     -10.732  16.471  65.044  1.00  0.00    -0.662 OA 
BRANCH   5   6
HETATM    6  C   UNL     1     -10.940  15.142  65.232  1.00  0.00    -0.395 C  
HETATM    7  O   UNL     1     -12.026  14.586  65.185  1.00  0.00    -0.369 OA 
BRANCH   6   8
HETATM    8  C   UNL     1      -9.624  14.442  65.518  1.00  0.00    -0.097 C  
BRANCH   8   9
HETATM    9  C   UNL     1      -9.051  14.741  66.884  1.00  0.00    -0.268 A  
HETATM   10  C   UNL     1      -8.010  15.689  66.955  1.00  0.00    -0.268 A  
HETATM   11  C   UNL     1      -7.444  16.049  68.176  1.00  0.00    -0.132 A  
HETATM   12  C   UNL     1      -7.934  15.499  69.352  1.00  0.00    -0.229 A  
HETATM   13  C   UNL     1      -8.946  14.540  69.297  1.00  0.00     0.115 A  
HETATM   14  C   UNL     1      -9.479  14.109  68.074  1.00  0.00    -0.213 A  
BRANCH  14  15
HETATM   15  N   UNL     1     -10.369  13.012  68.061  1.00  0.00    -0.228 NA 
HETATM   16  H   UNL     1     -11.159  13.125  67.427  1.00  0.00     0.000 HD 
BRANCH  15  17
HETATM   17  C   UNL     1     -10.365  11.776  68.775  1.00  0.00    -0.179 A  
HETATM   18  C   UNL     1      -9.569  10.725  68.251  1.00  0.00    -0.166 A  
HETATM   19  C   UNL     1      -9.340   9.539  68.958  1.00  0.00    -0.155 A  
HETATM   20 CL   UNL     1      -8.828  10.863  66.687  1.00  0.00    -0.156 Cl 
HETATM   21  C   UNL     1      -9.917   9.355  70.206  1.00  0.00    -0.284 A  
HETATM   22  C   UNL     1     -10.781  10.324  70.704  1.00  0.00    -0.125 A  
HETATM   23  C   UNL     1     -11.026  11.515  69.995  1.00  0.00     0.245 A  
HETATM   24 CL   UNL     1     -12.100  12.612  70.792  1.00  0.00    -0.349 Cl 
ENDBRANCH  15  17
ENDBRANCH  14  15
ENDBRANCH   8   9
ENDBRANCH   6   8
ENDBRANCH   5   6
ENDBRANCH   4   5
TORSDOF 6
ENDMDL
MODEL      369
REMARK 921   NORMALIZED FREE ENERGY PREDICTED BY IDOCK:   -3.34 KCAL/MOL
REMARK 922        TOTAL FREE ENERGY PREDICTED BY IDOCK:   -5.47 KCAL/MOL
REMARK 923 INTER-LIGAND FREE ENERGY PREDICTED BY IDOCK:   -4.76 KCAL/MOL
REMARK 924 INTRA-LIGAND FREE ENERGY PREDICTED BY IDOCK:   -0.71 KCAL/MOL
REMARK 927      BINDING AFFINITY PREDICTED BY RF-SCORE:    0.00 PKD
ROOT
HETATM    1  O   UNL     1     -11.513  12.634  68.826  1.00  0.00    -0.260 OA 
HETATM    2  C   UNL     1     -11.057  11.403  69.162  1.00  0.00    -0.258 C  
HETATM    3  O   UNL     1      -9.990  10.973  68.752  1.00  0.00    -0.195 OA 
HETATM    4  C   UNL     1     -12.007  10.648  70.085  1.00  0.00    -0.334 C  
ENDROOT
BRANCH   4   5
HETATM    5  O   UNL     1     -11.509   9.330  70.353  1.00  0.00    -0.263 OA 
BRANCH   5   6
HETATM    6  C   UNL     1     -12.059   8.687  71.416  1.00  0.00    -0.303 C  
HETATM    7  O   UNL     1     -12.840   9.182  72.211  1.00  0.00    -0.392 OA 
BRANCH   6   8
HETATM    8  C   UNL     1     -11.556   7.255  71.477  1.00  0.00    -0.306 C  
BRANCH   8   9
HETATM    9  C   UNL     1     -10.217   7.102  72.160  1.00  0.00    -0.207 A  
HETATM   10  C   UNL     1     -10.119   7.542  73.496  1.00  0.00    -0.378 A  
HETATM   11  C   UNL     1      -8.932   7.412  74.214  1.00  0.00    -0.242 A  
HETATM   12  C   UNL     1      -7.833   6.804  73.624  1.00  0.00    -0.101 A  
HETATM   13  C   UNL     1      -7.906   6.386  72.295  1.00  0.00    -0.102 A  
HETATM   14  C   UNL     1      -9.066   6.575  71.531  1.00  0.00    -0.144 A  
BRANCH  14  15
HETATM   15  N   UNL     1      -9.029   6.301  70.146  1.00  0.00    -0.148 NA 
HETATM   16  H   UNL     1      -9.096   5.310  69.916  1.00  0.00     0.000 HD 
BRANCH  15  17
HETATM   17  C   UNL     1      -8.915   7.158  69.010  1.00  0.00    -0.134 A  
HETATM   18  C   UNL     1      -7.721   7.911  68.881  1.00  0.00    -0.105 A  
HETATM   19  C   UNL     1      -7.418   8.637  67.723  1.00  0.00    -0.097 A  
HETATM   20 CL   UNL     1      -6.559   7.967  70.169  1.00  0.00    -0.037 Cl 
HETATM   21  C   UNL     1      -8.311   8.650  66.661  1.00  0.00    -0.108 A  
HETATM   22  C   UNL     1      -9.535   8.002  66.795  1.00  0.00    -0.259 A  
HETATM   23  C   UNL     1      -9.852   7.279  67.960  1.00  0.00    -0.145 A  
HETATM   24 CL   UNL     1     -11.403   6.514  67.924  1.00  0.00    -0.246 Cl 
ENDBRANCH  15  17
ENDBRANCH  14  15
ENDBRANCH   8   9
ENDBRANCH   6   8
ENDBRANCH   5   6
ENDBRANCH   4   5
TORSDOF 6
ENDMDL
MODEL      370
REMARK 921   NORMALIZED FREE ENERGY PREDICTED BY IDOCK:   -3.34 KCAL/MOL
REMARK 922        TOTAL FREE ENERGY PREDICTED BY IDOCK:   -5.47 KCAL/MOL
REMARK 923 INTER-LIGAND FREE ENERGY PREDICTED BY IDOCK:   -4.70 KCAL/MOL
REMARK 924 INTRA-LIGAND FREE ENERGY PREDICTED BY IDOCK:   -0.77 KCAL/MOL
REMARK 927      BINDING AFFINITY PREDICTED BY RF-SCORE:    0.00 PKD
ROOT
HETATM    1  O   UNL     1     -11.120  15.015  64.895  1.00  0.00    -0.387 OA 
HETATM    2  C   UNL     1     -11.347  14.026  65.793  1.00  0.00    -0.312 C  
HETATM    3  O   UNL     1     -11.921  14.232  66.851  1.00  0.00    -0.416 OA 
HETATM    4  C   UNL     1     -10.815  12.673  65.336  1.00  0.00    -0.287 C  
ENDROOT
BRANCH   4   5
HETATM    5  O   UNL     1     -11.020  11.681  66.351  1.00  0.00    -0.278 OA 
BRANCH   5   6
HETATM    6  C   UNL     1     -10.518  10.446  66.091  1.00  0.00    -0.154 C  
HETATM    7  O   UNL     1     -10.186  10.038  64.990  1.00  0.00    -0.280 OA 
BRANCH   6   8
HETATM    8  C   UNL     1     -10.432   9.637  67.373  1.00  0.00    -0.319 C  
BRANCH   8   9
HETATM    9  C   UNL     1      -9.941   8.221  67.176  1.00  0.00    -0.307 A  
HETATM   10  C   UNL     1     -10.895   7.187  67.270  1.00  0.00    -0.382 A  
HETATM   11  C   UNL     1     -10.538   5.855  67.073  1.00  0.00    -0.376 A  
HETATM   12  C   UNL     1      -9.231   5.535  66.738  1.00  0.00    -0.129 A  
HETATM   13  C   UNL     1      -8.268   6.543  66.665  1.00  0.00    -0.112 A  
HETATM   14  C   UNL     1      -8.591   7.881  66.934  1.00  0.00    -0.129 A  
BRANCH  14  15
HETATM   15  N   UNL     1      -7.551   8.833  67.025  1.00  0.00    -0.087 NA 
HETATM   16  H   UNL     1      -7.160   9.109  66.124  1.00  0.00     0.000 HD 
BRANCH  15  17
HETATM   17  C   UNL     1      -6.948   9.478  68.146  1.00  0.00    -0.078 A  
HETATM   18  C   UNL     1      -6.119  10.599  67.883  1.00  0.00    -0.050 A  
HETATM   19  C   UNL     1      -5.627  11.419  68.905  1.00  0.00    -0.042 A  
HETATM   20 CL   UNL     1      -5.671  11.014  66.258  1.00  0.00    -0.130 Cl 
HETATM   21  C   UNL     1      -5.932  11.135  70.228  1.00  0.00    -0.144 A  
HETATM   22  C   UNL     1      -6.660   9.987  70.525  1.00  0.00    -0.122 A  
HETATM   23  C   UNL     1      -7.149   9.151  69.504  1.00  0.00    -0.059 A  
HETATM   24 CL   UNL     1      -8.061   7.794  70.070  1.00  0.00    -0.116 Cl 
ENDBRANCH  15  17
ENDBRANCH  14  15
ENDBRANCH   8   9
ENDBRANCH   6   8
ENDBRANCH   5   6
ENDBRANCH   4   5
TORSDOF 6
ENDMDL
MODEL      371
REMARK 921   NORMALIZED FREE ENERGY PREDICTED BY IDOCK:   -3.33 KCAL/MOL
REMARK 922        TOTAL FREE ENERGY PREDICTED BY IDOCK:   -5.47 KCAL/MOL
REMARK 923 INTER-LIGAND FREE ENERGY PREDICTED BY IDOCK:   -4.00 KCAL/MOL
REMARK 924 INTRA-LIGAND FREE ENERGY PREDICTED BY IDOCK:   -1.47 KCAL/MOL
REMARK 927      BINDING AFFINITY PREDICTED BY RF-SCORE:    0.00 PKD
ROOT
HETATM    1  O   UNL     1      -5.909  11.123  71.277  1.00  0.00    -0.363 OA 
HETATM    2  C   UNL     1      -6.377  10.686  70.082  1.00  0.00    -0.139 C  
HETATM    3  O   UNL     1      -7.128  11.360  69.395  1.00  0.00    -0.115 OA 
HETATM    4  C   UNL     1      -5.866   9.298  69.714  1.00  0.00    -0.035 C  
ENDROOT
BRANCH   4   5
HETATM    5  O   UNL     1      -6.443   8.859  68.477  1.00  0.00    -0.053 OA 
BRANCH   5   6
HETATM    6  C   UNL     1      -5.973   7.685  67.980  1.00  0.00    -0.040 C  
HETATM    7  O   UNL     1      -5.412   7.551  66.904  1.00  0.00    -0.025 OA 
BRANCH   6   8
HETATM    8  C   UNL     1      -6.252   6.555  68.955  1.00  0.00    -0.030 C  
BRANCH   8   9
HETATM    9  C   UNL     1      -7.562   5.842  68.711  1.00  0.00    -0.089 A  
HETATM   10  C   UNL     1      -7.549   4.757  67.811  1.00  0.00    -0.082 A  
HETATM   11  C   UNL     1      -8.703   4.022  67.550  1.00  0.00    -0.116 A  
HETATM   12  C   UNL     1      -9.882   4.331  68.213  1.00  0.00    -0.106 A  
HETATM   13  C   UNL     1      -9.918   5.418  69.088  1.00  0.00    -0.267 A  
HETATM   14  C   UNL     1      -8.787   6.217  69.308  1.00  0.00    -0.124 A  
BRANCH  14  15
HETATM   15  N   UNL     1      -8.922   7.406  70.058  1.00  0.00    -0.145 NA 
HETATM   16  H   UNL     1      -8.157   7.575  70.711  1.00  0.00     0.000 HD 
BRANCH  15  17
HETATM   17  C   UNL     1      -9.933   8.413  70.070  1.00  0.00    -0.188 A  
HETATM   18  C   UNL     1     -10.722   8.529  71.242  1.00  0.00    -0.240 A  
HETATM   19  C   UNL     1     -11.610   9.593  71.441  1.00  0.00    -0.472 A  
HETATM   20 CL   UNL     1     -10.619   7.345  72.506  1.00  0.00    -0.277 Cl 
HETATM   21  C   UNL     1     -11.755  10.566  70.463  1.00  0.00    -0.443 A  
HETATM   22  C   UNL     1     -11.070  10.428  69.261  1.00  0.00    -0.303 A  
HETATM   23  C   UNL     1     -10.182   9.356  69.049  1.00  0.00    -0.205 A  
HETATM   24 CL   UNL     1      -9.397   9.375  67.507  1.00  0.00    -0.143 Cl 
ENDBRANCH  15  17
ENDBRANCH  14  15
ENDBRANCH   8   9
ENDBRANCH   6   8
ENDBRANCH   5   6
ENDBRANCH   4   5
TORSDOF 6
ENDMDL
MODEL      372
REMARK 921   NORMALIZED FREE ENERGY PREDICTED BY IDOCK:   -3.29 KCAL/MOL
REMARK 922        TOTAL FREE ENERGY PREDICTED BY IDOCK:   -5.41 KCAL/MOL
REMARK 923 INTER-LIGAND FREE ENERGY PREDICTED BY IDOCK:   -4.68 KCAL/MOL
REMARK 924 INTRA-LIGAND FREE ENERGY PREDICTED BY IDOCK:   -0.73 KCAL/MOL
REMARK 927      BINDING AFFINITY PREDICTED BY RF-SCORE:    0.00 PKD
ROOT
HETATM    1  O   UNL     1      -5.446   8.188  63.222  1.00  0.00    -0.053 OA 
HETATM    2  C   UNL     1      -5.641   8.479  64.532  1.00  0.00    -0.058 C  
HETATM    3  O   UNL     1      -5.155   7.802  65.425  1.00  0.00    -0.028 OA 
HETATM    4  C   UNL     1      -6.511   9.712  64.745  1.00  0.00    -0.090 C  
ENDROOT
BRANCH   4   5
HETATM    5  O   UNL     1      -6.741   9.933  66.143  1.00  0.00    -0.084 OA 
BRANCH   5   6
HETATM    6  C   UNL     1      -7.169  11.174  66.490  1.00  0.00    -0.124 C  
HETATM    7  O   UNL     1      -6.462  12.167  66.567  1.00  0.00     0.008 OA 
BRANCH   6   8
HETATM    8  C   UNL     1      -8.659  11.151  66.779  1.00  0.00    -0.157 C  
BRANCH   8   9
HETATM    9  C   UNL     1      -9.513  11.684  65.652  1.00  0.00    -0.228 A  
HETATM   10  C   UNL     1     -10.077  10.742  64.768  1.00  0.00    -0.396 A  
HETATM   11  C   UNL     1     -10.902  11.141  63.719  1.00  0.00    -0.337 A  
HETATM   12  C   UNL     1     -11.212  12.483  63.557  1.00  0.00    -0.525 A  
HETATM   13  C   UNL     1     -10.641  13.431  64.408  1.00  0.00    -0.423 A  
HETATM   14  C   UNL     1      -9.749  13.059  65.423  1.00  0.00    -0.017 A  
BRANCH  14  15
HETATM   15  N   UNL     1      -9.062  14.066  66.137  1.00  0.00    -0.495 NA 
HETATM   16  H   UNL     1      -8.117  14.245  65.798  1.00  0.00     0.000 HD 
BRANCH  15  17
HETATM   17  C   UNL     1      -9.448  14.877  67.245  1.00  0.00    -0.213 A  
HETATM   18  C   UNL     1     -10.357  15.936  66.991  1.00  0.00    -0.297 A  
HETATM   19  C   UNL     1     -10.948  16.676  68.023  1.00  0.00    -0.311 A  
HETATM   20 CL   UNL     1     -10.790  16.368  65.367  1.00  0.00    -0.307 Cl 
HETATM   21  C   UNL     1     -10.633  16.395  69.344  1.00  0.00    -0.317 A  
HETATM   22  C   UNL     1      -9.671  15.430  69.622  1.00  0.00    -0.251 A  
HETATM   23  C   UNL     1      -9.064  14.689  68.591  1.00  0.00    -0.189 A  
HETATM   24 CL   UNL     1      -7.920  13.511  69.137  1.00  0.00     0.217 Cl 
ENDBRANCH  15  17
ENDBRANCH  14  15
ENDBRANCH   8   9
ENDBRANCH   6   8
ENDBRANCH   5   6
ENDBRANCH   4   5
TORSDOF 6
ENDMDL
MODEL      373
REMARK 921   NORMALIZED FREE ENERGY PREDICTED BY IDOCK:   -3.29 KCAL/MOL
REMARK 922        TOTAL FREE ENERGY PREDICTED BY IDOCK:   -5.40 KCAL/MOL
REMARK 923 INTER-LIGAND FREE ENERGY PREDICTED BY IDOCK:   -4.85 KCAL/MOL
REMARK 924 INTRA-LIGAND FREE ENERGY PREDICTED BY IDOCK:   -0.55 KCAL/MOL
REMARK 927      BINDING AFFINITY PREDICTED BY RF-SCORE:    0.00 PKD
ROOT
HETATM    1  O   UNL     1      -8.194   4.962  66.501  1.00  0.00    -0.107 OA 
HETATM    2  C   UNL     1      -7.952   6.294  66.445  1.00  0.00    -0.109 C  
HETATM    3  O   UNL     1      -8.193   6.955  65.447  1.00  0.00    -0.128 OA 
HETATM    4  C   UNL     1      -7.361   6.847  67.738  1.00  0.00    -0.097 C  
ENDROOT
BRANCH   4   5
HETATM    5  O   UNL     1      -7.063   8.242  67.600  1.00  0.00    -0.080 OA 
BRANCH   5   6
HETATM    6  C   UNL     1      -8.004   9.105  68.065  1.00  0.00    -0.101 C  
HETATM    7  O   UNL     1      -8.816   8.855  68.941  1.00  0.00    -0.135 OA 
BRANCH   6   8
HETATM    8  C   UNL     1      -7.906  10.429  67.330  1.00  0.00    -0.106 C  
BRANCH   8   9
HETATM    9  C   UNL     1      -8.058  10.314  65.831  1.00  0.00    -0.143 A  
HETATM   10  C   UNL     1      -6.878  10.178  65.071  1.00  0.00    -0.132 A  
HETATM   11  C   UNL     1      -6.923  10.035  63.686  1.00  0.00    -0.128 A  
HETATM   12  C   UNL     1      -8.149   9.985  63.038  1.00  0.00    -0.150 A  
HETATM   13  C   UNL     1      -9.326  10.143  63.772  1.00  0.00    -0.336 A  
HETATM   14  C   UNL     1      -9.299  10.364  65.157  1.00  0.00    -0.222 A  
BRANCH  14  15
HETATM   15  N   UNL     1     -10.500  10.697  65.822  1.00  0.00    -0.205 NA 
HETATM   16  H   UNL     1     -11.199   9.955  65.815  1.00  0.00     0.000 HD 
BRANCH  15  17
HETATM   17  C   UNL     1     -10.912  11.882  66.502  1.00  0.00    -0.292 A  
HETATM   18  C   UNL     1     -10.976  13.079  65.744  1.00  0.00    -0.277 A  
HETATM   19  C   UNL     1     -11.541  14.254  66.252  1.00  0.00    -0.379 A  
HETATM   20 CL   UNL     1     -10.350  13.143  64.126  1.00  0.00    -0.389 Cl 
HETATM   21  C   UNL     1     -12.044  14.278  67.544  1.00  0.00    -0.347 A  
HETATM   22  C   UNL     1     -11.908  13.151  68.347  1.00  0.00    -0.386 A  
HETATM   23  C   UNL     1     -11.331  11.968  67.848  1.00  0.00    -0.305 A  
HETATM   24 CL   UNL     1     -11.282  10.664  68.985  1.00  0.00    -0.295 Cl 
ENDBRANCH  15  17
ENDBRANCH  14  15
ENDBRANCH   8   9
ENDBRANCH   6   8
ENDBRANCH   5   6
ENDBRANCH   4   5
TORSDOF 6
ENDMDL
MODEL      374
REMARK 921   NORMALIZED FREE ENERGY PREDICTED BY IDOCK:   -3.27 KCAL/MOL
REMARK 922        TOTAL FREE ENERGY PREDICTED BY IDOCK:   -5.38 KCAL/MOL
REMARK 923 INTER-LIGAND FREE ENERGY PREDICTED BY IDOCK:   -4.84 KCAL/MOL
REMARK 924 INTRA-LIGAND FREE ENERGY PREDICTED BY IDOCK:   -0.55 KCAL/MOL
REMARK 927      BINDING AFFINITY PREDICTED BY RF-SCORE:    0.00 PKD
ROOT
HETATM    1  O   UNL     1      -8.941   6.073  65.863  1.00  0.00    -0.156 OA 
HETATM    2  C   UNL     1      -8.077   6.650  66.733  1.00  0.00    -0.113 C  
HETATM    3  O   UNL     1      -7.069   7.228  66.359  1.00  0.00    -0.073 OA 
HETATM    4  C   UNL     1      -8.504   6.492  68.188  1.00  0.00    -0.116 C  
ENDROOT
BRANCH   4   5
HETATM    5  O   UNL     1      -7.523   7.059  69.067  1.00  0.00    -0.090 OA 
BRANCH   5   6
HETATM    6  C   UNL     1      -7.648   6.750  70.384  1.00  0.00    -0.095 C  
HETATM    7  O   UNL     1      -7.329   5.687  70.890  1.00  0.00    -0.079 OA 
BRANCH   6   8
HETATM    8  C   UNL     1      -8.252   7.920  71.140  1.00  0.00    -0.109 C  
BRANCH   8   9
HETATM    9  C   UNL     1      -9.755   7.854  71.278  1.00  0.00    -0.187 A  
HETATM   10  C   UNL     1     -10.307   6.656  71.778  1.00  0.00    -0.218 A  
HETATM   11  C   UNL     1     -11.680   6.517  71.967  1.00  0.00    -0.367 A  
HETATM   12  C   UNL     1     -12.524   7.585  71.699  1.00  0.00    -0.371 A  
HETATM   13  C   UNL     1     -11.998   8.768  71.179  1.00  0.00    -0.331 A  
HETATM   14  C   UNL     1     -10.628   8.903  70.911  1.00  0.00    -0.233 A  
BRANCH  14  15
HETATM   15  N   UNL     1     -10.173  10.048  70.220  1.00  0.00    -0.378 NA 
HETATM   16  H   UNL     1      -9.237  10.351  70.488  1.00  0.00     0.000 HD 
BRANCH  15  17
HETATM   17  C   UNL     1     -10.784  10.859  69.217  1.00  0.00    -0.231 A  
HETATM   18  C   UNL     1     -11.634  11.906  69.655  1.00  0.00    -0.317 A  
HETATM   19  C   UNL     1     -12.137  12.875  68.779  1.00  0.00    -0.175 A  
HETATM   20 CL   UNL     1     -12.095  12.041  71.323  1.00  0.00    -0.004 Cl 
HETATM   21  C   UNL     1     -11.822  12.818  67.429  1.00  0.00    -0.404 A  
HETATM   22  C   UNL     1     -11.073  11.748  66.952  1.00  0.00    -0.361 A  
HETATM   23  C   UNL     1     -10.573  10.763  67.824  1.00  0.00    -0.228 A  
HETATM   24 CL   UNL     1      -9.634   9.534  67.049  1.00  0.00    -0.200 Cl 
ENDBRANCH  15  17
ENDBRANCH  14  15
ENDBRANCH   8   9
ENDBRANCH   6   8
ENDBRANCH   5   6
ENDBRANCH   4   5
TORSDOF 6
ENDMDL
MODEL      375
REMARK 921   NORMALIZED FREE ENERGY PREDICTED BY IDOCK:   -3.26 KCAL/MOL
REMARK 922        TOTAL FREE ENERGY PREDICTED BY IDOCK:   -5.36 KCAL/MOL
REMARK 923 INTER-LIGAND FREE ENERGY PREDICTED BY IDOCK:   -3.97 KCAL/MOL
REMARK 924 INTRA-LIGAND FREE ENERGY PREDICTED BY IDOCK:   -1.39 KCAL/MOL
REMARK 927      BINDING AFFINITY PREDICTED BY RF-SCORE:    0.00 PKD
ROOT
HETATM    1  O   UNL     1      -9.891   3.681  67.578  1.00  0.00    -0.129 OA 
HETATM    2  C   UNL     1      -9.670   4.892  68.144  1.00  0.00    -0.148 C  
HETATM    3  O   UNL     1      -9.435   5.886  67.476  1.00  0.00    -0.111 OA 
HETATM    4  C   UNL     1      -9.750   4.862  69.667  1.00  0.00    -0.196 C  
ENDROOT
BRANCH   4   5
HETATM    5  O   UNL     1      -9.443   6.151  70.214  1.00  0.00    -0.158 OA 
BRANCH   5   6
HETATM    6  C   UNL     1     -10.493   6.860  70.702  1.00  0.00    -0.210 C  
HETATM    7  O   UNL     1     -11.589   6.397  70.974  1.00  0.00    -0.324 OA 
BRANCH   6   8
HETATM    8  C   UNL     1     -10.110   8.321  70.857  1.00  0.00    -0.224 C  
BRANCH   8   9
HETATM    9  C   UNL     1      -8.665   8.617  70.529  1.00  0.00    -0.178 A  
HETATM   10  C   UNL     1      -7.784   8.817  71.612  1.00  0.00    -0.117 A  
HETATM   11  C   UNL     1      -6.429   9.064  71.404  1.00  0.00    -0.079 A  
HETATM   12  C   UNL     1      -5.921   9.076  70.113  1.00  0.00    -0.034 A  
HETATM   13  C   UNL     1      -6.783   8.905  69.029  1.00  0.00    -0.052 A  
HETATM   14  C   UNL     1      -8.162   8.729  69.213  1.00  0.00    -0.108 A  
BRANCH  14  15
HETATM   15  N   UNL     1      -9.012   8.742  68.085  1.00  0.00    -0.141 NA 
HETATM   16  H   UNL     1      -9.465   7.848  67.895  1.00  0.00     0.000 HD 
BRANCH  15  17
HETATM   17  C   UNL     1      -9.353   9.776  67.162  1.00  0.00    -0.142 A  
HETATM   18  C   UNL     1      -8.933   9.613  65.818  1.00  0.00    -0.169 A  
HETATM   19  C   UNL     1      -9.365  10.462  64.792  1.00  0.00    -0.301 A  
HETATM   20 CL   UNL     1      -7.850   8.331  65.372  1.00  0.00    -0.106 Cl 
HETATM   21  C   UNL     1     -10.217  11.518  65.082  1.00  0.00    -0.322 A  
HETATM   22  C   UNL     1     -10.568  11.764  66.405  1.00  0.00    -0.293 A  
HETATM   23  C   UNL     1     -10.129  10.922  67.443  1.00  0.00    -0.191 A  
HETATM   24 CL   UNL     1     -10.699  11.370  69.014  1.00  0.00    -0.240 Cl 
ENDBRANCH  15  17
ENDBRANCH  14  15
ENDBRANCH   8   9
ENDBRANCH   6   8
ENDBRANCH   5   6
ENDBRANCH   4   5
TORSDOF 6
ENDMDL
MODEL      376
REMARK 921   NORMALIZED FREE ENERGY PREDICTED BY IDOCK:   -3.26 KCAL/MOL
REMARK 922        TOTAL FREE ENERGY PREDICTED BY IDOCK:   -5.36 KCAL/MOL
REMARK 923 INTER-LIGAND FREE ENERGY PREDICTED BY IDOCK:   -4.60 KCAL/MOL
REMARK 924 INTRA-LIGAND FREE ENERGY PREDICTED BY IDOCK:   -0.76 KCAL/MOL
REMARK 927      BINDING AFFINITY PREDICTED BY RF-SCORE:    0.00 PKD
ROOT
HETATM    1  O   UNL     1     -14.262   7.640  71.862  1.00  0.00    -0.381 OA 
HETATM    2  C   UNL     1     -12.933   7.502  71.637  1.00  0.00    -0.358 C  
HETATM    3  O   UNL     1     -12.329   6.483  71.933  1.00  0.00    -0.347 OA 
HETATM    4  C   UNL     1     -12.307   8.733  70.992  1.00  0.00    -0.151 C  
ENDROOT
BRANCH   4   5
HETATM    5  O   UNL     1     -10.891   8.558  70.840  1.00  0.00    -0.219 OA 
BRANCH   5   6
HETATM    6  C   UNL     1     -10.464   8.172  69.610  1.00  0.00    -0.224 C  
HETATM    7  O   UNL     1     -10.552   7.042  69.158  1.00  0.00    -0.207 OA 
BRANCH   6   8
HETATM    8  C   UNL     1      -9.852   9.351  68.876  1.00  0.00    -0.176 C  
BRANCH   8   9
HETATM    9  C   UNL     1      -8.370   9.212  68.615  1.00  0.00    -0.126 A  
HETATM   10  C   UNL     1      -7.564   8.769  69.685  1.00  0.00    -0.076 A  
HETATM   11  C   UNL     1      -6.193   8.583  69.527  1.00  0.00    -0.036 A  
HETATM   12  C   UNL     1      -5.607   8.796  68.287  1.00  0.00    -0.038 A  
HETATM   13  C   UNL     1      -6.385   9.259  67.225  1.00  0.00    -0.059 A  
HETATM   14  C   UNL     1      -7.753   9.524  67.383  1.00  0.00    -0.095 A  
BRANCH  14  15
HETATM   15  N   UNL     1      -8.454  10.159  66.334  1.00  0.00    -0.129 NA 
HETATM   16  H   UNL     1      -8.599   9.571  65.514  1.00  0.00     0.000 HD 
BRANCH  15  17
HETATM   17  C   UNL     1      -8.996  11.474  66.212  1.00  0.00    -0.196 A  
HETATM   18  C   UNL     1      -9.923  11.700  65.162  1.00  0.00    -0.259 A  
HETATM   19  C   UNL     1     -10.657  12.888  65.058  1.00  0.00    -0.333 A  
HETATM   20 CL   UNL     1     -10.198  10.498  63.941  1.00  0.00    -0.305 Cl 
HETATM   21  C   UNL     1     -10.473  13.899  65.991  1.00  0.00    -0.299 A  
HETATM   22  C   UNL     1      -9.502  13.747  66.974  1.00  0.00    -0.255 A  
HETATM   23  C   UNL     1      -8.752  12.561  67.079  1.00  0.00    -0.205 A  
HETATM   24 CL   UNL     1      -7.618  12.548  68.386  1.00  0.00    -0.124 Cl 
ENDBRANCH  15  17
ENDBRANCH  14  15
ENDBRANCH   8   9
ENDBRANCH   6   8
ENDBRANCH   5   6
ENDBRANCH   4   5
TORSDOF 6
ENDMDL
MODEL      377
REMARK 921   NORMALIZED FREE ENERGY PREDICTED BY IDOCK:   -3.25 KCAL/MOL
REMARK 922        TOTAL FREE ENERGY PREDICTED BY IDOCK:   -5.35 KCAL/MOL
REMARK 923 INTER-LIGAND FREE ENERGY PREDICTED BY IDOCK:   -4.39 KCAL/MOL
REMARK 924 INTRA-LIGAND FREE ENERGY PREDICTED BY IDOCK:   -0.97 KCAL/MOL
REMARK 927      BINDING AFFINITY PREDICTED BY RF-SCORE:    0.00 PKD
ROOT
HETATM    1  O   UNL     1     -11.217   8.249  72.463  1.00  0.00    -0.363 OA 
HETATM    2  C   UNL     1     -11.496   7.818  71.209  1.00  0.00    -0.269 C  
HETATM    3  O   UNL     1     -12.438   7.078  70.974  1.00  0.00    -0.376 OA 
HETATM    4  C   UNL     1     -10.522   8.352  70.165  1.00  0.00    -0.228 C  
ENDROOT
BRANCH   4   5
HETATM    5  O   UNL     1     -10.822   7.812  68.871  1.00  0.00    -0.132 OA 
BRANCH   5   6
HETATM    6  C   UNL     1      -9.809   7.158  68.246  1.00  0.00    -0.151 C  
HETATM    7  O   UNL     1      -8.660   7.560  68.159  1.00  0.00    -0.123 OA 
BRANCH   6   8
HETATM    8  C   UNL     1     -10.314   5.851  67.661  1.00  0.00    -0.265 C  
BRANCH   8   9
HETATM    9  C   UNL     1      -9.898   4.626  68.442  1.00  0.00    -0.169 A  
HETATM   10  C   UNL     1      -9.761   4.766  69.839  1.00  0.00    -0.274 A  
HETATM   11  C   UNL     1      -9.411   3.683  70.642  1.00  0.00    -0.242 A  
HETATM   12  C   UNL     1      -9.233   2.431  70.071  1.00  0.00    -0.189 A  
HETATM   13  C   UNL     1      -9.340   2.280  68.688  1.00  0.00    -0.238 A  
HETATM   14  C   UNL     1      -9.617   3.372  67.853  1.00  0.00    -0.105 A  
BRANCH  14  15
HETATM   15  N   UNL     1      -9.536   3.204  66.453  1.00  0.00    -0.405 NA 
HETATM   16  H   UNL     1     -10.220   2.549  66.073  1.00  0.00     0.000 HD 
BRANCH  15  17
HETATM   17  C   UNL     1      -8.674   3.782  65.474  1.00  0.00    -0.118 A  
HETATM   18  C   UNL     1      -9.248   4.127  64.223  1.00  0.00    -0.150 A  
HETATM   19  C   UNL     1      -8.551   4.865  63.260  1.00  0.00    -0.122 A  
HETATM   20 CL   UNL     1     -10.867   3.645  63.824  1.00  0.00    -0.266 Cl 
HETATM   21  C   UNL     1      -7.246   5.267  63.507  1.00  0.00    -0.049 A  
HETATM   22  C   UNL     1      -6.622   4.862  64.682  1.00  0.00    -0.043 A  
HETATM   23  C   UNL     1      -7.312   4.110  65.651  1.00  0.00    -0.076 A  
HETATM   24 CL   UNL     1      -6.379   3.732  67.058  1.00  0.00    -0.036 Cl 
ENDBRANCH  15  17
ENDBRANCH  14  15
ENDBRANCH   8   9
ENDBRANCH   6   8
ENDBRANCH   5   6
ENDBRANCH   4   5
TORSDOF 6
ENDMDL
MODEL      378
REMARK 921   NORMALIZED FREE ENERGY PREDICTED BY IDOCK:   -3.21 KCAL/MOL
REMARK 922        TOTAL FREE ENERGY PREDICTED BY IDOCK:   -5.30 KCAL/MOL
REMARK 923 INTER-LIGAND FREE ENERGY PREDICTED BY IDOCK:   -5.19 KCAL/MOL
REMARK 924 INTRA-LIGAND FREE ENERGY PREDICTED BY IDOCK:   -0.11 KCAL/MOL
REMARK 927      BINDING AFFINITY PREDICTED BY RF-SCORE:    0.00 PKD
ROOT
HETATM    1  O   UNL     1     -12.207  15.747  71.867  1.00  0.00    -0.377 OA 
HETATM    2  C   UNL     1     -12.157  14.741  70.961  1.00  0.00    -0.330 C  
HETATM    3  O   UNL     1     -12.684  13.658  71.164  1.00  0.00    -0.341 OA 
HETATM    4  C   UNL     1     -11.387  15.114  69.699  1.00  0.00    -0.283 C  
ENDROOT
BRANCH   4   5
HETATM    5  O   UNL     1     -11.307  13.995  68.806  1.00  0.00    -0.246 OA 
BRANCH   5   6
HETATM    6  C   UNL     1     -10.063  13.495  68.583  1.00  0.00    -0.166 C  
HETATM    7  O   UNL     1      -9.044  14.159  68.493  1.00  0.00    -0.192 OA 
BRANCH   6   8
HETATM    8  C   UNL     1     -10.123  11.984  68.453  1.00  0.00    -0.211 C  
BRANCH   8   9
HETATM    9  C   UNL     1     -10.163  11.489  67.025  1.00  0.00    -0.244 A  
HETATM   10  C   UNL     1     -11.187  11.992  66.196  1.00  0.00    -0.394 A  
HETATM   11  C   UNL     1     -11.282  11.615  64.858  1.00  0.00    -0.287 A  
HETATM   12  C   UNL     1     -10.334  10.762  64.313  1.00  0.00    -0.401 A  
HETATM   13  C   UNL     1      -9.330  10.235  65.127  1.00  0.00    -0.279 A  
HETATM   14  C   UNL     1      -9.260  10.542  66.493  1.00  0.00    -0.161 A  
BRANCH  14  15
HETATM   15  N   UNL     1      -8.339   9.846  67.307  1.00  0.00    -0.121 NA 
HETATM   16  H   UNL     1      -7.362  10.034  67.085  1.00  0.00     0.000 HD 
BRANCH  15  17
HETATM   17  C   UNL     1      -8.526   8.926  68.382  1.00  0.00    -0.129 A  
HETATM   18  C   UNL     1      -9.605   8.012  68.276  1.00  0.00    -0.146 A  
HETATM   19  C   UNL     1      -9.773   6.949  69.172  1.00  0.00    -0.155 A  
HETATM   20 CL   UNL     1     -10.782   8.165  67.010  1.00  0.00    -0.343 Cl 
HETATM   21  C   UNL     1      -8.879   6.778  70.218  1.00  0.00    -0.152 A  
HETATM   22  C   UNL     1      -7.868   7.715  70.408  1.00  0.00    -0.092 A  
HETATM   23  C   UNL     1      -7.698   8.792  69.518  1.00  0.00    -0.089 A  
HETATM   24 CL   UNL     1      -6.367   9.828  69.900  1.00  0.00    -0.051 Cl 
ENDBRANCH  15  17
ENDBRANCH  14  15
ENDBRANCH   8   9
ENDBRANCH   6   8
ENDBRANCH   5   6
ENDBRANCH   4   5
TORSDOF 6
ENDMDL
MODEL      379
REMARK 921   NORMALIZED FREE ENERGY PREDICTED BY IDOCK:   -3.17 KCAL/MOL
REMARK 922        TOTAL FREE ENERGY PREDICTED BY IDOCK:   -5.24 KCAL/MOL
REMARK 923 INTER-LIGAND FREE ENERGY PREDICTED BY IDOCK:   -5.10 KCAL/MOL
REMARK 924 INTRA-LIGAND FREE ENERGY PREDICTED BY IDOCK:   -0.14 KCAL/MOL
REMARK 927      BINDING AFFINITY PREDICTED BY RF-SCORE:    0.00 PKD
ROOT
HETATM    1  O   UNL     1      -8.475  15.399  68.828  1.00  0.00    -0.162 OA 
HETATM    2  C   UNL     1      -9.743  14.936  68.954  1.00  0.00    -0.223 C  
HETATM    3  O   UNL     1     -10.681  15.677  69.201  1.00  0.00    -0.217 OA 
HETATM    4  C   UNL     1      -9.848  13.428  68.757  1.00  0.00    -0.021 C  
ENDROOT
BRANCH   4   5
HETATM    5  O   UNL     1     -11.196  12.984  68.968  1.00  0.00    -0.254 OA 
BRANCH   5   6
HETATM    6  C   UNL     1     -11.783  12.336  67.929  1.00  0.00    -0.347 C  
HETATM    7  O   UNL     1     -12.128  12.856  66.880  1.00  0.00    -0.388 OA 
BRANCH   6   8
HETATM    8  C   UNL     1     -11.955  10.865  68.261  1.00  0.00    -0.024 C  
BRANCH   8   9
HETATM    9  C   UNL     1     -10.920   9.965  67.626  1.00  0.00    -0.263 A  
HETATM   10  C   UNL     1     -10.377  10.376  66.391  1.00  0.00    -0.278 A  
HETATM   11  C   UNL     1      -9.396   9.625  65.748  1.00  0.00    -0.286 A  
HETATM   12  C   UNL     1      -8.909   8.471  66.346  1.00  0.00    -0.178 A  
HETATM   13  C   UNL     1      -9.454   8.037  67.555  1.00  0.00    -0.177 A  
HETATM   14  C   UNL     1     -10.494   8.737  68.181  1.00  0.00    -0.191 A  
BRANCH  14  15
HETATM   15  N   UNL     1     -11.131   8.163  69.304  1.00  0.00    -0.434 NA 
HETATM   16  H   UNL     1     -12.127   7.985  69.172  1.00  0.00     0.000 HD 
BRANCH  15  17
HETATM   17  C   UNL     1     -10.636   7.786  70.588  1.00  0.00    -0.222 A  
HETATM   18  C   UNL     1      -9.785   6.653  70.651  1.00  0.00    -0.172 A  
HETATM   19  C   UNL     1      -9.094   6.303  71.817  1.00  0.00    -0.144 A  
HETATM   20 CL   UNL     1      -9.552   5.636  69.264  1.00  0.00    -0.168 Cl 
HETATM   21  C   UNL     1      -9.248   7.062  72.967  1.00  0.00    -0.163 A  
HETATM   22  C   UNL     1     -10.151   8.120  72.967  1.00  0.00    -0.290 A  
HETATM   23  C   UNL     1     -10.857   8.473  71.802  1.00  0.00    -0.304 A  
HETATM   24 CL   UNL     1     -11.905   9.837  71.989  1.00  0.00    -0.200 Cl 
ENDBRANCH  15  17
ENDBRANCH  14  15
ENDBRANCH   8   9
ENDBRANCH   6   8
ENDBRANCH   5   6
ENDBRANCH   4   5
TORSDOF 6
ENDMDL
MODEL      380
REMARK 921   NORMALIZED FREE ENERGY PREDICTED BY IDOCK:   -3.16 KCAL/MOL
REMARK 922        TOTAL FREE ENERGY PREDICTED BY IDOCK:   -5.23 KCAL/MOL
REMARK 923 INTER-LIGAND FREE ENERGY PREDICTED BY IDOCK:   -4.07 KCAL/MOL
REMARK 924 INTRA-LIGAND FREE ENERGY PREDICTED BY IDOCK:   -1.16 KCAL/MOL
REMARK 927      BINDING AFFINITY PREDICTED BY RF-SCORE:    0.00 PKD
ROOT
HETATM    1  O   UNL     1      -5.327  10.942  67.348  1.00  0.00    -0.039 OA 
HETATM    2  C   UNL     1      -6.505  10.279  67.449  1.00  0.00    -0.067 C  
HETATM    3  O   UNL     1      -6.866   9.755  68.491  1.00  0.00    -0.056 OA 
HETATM    4  C   UNL     1      -7.295  10.268  66.145  1.00  0.00    -0.122 C  
ENDROOT
BRANCH   4   5
HETATM    5  O   UNL     1      -8.496   9.497  66.290  1.00  0.00    -0.114 OA 
BRANCH   5   6
HETATM    6  C   UNL     1      -9.644  10.204  66.460  1.00  0.00    -0.187 C  
HETATM    7  O   UNL     1      -9.980  11.170  65.795  1.00  0.00    -0.224 OA 
BRANCH   6   8
HETATM    8  C   UNL     1     -10.451   9.621  67.606  1.00  0.00    -0.317 C  
BRANCH   8   9
HETATM    9  C   UNL     1     -10.161   8.164  67.884  1.00  0.00    -0.274 A  
HETATM   10  C   UNL     1     -10.548   7.229  66.903  1.00  0.00    -0.375 A  
HETATM   11  C   UNL     1     -10.294   5.869  67.061  1.00  0.00    -0.298 A  
HETATM   12  C   UNL     1      -9.612   5.421  68.184  1.00  0.00    -0.154 A  
HETATM   13  C   UNL     1      -9.244   6.330  69.177  1.00  0.00    -0.128 A  
HETATM   14  C   UNL     1      -9.557   7.693  69.072  1.00  0.00    -0.151 A  
BRANCH  14  15
HETATM   15  N   UNL     1      -9.326   8.538  70.180  1.00  0.00    -0.158 NA 
HETATM   16  H   UNL     1      -9.054   9.489  69.929  1.00  0.00     0.000 HD 
BRANCH  15  17
HETATM   17  C   UNL     1      -9.401   8.305  71.586  1.00  0.00    -0.192 A  
HETATM   18  C   UNL     1     -10.687   8.072  72.139  1.00  0.00    -0.276 A  
HETATM   19  C   UNL     1     -10.865   7.649  73.462  1.00  0.00    -0.118 A  
HETATM   20 CL   UNL     1     -12.120   8.298  71.187  1.00  0.00    -0.294 Cl 
HETATM   21  C   UNL     1      -9.763   7.465  74.283  1.00  0.00     0.011 A  
HETATM   22  C   UNL     1      -8.496   7.780  73.802  1.00  0.00    -0.289 A  
HETATM   23  C   UNL     1      -8.309   8.216  72.477  1.00  0.00    -0.172 A  
HETATM   24 CL   UNL     1      -6.660   8.523  72.054  1.00  0.00    -0.074 Cl 
ENDBRANCH  15  17
ENDBRANCH  14  15
ENDBRANCH   8   9
ENDBRANCH   6   8
ENDBRANCH   5   6
ENDBRANCH   4   5
TORSDOF 6
ENDMDL
MODEL      381
REMARK 921   NORMALIZED FREE ENERGY PREDICTED BY IDOCK:   -3.13 KCAL/MOL
REMARK 922        TOTAL FREE ENERGY PREDICTED BY IDOCK:   -5.19 KCAL/MOL
REMARK 923 INTER-LIGAND FREE ENERGY PREDICTED BY IDOCK:   -3.92 KCAL/MOL
REMARK 924 INTRA-LIGAND FREE ENERGY PREDICTED BY IDOCK:   -1.27 KCAL/MOL
REMARK 927      BINDING AFFINITY PREDICTED BY RF-SCORE:    0.00 PKD
ROOT
HETATM    1  O   UNL     1      -8.558  10.196  69.538  1.00  0.00    -0.161 OA 
HETATM    2  C   UNL     1      -8.704   9.455  70.663  1.00  0.00    -0.211 C  
HETATM    3  O   UNL     1      -9.657   9.598  71.414  1.00  0.00    -0.131 OA 
HETATM    4  C   UNL     1      -7.572   8.456  70.870  1.00  0.00    -0.079 C  
ENDROOT
BRANCH   4   5
HETATM    5  O   UNL     1      -7.741   7.749  72.106  1.00  0.00    -0.083 OA 
BRANCH   5   6
HETATM    6  C   UNL     1      -7.679   6.394  72.035  1.00  0.00    -0.096 C  
HETATM    7  O   UNL     1      -6.721   5.754  71.632  1.00  0.00    -0.051 OA 
BRANCH   6   8
HETATM    8  C   UNL     1      -8.980   5.784  72.524  1.00  0.00    -0.133 C  
BRANCH   8   9
HETATM    9  C   UNL     1     -10.198   6.226  71.746  1.00  0.00    -0.224 A  
HETATM   10  C   UNL     1     -11.307   6.684  72.487  1.00  0.00    -0.290 A  
HETATM   11  C   UNL     1     -12.460   7.139  71.852  1.00  0.00    -0.341 A  
HETATM   12  C   UNL     1     -12.513   7.185  70.467  1.00  0.00    -0.050 A  
HETATM   13  C   UNL     1     -11.434   6.712  69.718  1.00  0.00    -0.388 A  
HETATM   14  C   UNL     1     -10.293   6.179  70.337  1.00  0.00    -0.213 A  
BRANCH  14  15
HETATM   15  N   UNL     1      -9.310   5.551  69.540  1.00  0.00    -0.126 NA 
HETATM   16  H   UNL     1      -8.426   6.058  69.493  1.00  0.00     0.000 HD 
BRANCH  15  17
HETATM   17  C   UNL     1      -9.328   4.338  68.789  1.00  0.00    -0.153 A  
HETATM   18  C   UNL     1      -9.305   4.447  67.375  1.00  0.00    -0.155 A  
HETATM   19  C   UNL     1      -9.133   3.334  66.543  1.00  0.00    -0.173 A  
HETATM   20 CL   UNL     1      -9.489   5.988  66.598  1.00  0.00    -0.158 Cl 
HETATM   21  C   UNL     1      -8.997   2.070  67.098  1.00  0.00    -0.156 A  
HETATM   22  C   UNL     1      -9.114   1.917  68.475  1.00  0.00    -0.200 A  
HETATM   23  C   UNL     1      -9.299   3.029  69.318  1.00  0.00    -0.147 A  
HETATM   24 CL   UNL     1      -9.385   2.641  71.002  1.00  0.00    -0.204 Cl 
ENDBRANCH  15  17
ENDBRANCH  14  15
ENDBRANCH   8   9
ENDBRANCH   6   8
ENDBRANCH   5   6
ENDBRANCH   4   5
TORSDOF 6
ENDMDL
MODEL      382
REMARK 921   NORMALIZED FREE ENERGY PREDICTED BY IDOCK:   -3.10 KCAL/MOL
REMARK 922        TOTAL FREE ENERGY PREDICTED BY IDOCK:   -5.15 KCAL/MOL
REMARK 923 INTER-LIGAND FREE ENERGY PREDICTED BY IDOCK:   -4.78 KCAL/MOL
REMARK 924 INTRA-LIGAND FREE ENERGY PREDICTED BY IDOCK:   -0.37 KCAL/MOL
REMARK 927      BINDING AFFINITY PREDICTED BY RF-SCORE:    0.00 PKD
ROOT
HETATM    1  O   UNL     1      -9.514   3.358  67.165  1.00  0.00    -0.201 OA 
HETATM    2  C   UNL     1      -9.053   4.402  67.897  1.00  0.00    -0.127 C  
HETATM    3  O   UNL     1      -8.462   5.340  67.385  1.00  0.00    -0.107 OA 
HETATM    4  C   UNL     1      -9.353   4.265  69.385  1.00  0.00    -0.166 C  
ENDROOT
BRANCH   4   5
HETATM    5  O   UNL     1      -8.786   5.359  70.117  1.00  0.00    -0.122 OA 
BRANCH   5   6
HETATM    6  C   UNL     1      -9.527   5.837  71.150  1.00  0.00    -0.158 C  
HETATM    7  O   UNL     1     -10.491   5.274  71.644  1.00  0.00    -0.217 OA 
BRANCH   6   8
HETATM    8  C   UNL     1      -8.988   7.182  71.603  1.00  0.00    -0.136 C  
BRANCH   8   9
HETATM    9  C   UNL     1      -8.329   7.982  70.503  1.00  0.00    -0.123 A  
HETATM   10  C   UNL     1      -6.919   8.006  70.477  1.00  0.00    -0.041 A  
HETATM   11  C   UNL     1      -6.228   8.693  69.481  1.00  0.00    -0.036 A  
HETATM   12  C   UNL     1      -6.930   9.334  68.471  1.00  0.00    -0.067 A  
HETATM   13  C   UNL     1      -8.325   9.342  68.497  1.00  0.00    -0.119 A  
HETATM   14  C   UNL     1      -9.041   8.721  69.530  1.00  0.00    -0.146 A  
BRANCH  14  15
HETATM   15  N   UNL     1     -10.438   8.910  69.608  1.00  0.00    -0.213 NA 
HETATM   16  H   UNL     1     -10.980   8.237  69.066  1.00  0.00     0.000 HD 
BRANCH  15  17
HETATM   17  C   UNL     1     -11.230   9.870  70.306  1.00  0.00    -0.301 A  
HETATM   18  C   UNL     1     -11.261  11.189  69.787  1.00  0.00    -0.245 A  
HETATM   19  C   UNL     1     -12.142  12.162  70.273  1.00  0.00    -0.385 A  
HETATM   20 CL   UNL     1     -10.195  11.666  68.503  1.00  0.00    -0.207 Cl 
HETATM   21  C   UNL     1     -13.010  11.853  71.311  1.00  0.00    -0.334 A  
HETATM   22  C   UNL     1     -12.936  10.599  71.907  1.00  0.00    -0.542 A  
HETATM   23  C   UNL     1     -12.045   9.619  71.432  1.00  0.00    -0.388 A  
HETATM   24 CL   UNL     1     -12.124   8.113  72.279  1.00  0.00    -0.404 Cl 
ENDBRANCH  15  17
ENDBRANCH  14  15
ENDBRANCH   8   9
ENDBRANCH   6   8
ENDBRANCH   5   6
ENDBRANCH   4   5
TORSDOF 6
ENDMDL
MODEL      383
REMARK 921   NORMALIZED FREE ENERGY PREDICTED BY IDOCK:   -3.09 KCAL/MOL
REMARK 922        TOTAL FREE ENERGY PREDICTED BY IDOCK:   -5.13 KCAL/MOL
REMARK 923 INTER-LIGAND FREE ENERGY PREDICTED BY IDOCK:   -4.31 KCAL/MOL
REMARK 924 INTRA-LIGAND FREE ENERGY PREDICTED BY IDOCK:   -0.81 KCAL/MOL
REMARK 927      BINDING AFFINITY PREDICTED BY RF-SCORE:    0.00 PKD
ROOT
HETATM    1  O   UNL     1     -11.297  16.860  64.986  1.00  0.00    -0.249 OA 
HETATM    2  C   UNL     1     -11.738  15.753  64.340  1.00  0.00    -0.201 C  
HETATM    3  O   UNL     1     -12.710  15.778  63.601  1.00  0.00    -0.438 OA 
HETATM    4  C   UNL     1     -10.900  14.515  64.639  1.00  0.00    -0.332 C  
ENDROOT
BRANCH   4   5
HETATM    5  O   UNL     1     -11.450  13.363  63.986  1.00  0.00    -0.382 OA 
BRANCH   5   6
HETATM    6  C   UNL     1     -11.053  12.156  64.467  1.00  0.00    -0.325 C  
HETATM    7  O   UNL     1     -11.796  11.223  64.727  1.00  0.00     0.152 OA 
BRANCH   6   8
HETATM    8  C   UNL     1      -9.546  12.134  64.642  1.00  0.00     0.042 C  
BRANCH   8   9
HETATM    9  C   UNL     1      -8.938  10.751  64.572  1.00  0.00    -0.181 A  
HETATM   10  C   UNL     1      -8.743  10.195  63.291  1.00  0.00    -0.214 A  
HETATM   11  C   UNL     1      -8.161   8.940  63.130  1.00  0.00    -0.183 A  
HETATM   12  C   UNL     1      -7.727   8.234  64.242  1.00  0.00    -0.134 A  
HETATM   13  C   UNL     1      -7.937   8.758  65.519  1.00  0.00    -0.102 A  
HETATM   14  C   UNL     1      -8.587   9.986  65.707  1.00  0.00    -0.145 A  
BRANCH  14  15
HETATM   15  N   UNL     1      -8.935  10.385  67.016  1.00  0.00    -0.139 NA 
HETATM   16  H   UNL     1      -9.244   9.621  67.616  1.00  0.00     0.000 HD 
BRANCH  15  17
HETATM   17  C   UNL     1      -8.932  11.663  67.653  1.00  0.00    -0.166 A  
HETATM   18  C   UNL     1      -7.675  12.289  67.850  1.00  0.00    -0.133 A  
HETATM   19  C   UNL     1      -7.563  13.613  68.290  1.00  0.00    -0.130 A  
HETATM   20 CL   UNL     1      -6.196  11.434  67.546  1.00  0.00    -0.062 Cl 
HETATM   21  C   UNL     1      -8.705  14.350  68.567  1.00  0.00    -0.180 A  
HETATM   22  C   UNL     1      -9.949  13.734  68.479  1.00  0.00    -0.217 A  
HETATM   23  C   UNL     1     -10.070  12.399  68.048  1.00  0.00    -0.214 A  
HETATM   24 CL   UNL     1     -11.699  11.821  67.970  1.00  0.00    -0.381 Cl 
ENDBRANCH  15  17
ENDBRANCH  14  15
ENDBRANCH   8   9
ENDBRANCH   6   8
ENDBRANCH   5   6
ENDBRANCH   4   5
TORSDOF 6
ENDMDL
MODEL      384
REMARK 921   NORMALIZED FREE ENERGY PREDICTED BY IDOCK:   -3.05 KCAL/MOL
REMARK 922        TOTAL FREE ENERGY PREDICTED BY IDOCK:   -5.08 KCAL/MOL
REMARK 923 INTER-LIGAND FREE ENERGY PREDICTED BY IDOCK:   -4.26 KCAL/MOL
REMARK 924 INTRA-LIGAND FREE ENERGY PREDICTED BY IDOCK:   -0.83 KCAL/MOL
REMARK 927      BINDING AFFINITY PREDICTED BY RF-SCORE:    0.00 PKD
ROOT
HETATM    1  O   UNL     1     -12.730   7.015  71.634  1.00  0.00    -0.361 OA 
HETATM    2  C   UNL     1     -11.698   7.893  71.681  1.00  0.00    -0.281 C  
HETATM    3  O   UNL     1     -10.974   7.989  72.659  1.00  0.00    -0.334 OA 
HETATM    4  C   UNL     1     -11.558   8.716  70.405  1.00  0.00    -0.078 C  
ENDROOT
BRANCH   4   5
HETATM    5  O   UNL     1     -10.497   9.672  70.536  1.00  0.00    -0.264 OA 
BRANCH   5   6
HETATM    6  C   UNL     1      -9.719   9.857  69.438  1.00  0.00    -0.214 C  
HETATM    7  O   UNL     1      -8.617  10.380  69.436  1.00  0.00    -0.165 OA 
BRANCH   6   8
HETATM    8  C   UNL     1     -10.423   9.323  68.203  1.00  0.00    -0.263 C  
BRANCH   8   9
HETATM    9  C   UNL     1      -9.492   8.725  67.174  1.00  0.00    -0.208 A  
HETATM   10  C   UNL     1      -9.216   9.496  66.026  1.00  0.00    -0.248 A  
HETATM   11  C   UNL     1      -8.346   9.037  65.040  1.00  0.00    -0.174 A  
HETATM   12  C   UNL     1      -7.703   7.818  65.202  1.00  0.00    -0.101 A  
HETATM   13  C   UNL     1      -7.983   7.031  66.319  1.00  0.00    -0.114 A  
HETATM   14  C   UNL     1      -8.913   7.440  67.286  1.00  0.00    -0.124 A  
BRANCH  14  15
HETATM   15  N   UNL     1      -9.295   6.532  68.299  1.00  0.00    -0.119 NA 
HETATM   16  H   UNL     1      -9.771   6.967  69.089  1.00  0.00     0.000 HD 
BRANCH  15  17
HETATM   17  C   UNL     1      -9.136   5.119  68.418  1.00  0.00    -0.112 A  
HETATM   18  C   UNL     1      -8.620   4.623  69.643  1.00  0.00    -0.077 A  
HETATM   19  C   UNL     1      -8.596   3.256  69.943  1.00  0.00    -0.108 A  
HETATM   20 CL   UNL     1      -7.988   5.703  70.846  1.00  0.00    -0.107 Cl 
HETATM   21  C   UNL     1      -9.069   2.336  69.019  1.00  0.00    -0.186 A  
HETATM   22  C   UNL     1      -9.490   2.782  67.771  1.00  0.00    -0.176 A  
HETATM   23  C   UNL     1      -9.508   4.154  67.456  1.00  0.00    -0.184 A  
HETATM   24 CL   UNL     1     -10.097   4.514  65.870  1.00  0.00    -0.257 Cl 
ENDBRANCH  15  17
ENDBRANCH  14  15
ENDBRANCH   8   9
ENDBRANCH   6   8
ENDBRANCH   5   6
ENDBRANCH   4   5
TORSDOF 6
ENDMDL
MODEL      385
REMARK 921   NORMALIZED FREE ENERGY PREDICTED BY IDOCK:   -3.01 KCAL/MOL
REMARK 922        TOTAL FREE ENERGY PREDICTED BY IDOCK:   -5.03 KCAL/MOL
REMARK 923 INTER-LIGAND FREE ENERGY PREDICTED BY IDOCK:   -4.51 KCAL/MOL
REMARK 924 INTRA-LIGAND FREE ENERGY PREDICTED BY IDOCK:   -0.52 KCAL/MOL
REMARK 927      BINDING AFFINITY PREDICTED BY RF-SCORE:    0.00 PKD
ROOT
HETATM    1  O   UNL     1     -12.591  13.253  72.509  1.00  0.00     0.023 OA 
HETATM    2  C   UNL     1     -12.889  12.870  71.244  1.00  0.00    -0.270 C  
HETATM    3  O   UNL     1     -13.744  13.434  70.580  1.00  0.00     0.621 OA 
HETATM    4  C   UNL     1     -12.053  11.687  70.768  1.00  0.00    -0.283 C  
ENDROOT
BRANCH   4   5
HETATM    5  O   UNL     1     -12.455  11.281  69.453  1.00  0.00    -0.272 OA 
BRANCH   5   6
HETATM    6  C   UNL     1     -11.695  11.741  68.426  1.00  0.00    -0.325 C  
HETATM    7  O   UNL     1     -12.070  11.860  67.270  1.00  0.00    -0.582 OA 
BRANCH   6   8
HETATM    8  C   UNL     1     -10.301  12.084  68.920  1.00  0.00    -0.117 C  
BRANCH   8   9
HETATM    9  C   UNL     1      -9.198  11.303  68.243  1.00  0.00    -0.176 A  
HETATM   10  C   UNL     1      -8.561  10.298  68.999  1.00  0.00    -0.162 A  
HETATM   11  C   UNL     1      -7.555   9.508  68.447  1.00  0.00    -0.081 A  
HETATM   12  C   UNL     1      -7.195   9.679  67.118  1.00  0.00    -0.087 A  
HETATM   13  C   UNL     1      -7.798  10.687  66.363  1.00  0.00    -0.144 A  
HETATM   14  C   UNL     1      -8.759  11.542  66.921  1.00  0.00    -0.181 A  
BRANCH  14  15
HETATM   15  N   UNL     1      -9.205  12.654  66.173  1.00  0.00    -0.423 NA 
HETATM   16  H   UNL     1      -9.491  12.428  65.221  1.00  0.00     0.000 HD 
BRANCH  15  17
HETATM   17  C   UNL     1      -9.329  14.036  66.507  1.00  0.00    -0.255 A  
HETATM   18  C   UNL     1      -8.185  14.682  67.040  1.00  0.00    -0.157 A  
HETATM   19  C   UNL     1      -8.131  16.068  67.228  1.00  0.00    -0.205 A  
HETATM   20 CL   UNL     1      -6.776  13.772  67.488  1.00  0.00    -0.181 Cl 
HETATM   21  C   UNL     1      -9.228  16.854  66.908  1.00  0.00    -0.253 A  
HETATM   22  C   UNL     1     -10.399  16.241  66.476  1.00  0.00    -0.310 A  
HETATM   23  C   UNL     1     -10.466  14.846  66.295  1.00  0.00    -0.302 A  
HETATM   24 CL   UNL     1     -11.994  14.275  65.719  1.00  0.00    -0.390 Cl 
ENDBRANCH  15  17
ENDBRANCH  14  15
ENDBRANCH   8   9
ENDBRANCH   6   8
ENDBRANCH   5   6
ENDBRANCH   4   5
TORSDOF 6
ENDMDL
MODEL      386
REMARK 921   NORMALIZED FREE ENERGY PREDICTED BY IDOCK:   -2.98 KCAL/MOL
REMARK 922        TOTAL FREE ENERGY PREDICTED BY IDOCK:   -4.98 KCAL/MOL
REMARK 923 INTER-LIGAND FREE ENERGY PREDICTED BY IDOCK:   -3.73 KCAL/MOL
REMARK 924 INTRA-LIGAND FREE ENERGY PREDICTED BY IDOCK:   -1.26 KCAL/MOL
REMARK 927      BINDING AFFINITY PREDICTED BY RF-SCORE:    0.00 PKD
ROOT
HETATM    1  O   UNL     1     -10.952  13.417  68.480  1.00  0.00    -0.249 OA 
HETATM    2  C   UNL     1     -10.578  12.115  68.528  1.00  0.00    -0.233 C  
HETATM    3  O   UNL     1      -9.540  11.721  68.020  1.00  0.00    -0.175 OA 
HETATM    4  C   UNL     1     -11.580  11.235  69.267  1.00  0.00    -0.322 C  
ENDROOT
BRANCH   4   5
HETATM    5  O   UNL     1     -11.169   9.862  69.228  1.00  0.00    -0.211 OA 
BRANCH   5   6
HETATM    6  C   UNL     1     -11.439   9.125  70.337  1.00  0.00    -0.194 C  
HETATM    7  O   UNL     1     -12.293   9.389  71.168  1.00  0.00    -0.305 OA 
BRANCH   6   8
HETATM    8  C   UNL     1     -10.515   7.921  70.401  1.00  0.00    -0.218 C  
BRANCH   8   9
HETATM    9  C   UNL     1      -9.050   8.262  70.261  1.00  0.00    -0.150 A  
HETATM   10  C   UNL     1      -8.362   8.650  71.429  1.00  0.00    -0.217 A  
HETATM   11  C   UNL     1      -7.002   8.952  71.400  1.00  0.00    -0.095 A  
HETATM   12  C   UNL     1      -6.295   8.833  70.212  1.00  0.00    -0.038 A  
HETATM   13  C   UNL     1      -6.966   8.475  69.042  1.00  0.00    -0.064 A  
HETATM   14  C   UNL     1      -8.348   8.239  69.034  1.00  0.00    -0.120 A  
BRANCH  14  15
HETATM   15  N   UNL     1      -9.007   8.058  67.798  1.00  0.00    -0.132 NA 
HETATM   16  H   UNL     1      -9.994   8.316  67.811  1.00  0.00     0.000 HD 
BRANCH  15  17
HETATM   17  C   UNL     1      -8.545   7.579  66.536  1.00  0.00    -0.132 A  
HETATM   18  C   UNL     1      -8.550   6.175  66.331  1.00  0.00    -0.131 A  
HETATM   19  C   UNL     1      -8.299   5.603  65.079  1.00  0.00    -0.146 A  
HETATM   20 CL   UNL     1      -8.876   5.085  67.642  1.00  0.00    -0.103 Cl 
HETATM   21  C   UNL     1      -8.014   6.416  63.991  1.00  0.00    -0.090 A  
HETATM   22  C   UNL     1      -7.904   7.789  64.180  1.00  0.00    -0.133 A  
HETATM   23  C   UNL     1      -8.145   8.372  65.438  1.00  0.00    -0.133 A  
HETATM   24 CL   UNL     1      -7.995  10.095  65.466  1.00  0.00    -0.140 Cl 
ENDBRANCH  15  17
ENDBRANCH  14  15
ENDBRANCH   8   9
ENDBRANCH   6   8
ENDBRANCH   5   6
ENDBRANCH   4   5
TORSDOF 6
ENDMDL
MODEL      387
REMARK 921   NORMALIZED FREE ENERGY PREDICTED BY IDOCK:   -2.96 KCAL/MOL
REMARK 922        TOTAL FREE ENERGY PREDICTED BY IDOCK:   -4.96 KCAL/MOL
REMARK 923 INTER-LIGAND FREE ENERGY PREDICTED BY IDOCK:   -4.20 KCAL/MOL
REMARK 924 INTRA-LIGAND FREE ENERGY PREDICTED BY IDOCK:   -0.76 KCAL/MOL
REMARK 927      BINDING AFFINITY PREDICTED BY RF-SCORE:    0.00 PKD
ROOT
HETATM    1  O   UNL     1      -6.991   9.265  62.990  1.00  0.00    -0.093 OA 
HETATM    2  C   UNL     1      -6.465   9.392  64.233  1.00  0.00    -0.090 C  
HETATM    3  O   UNL     1      -5.297   9.130  64.472  1.00  0.00    -0.052 OA 
HETATM    4  C   UNL     1      -7.479   9.886  65.259  1.00  0.00    -0.131 C  
ENDROOT
BRANCH   4   5
HETATM    5  O   UNL     1      -6.890   9.937  66.566  1.00  0.00    -0.081 OA 
BRANCH   5   6
HETATM    6  C   UNL     1      -7.707  10.335  67.576  1.00  0.00    -0.094 C  
HETATM    7  O   UNL     1      -7.412  11.143  68.442  1.00  0.00    -0.090 OA 
BRANCH   6   8
HETATM    8  C   UNL     1      -9.044   9.623  67.478  1.00  0.00    -0.142 C  
BRANCH   8   9
HETATM    9  C   UNL     1     -10.094  10.153  68.426  1.00  0.00    -0.184 A  
HETATM   10  C   UNL     1     -10.812  11.298  68.022  1.00  0.00    -0.266 A  
HETATM   11  C   UNL     1     -11.819  11.837  68.819  1.00  0.00    -0.380 A  
HETATM   12  C   UNL     1     -12.156  11.220  70.015  1.00  0.00    -0.425 A  
HETATM   13  C   UNL     1     -11.439  10.101  70.442  1.00  0.00    -0.400 A  
HETATM   14  C   UNL     1     -10.372   9.587  69.691  1.00  0.00    -0.221 A  
BRANCH  14  15
HETATM   15  N   UNL     1      -9.567   8.570  70.250  1.00  0.00    -0.164 NA 
HETATM   16  H   UNL     1      -9.013   8.872  71.052  1.00  0.00     0.000 HD 
BRANCH  15  17
HETATM   17  C   UNL     1      -9.385   7.199  69.898  1.00  0.00    -0.150 A  
HETATM   18  C   UNL     1     -10.512   6.345  70.005  1.00  0.00    -0.215 A  
HETATM   19  C   UNL     1     -10.504   5.034  69.514  1.00  0.00    -0.129 A  
HETATM   20 CL   UNL     1     -11.977   6.893  70.757  1.00  0.00    -0.426 Cl 
HETATM   21  C   UNL     1      -9.360   4.526  68.916  1.00  0.00    -0.209 A  
HETATM   22  C   UNL     1      -8.208   5.304  68.885  1.00  0.00    -0.089 A  
HETATM   23  C   UNL     1      -8.204   6.619  69.386  1.00  0.00    -0.124 A  
HETATM   24 CL   UNL     1      -6.689   7.439  69.225  1.00  0.00    -0.041 Cl 
ENDBRANCH  15  17
ENDBRANCH  14  15
ENDBRANCH   8   9
ENDBRANCH   6   8
ENDBRANCH   5   6
ENDBRANCH   4   5
TORSDOF 6
ENDMDL
MODEL      388
REMARK 921   NORMALIZED FREE ENERGY PREDICTED BY IDOCK:   -2.95 KCAL/MOL
REMARK 922        TOTAL FREE ENERGY PREDICTED BY IDOCK:   -4.95 KCAL/MOL
REMARK 923 INTER-LIGAND FREE ENERGY PREDICTED BY IDOCK:   -4.09 KCAL/MOL
REMARK 924 INTRA-LIGAND FREE ENERGY PREDICTED BY IDOCK:   -0.86 KCAL/MOL
REMARK 927      BINDING AFFINITY PREDICTED BY RF-SCORE:    0.00 PKD
ROOT
HETATM    1  O   UNL     1      -8.787   3.556  65.341  1.00  0.00    -0.116 OA 
HETATM    2  C   UNL     1      -9.111   4.831  65.016  1.00  0.00    -0.150 C  
HETATM    3  O   UNL     1     -10.264   5.172  64.802  1.00  0.00     0.428 OA 
HETATM    4  C   UNL     1      -7.901   5.756  64.952  1.00  0.00    -0.113 C  
ENDROOT
BRANCH   4   5
HETATM    5  O   UNL     1      -8.292   7.072  64.538  1.00  0.00    -0.044 OA 
BRANCH   5   6
HETATM    6  C   UNL     1      -8.223   8.043  65.485  1.00  0.00    -0.138 C  
HETATM    7  O   UNL     1      -7.301   8.196  66.270  1.00  0.00    -0.076 OA 
BRANCH   6   8
HETATM    8  C   UNL     1      -9.465   8.913  65.433  1.00  0.00    -0.086 C  
BRANCH   8   9
HETATM    9  C   UNL     1      -9.963   9.357  66.789  1.00  0.00    -0.305 A  
HETATM   10  C   UNL     1     -10.319   8.348  67.709  1.00  0.00    -0.297 A  
HETATM   11  C   UNL     1     -10.759   8.664  68.992  1.00  0.00    -0.122 A  
HETATM   12  C   UNL     1     -10.814   9.990  69.395  1.00  0.00    -0.270 A  
HETATM   13  C   UNL     1     -10.490  11.002  68.490  1.00  0.00    -0.210 A  
HETATM   14  C   UNL     1     -10.116  10.709  67.170  1.00  0.00    -0.207 A  
BRANCH  14  15
HETATM   15  N   UNL     1      -9.975  11.768  66.246  1.00  0.00    -0.213 NA 
HETATM   16  H   UNL     1      -9.777  11.464  65.292  1.00  0.00     0.000 HD 
BRANCH  15  17
HETATM   17  C   UNL     1     -10.057  13.184  66.402  1.00  0.00    -0.281 A  
HETATM   18  C   UNL     1      -8.872  13.867  66.778  1.00  0.00    -0.149 A  
HETATM   19  C   UNL     1      -8.785  15.264  66.780  1.00  0.00    -0.304 A  
HETATM   20 CL   UNL     1      -7.453  12.990  67.259  1.00  0.00    -0.126 Cl 
HETATM   21  C   UNL     1      -9.887  16.027  66.424  1.00  0.00    -0.308 A  
HETATM   22  C   UNL     1     -11.092  15.390  66.145  1.00  0.00    -0.230 A  
HETATM   23  C   UNL     1     -11.191  13.986  66.152  1.00  0.00    -0.318 A  
HETATM   24 CL   UNL     1     -12.760  13.381  65.746  1.00  0.00    -0.453 Cl 
ENDBRANCH  15  17
ENDBRANCH  14  15
ENDBRANCH   8   9
ENDBRANCH   6   8
ENDBRANCH   5   6
ENDBRANCH   4   5
TORSDOF 6
ENDMDL
MODEL      389
REMARK 921   NORMALIZED FREE ENERGY PREDICTED BY IDOCK:   -2.90 KCAL/MOL
REMARK 922        TOTAL FREE ENERGY PREDICTED BY IDOCK:   -4.88 KCAL/MOL
REMARK 923 INTER-LIGAND FREE ENERGY PREDICTED BY IDOCK:   -3.70 KCAL/MOL
REMARK 924 INTRA-LIGAND FREE ENERGY PREDICTED BY IDOCK:   -1.18 KCAL/MOL
REMARK 927      BINDING AFFINITY PREDICTED BY RF-SCORE:    0.00 PKD
ROOT
HETATM    1  O   UNL     1      -9.798   7.781  73.818  1.00  0.00    -0.258 OA 
HETATM    2  C   UNL     1      -8.948   7.618  72.774  1.00  0.00    -0.161 C  
HETATM    3  O   UNL     1      -8.212   6.648  72.683  1.00  0.00    -0.109 OA 
HETATM    4  C   UNL     1      -9.022   8.757  71.763  1.00  0.00    -0.212 C  
ENDROOT
BRANCH   4   5
HETATM    5  O   UNL     1      -8.058   8.569  70.719  1.00  0.00    -0.099 OA 
BRANCH   5   6
HETATM    6  C   UNL     1      -7.045   9.473  70.669  1.00  0.00    -0.123 C  
HETATM    7  O   UNL     1      -6.421   9.884  71.634  1.00  0.00    -0.305 OA 
BRANCH   6   8
HETATM    8  C   UNL     1      -6.803   9.907  69.235  1.00  0.00    -0.057 C  
BRANCH   8   9
HETATM    9  C   UNL     1      -8.067  10.166  68.448  1.00  0.00    -0.104 A  
HETATM   10  C   UNL     1      -8.720  11.398  68.662  1.00  0.00    -0.121 A  
HETATM   11  C   UNL     1      -9.874  11.734  67.959  1.00  0.00    -0.184 A  
HETATM   12  C   UNL     1     -10.375  10.866  67.000  1.00  0.00    -0.276 A  
HETATM   13  C   UNL     1      -9.756   9.632  66.794  1.00  0.00    -0.252 A  
HETATM   14  C   UNL     1      -8.637   9.242  67.544  1.00  0.00    -0.116 A  
BRANCH  14  15
HETATM   15  N   UNL     1      -8.159   7.918  67.426  1.00  0.00    -0.121 NA 
HETATM   16  H   UNL     1      -7.453   7.793  66.700  1.00  0.00     0.000 HD 
BRANCH  15  17
HETATM   17  C   UNL     1      -8.484   6.723  68.135  1.00  0.00    -0.121 A  
HETATM   18  C   UNL     1      -7.438   6.088  68.852  1.00  0.00    -0.086 A  
HETATM   19  C   UNL     1      -7.675   5.023  69.730  1.00  0.00    -0.064 A  
HETATM   20 CL   UNL     1      -5.792   6.609  68.676  1.00  0.00    -0.020 Cl 
HETATM   21  C   UNL     1      -8.964   4.544  69.905  1.00  0.00    -0.145 A  
HETATM   22  C   UNL     1      -9.997   5.080  69.143  1.00  0.00    -0.267 A  
HETATM   23  C   UNL     1      -9.766   6.143  68.250  1.00  0.00    -0.121 A  
HETATM   24 CL   UNL     1     -11.179   6.696  67.419  1.00  0.00    -0.384 Cl 
ENDBRANCH  15  17
ENDBRANCH  14  15
ENDBRANCH   8   9
ENDBRANCH   6   8
ENDBRANCH   5   6
ENDBRANCH   4   5
TORSDOF 6
ENDMDL
MODEL      390
REMARK 921   NORMALIZED FREE ENERGY PREDICTED BY IDOCK:   -2.90 KCAL/MOL
REMARK 922        TOTAL FREE ENERGY PREDICTED BY IDOCK:   -4.88 KCAL/MOL
REMARK 923 INTER-LIGAND FREE ENERGY PREDICTED BY IDOCK:   -3.81 KCAL/MOL
REMARK 924 INTRA-LIGAND FREE ENERGY PREDICTED BY IDOCK:   -1.06 KCAL/MOL
REMARK 927      BINDING AFFINITY PREDICTED BY RF-SCORE:    0.00 PKD
ROOT
HETATM    1  O   UNL     1     -13.722   7.254  71.920  1.00  0.00    -0.306 OA 
HETATM    2  C   UNL     1     -12.389   7.392  72.124  1.00  0.00    -0.204 C  
HETATM    3  O   UNL     1     -11.818   6.851  73.058  1.00  0.00     0.072 OA 
HETATM    4  C   UNL     1     -11.715   8.275  71.080  1.00  0.00    -0.280 C  
ENDROOT
BRANCH   4   5
HETATM    5  O   UNL     1     -10.323   8.441  71.383  1.00  0.00    -0.199 OA 
BRANCH   5   6
HETATM    6  C   UNL     1      -9.605   9.189  70.505  1.00  0.00    -0.243 C  
HETATM    7  O   UNL     1      -8.562   9.768  70.763  1.00  0.00    -0.183 OA 
BRANCH   6   8
HETATM    8  C   UNL     1     -10.291   9.209  69.151  1.00  0.00    -0.223 C  
BRANCH   8   9
HETATM    9  C   UNL     1     -10.434  10.589  68.553  1.00  0.00    -0.210 A  
HETATM   10  C   UNL     1     -11.395  11.446  69.128  1.00  0.00    -0.353 A  
HETATM   11  C   UNL     1     -11.573  12.746  68.661  1.00  0.00    -0.352 A  
HETATM   12  C   UNL     1     -10.769  13.228  67.638  1.00  0.00    -0.250 A  
HETATM   13  C   UNL     1      -9.832  12.385  67.041  1.00  0.00    -0.214 A  
HETATM   14  C   UNL     1      -9.687  11.050  67.445  1.00  0.00    -0.168 A  
BRANCH  14  15
HETATM   15  N   UNL     1      -8.856  10.191  66.693  1.00  0.00    -0.132 NA 
HETATM   16  H   UNL     1      -9.149  10.073  65.723  1.00  0.00     0.000 HD 
BRANCH  15  17
HETATM   17  C   UNL     1      -7.683   9.457  67.041  1.00  0.00    -0.091 A  
HETATM   18  C   UNL     1      -7.595   8.116  66.587  1.00  0.00    -0.093 A  
HETATM   19  C   UNL     1      -6.421   7.363  66.706  1.00  0.00    -0.052 A  
HETATM   20 CL   UNL     1      -8.958   7.335  65.848  1.00  0.00    -0.144 Cl 
HETATM   21  C   UNL     1      -5.300   7.920  67.303  1.00  0.00    -0.035 A  
HETATM   22  C   UNL     1      -5.383   9.197  67.847  1.00  0.00    -0.034 A  
HETATM   23  C   UNL     1      -6.563   9.957  67.741  1.00  0.00    -0.068 A  
HETATM   24 CL   UNL     1      -6.462  11.533  68.447  1.00  0.00    -0.050 Cl 
ENDBRANCH  15  17
ENDBRANCH  14  15
ENDBRANCH   8   9
ENDBRANCH   6   8
ENDBRANCH   5   6
ENDBRANCH   4   5
TORSDOF 6
ENDMDL
MODEL      391
REMARK 921   NORMALIZED FREE ENERGY PREDICTED BY IDOCK:   -2.90 KCAL/MOL
REMARK 922        TOTAL FREE ENERGY PREDICTED BY IDOCK:   -4.88 KCAL/MOL
REMARK 923 INTER-LIGAND FREE ENERGY PREDICTED BY IDOCK:   -3.94 KCAL/MOL
REMARK 924 INTRA-LIGAND FREE ENERGY PREDICTED BY IDOCK:   -0.93 KCAL/MOL
REMARK 927      BINDING AFFINITY PREDICTED BY RF-SCORE:    0.00 PKD
ROOT
HETATM    1  O   UNL     1     -11.585  12.286  66.263  1.00  0.00    -0.366 OA 
HETATM    2  C   UNL     1     -10.861  11.932  67.353  1.00  0.00    -0.243 C  
HETATM    3  O   UNL     1      -9.703  12.289  67.506  1.00  0.00    -0.185 OA 
HETATM    4  C   UNL     1     -11.643  11.062  68.331  1.00  0.00    -0.302 C  
ENDROOT
BRANCH   4   5
HETATM    5  O   UNL     1     -10.811  10.661  69.428  1.00  0.00    -0.215 OA 
BRANCH   5   6
HETATM    6  C   UNL     1     -11.025   9.412  69.917  1.00  0.00    -0.229 C  
HETATM    7  O   UNL     1     -11.687   9.148  70.907  1.00  0.00    -0.278 OA 
BRANCH   6   8
HETATM    8  C   UNL     1     -10.314   8.385  69.055  1.00  0.00    -0.231 C  
BRANCH   8   9
HETATM    9  C   UNL     1      -8.971   7.950  69.596  1.00  0.00    -0.146 A  
HETATM   10  C   UNL     1      -8.035   8.963  69.891  1.00  0.00    -0.108 A  
HETATM   11  C   UNL     1      -6.784   8.657  70.422  1.00  0.00    -0.038 A  
HETATM   12  C   UNL     1      -6.460   7.338  70.706  1.00  0.00    -0.043 A  
HETATM   13  C   UNL     1      -7.365   6.322  70.397  1.00  0.00    -0.089 A  
HETATM   14  C   UNL     1      -8.599   6.601  69.793  1.00  0.00    -0.136 A  
BRANCH  14  15
HETATM   15  N   UNL     1      -9.399   5.530  69.337  1.00  0.00    -0.116 NA 
HETATM   16  H   UNL     1     -10.349   5.532  69.709  1.00  0.00     0.000 HD 
BRANCH  15  17
HETATM   17  C   UNL     1      -9.121   4.445  68.452  1.00  0.00    -0.124 A  
HETATM   18  C   UNL     1      -9.282   3.132  68.962  1.00  0.00    -0.159 A  
HETATM   19  C   UNL     1      -9.220   2.000  68.140  1.00  0.00    -0.235 A  
HETATM   20 CL   UNL     1      -9.572   2.861  70.652  1.00  0.00    -0.217 Cl 
HETATM   21  C   UNL     1      -8.974   2.143  66.783  1.00  0.00    -0.130 A  
HETATM   22  C   UNL     1      -8.713   3.409  66.269  1.00  0.00    -0.126 A  
HETATM   23  C   UNL     1      -8.763   4.551  67.090  1.00  0.00    -0.104 A  
HETATM   24 CL   UNL     1      -8.446   6.037  66.263  1.00  0.00    -0.125 Cl 
ENDBRANCH  15  17
ENDBRANCH  14  15
ENDBRANCH   8   9
ENDBRANCH   6   8
ENDBRANCH   5   6
ENDBRANCH   4   5
TORSDOF 6
ENDMDL
MODEL      392
REMARK 921   NORMALIZED FREE ENERGY PREDICTED BY IDOCK:   -2.89 KCAL/MOL
REMARK 922        TOTAL FREE ENERGY PREDICTED BY IDOCK:   -4.86 KCAL/MOL
REMARK 923 INTER-LIGAND FREE ENERGY PREDICTED BY IDOCK:   -4.75 KCAL/MOL
REMARK 924 INTRA-LIGAND FREE ENERGY PREDICTED BY IDOCK:   -0.11 KCAL/MOL
REMARK 927      BINDING AFFINITY PREDICTED BY RF-SCORE:    0.00 PKD
ROOT
HETATM    1  O   UNL     1     -13.103  14.274  72.909  1.00  0.00    -0.499 OA 
HETATM    2  C   UNL     1     -13.374  13.633  71.746  1.00  0.00    -0.388 C  
HETATM    3  O   UNL     1     -13.750  14.229  70.749  1.00  0.00    -0.124 OA 
HETATM    4  C   UNL     1     -13.158  12.126  71.833  1.00  0.00    -0.369 C  
ENDROOT
BRANCH   4   5
HETATM    5  O   UNL     1     -13.523  11.492  70.600  1.00  0.00     0.480 OA 
BRANCH   5   6
HETATM    6  C   UNL     1     -12.499  11.007  69.850  1.00  0.00    -0.219 C  
HETATM    7  O   UNL     1     -12.489  10.941  68.631  1.00  0.00    -0.418 OA 
BRANCH   6   8
HETATM    8  C   UNL     1     -11.365  10.549  70.749  1.00  0.00    -0.295 C  
BRANCH   8   9
HETATM    9  C   UNL     1     -11.163   9.051  70.771  1.00  0.00    -0.329 A  
HETATM   10  C   UNL     1     -11.770   8.333  71.821  1.00  0.00    -0.357 A  
HETATM   11  C   UNL     1     -11.663   6.946  71.904  1.00  0.00    -0.334 A  
HETATM   12  C   UNL     1     -10.981   6.248  70.918  1.00  0.00    -0.344 A  
HETATM   13  C   UNL     1     -10.352   6.946  69.886  1.00  0.00    -0.223 A  
HETATM   14  C   UNL     1     -10.384   8.346  69.825  1.00  0.00    -0.216 A  
BRANCH  14  15
HETATM   15  N   UNL     1      -9.585   9.011  68.868  1.00  0.00    -0.155 NA 
HETATM   16  H   UNL     1      -9.886   8.869  67.904  1.00  0.00     0.000 HD 
BRANCH  15  17
HETATM   17  C   UNL     1      -8.433   9.843  69.004  1.00  0.00    -0.136 A  
HETATM   18  C   UNL     1      -7.599   9.620  70.129  1.00  0.00    -0.158 A  
HETATM   19  C   UNL     1      -6.353  10.242  70.269  1.00  0.00    -0.123 A  
HETATM   20 CL   UNL     1      -8.089   8.548  71.403  1.00  0.00    -0.157 Cl 
HETATM   21  C   UNL     1      -5.908  11.125  69.296  1.00  0.00    -0.044 A  
HETATM   22  C   UNL     1      -6.744  11.440  68.230  1.00  0.00    -0.059 A  
HETATM   23  C   UNL     1      -8.003  10.827  68.088  1.00  0.00    -0.114 A  
HETATM   24 CL   UNL     1      -8.881  11.321  66.682  1.00  0.00    -0.169 Cl 
ENDBRANCH  15  17
ENDBRANCH  14  15
ENDBRANCH   8   9
ENDBRANCH   6   8
ENDBRANCH   5   6
ENDBRANCH   4   5
TORSDOF 6
ENDMDL
MODEL      393
REMARK 921   NORMALIZED FREE ENERGY PREDICTED BY IDOCK:   -2.72 KCAL/MOL
REMARK 922        TOTAL FREE ENERGY PREDICTED BY IDOCK:   -4.63 KCAL/MOL
REMARK 923 INTER-LIGAND FREE ENERGY PREDICTED BY IDOCK:   -3.71 KCAL/MOL
REMARK 924 INTRA-LIGAND FREE ENERGY PREDICTED BY IDOCK:   -0.92 KCAL/MOL
REMARK 927      BINDING AFFINITY PREDICTED BY RF-SCORE:    0.00 PKD
ROOT
HETATM    1  O   UNL     1      -7.147  12.351  68.791  1.00  0.00    -0.097 OA 
HETATM    2  C   UNL     1      -7.239  11.361  67.870  1.00  0.00    -0.084 C  
HETATM    3  O   UNL     1      -6.564  10.346  67.941  1.00  0.00    -0.061 OA 
HETATM    4  C   UNL     1      -8.254  11.661  66.772  1.00  0.00    -0.161 C  
ENDROOT
BRANCH   4   5
HETATM    5  O   UNL     1      -8.261  10.615  65.792  1.00  0.00    -0.158 OA 
BRANCH   5   6
HETATM    6  C   UNL     1      -9.479  10.111  65.462  1.00  0.00    -0.230 C  
HETATM    7  O   UNL     1     -10.205  10.545  64.582  1.00  0.00    -0.345 OA 
BRANCH   6   8
HETATM    8  C   UNL     1      -9.813   8.928  66.352  1.00  0.00    -0.353 C  
BRANCH   8   9
HETATM    9  C   UNL     1      -8.710   7.900  66.450  1.00  0.00    -0.170 A  
HETATM   10  C   UNL     1      -8.116   7.473  65.245  1.00  0.00    -0.130 A  
HETATM   11  C   UNL     1      -7.072   6.551  65.242  1.00  0.00    -0.061 A  
HETATM   12  C   UNL     1      -6.575   6.069  66.443  1.00  0.00    -0.055 A  
HETATM   13  C   UNL     1      -7.168   6.461  67.644  1.00  0.00    -0.086 A  
HETATM   14  C   UNL     1      -8.268   7.330  67.666  1.00  0.00    -0.114 A  
BRANCH  14  15
HETATM   15  N   UNL     1      -8.943   7.553  68.886  1.00  0.00    -0.134 NA 
HETATM   16  H   UNL     1      -9.363   8.479  68.967  1.00  0.00     0.000 HD 
BRANCH  15  17
HETATM   17  C   UNL     1      -9.145   6.719  70.027  1.00  0.00    -0.148 A  
HETATM   18  C   UNL     1      -8.980   7.314  71.304  1.00  0.00    -0.139 A  
HETATM   19  C   UNL     1      -9.331   6.651  72.486  1.00  0.00    -0.144 A  
HETATM   20 CL   UNL     1      -8.330   8.915  71.464  1.00  0.00    -0.203 Cl 
HETATM   21  C   UNL     1      -9.840   5.362  72.432  1.00  0.00    -0.195 A  
HETATM   22  C   UNL     1      -9.922   4.715  71.204  1.00  0.00    -0.265 A  
HETATM   23  C   UNL     1      -9.561   5.370  70.011  1.00  0.00    -0.169 A  
HETATM   24 CL   UNL     1      -9.766   4.415  68.584  1.00  0.00    -0.214 Cl 
ENDBRANCH  15  17
ENDBRANCH  14  15
ENDBRANCH   8   9
ENDBRANCH   6   8
ENDBRANCH   5   6
ENDBRANCH   4   5
TORSDOF 6
ENDMDL
MODEL      394
REMARK 921   NORMALIZED FREE ENERGY PREDICTED BY IDOCK:   -2.69 KCAL/MOL
REMARK 922        TOTAL FREE ENERGY PREDICTED BY IDOCK:   -4.59 KCAL/MOL
REMARK 923 INTER-LIGAND FREE ENERGY PREDICTED BY IDOCK:   -3.67 KCAL/MOL
REMARK 924 INTRA-LIGAND FREE ENERGY PREDICTED BY IDOCK:   -0.93 KCAL/MOL
REMARK 927      BINDING AFFINITY PREDICTED BY RF-SCORE:    0.00 PKD
ROOT
HETATM    1  O   UNL     1      -8.302  15.717  67.714  1.00  0.00    -0.150 OA 
HETATM    2  C   UNL     1      -9.357  15.167  68.364  1.00  0.00    -0.197 C  
HETATM    3  O   UNL     1     -10.262  15.847  68.821  1.00  0.00    -0.207 OA 
HETATM    4  C   UNL     1      -9.275  13.647  68.450  1.00  0.00    -0.169 C  
ENDROOT
BRANCH   4   5
HETATM    5  O   UNL     1     -10.377  13.125  69.204  1.00  0.00    -0.025 OA 
BRANCH   5   6
HETATM    6  C   UNL     1     -11.245  12.331  68.524  1.00  0.00    -0.271 C  
HETATM    7  O   UNL     1     -12.043  12.717  67.685  1.00  0.00    -0.391 OA 
BRANCH   6   8
HETATM    8  C   UNL     1     -11.086  10.886  68.963  1.00  0.00    -0.302 C  
BRANCH   8   9
HETATM    9  C   UNL     1     -10.150  10.078  68.094  1.00  0.00    -0.186 A  
HETATM   10  C   UNL     1     -10.451  10.002  66.718  1.00  0.00    -0.267 A  
HETATM   11  C   UNL     1      -9.628   9.304  65.837  1.00  0.00    -0.345 A  
HETATM   12  C   UNL     1      -8.468   8.704  66.306  1.00  0.00    -0.131 A  
HETATM   13  C   UNL     1      -8.169   8.748  67.668  1.00  0.00    -0.110 A  
HETATM   14  C   UNL     1      -9.023   9.381  68.584  1.00  0.00    -0.132 A  
BRANCH  14  15
HETATM   15  N   UNL     1      -8.770   9.243  69.967  1.00  0.00    -0.176 NA 
HETATM   16  H   UNL     1      -9.552   9.516  70.562  1.00  0.00     0.000 HD 
BRANCH  15  17
HETATM   17  C   UNL     1      -7.621   8.793  70.683  1.00  0.00    -0.090 A  
HETATM   18  C   UNL     1      -6.561   9.718  70.860  1.00  0.00    -0.045 A  
HETATM   19  C   UNL     1      -5.472   9.453  71.699  1.00  0.00    -0.072 A  
HETATM   20 CL   UNL     1      -6.565  11.246  70.037  1.00  0.00    -0.119 Cl 
HETATM   21  C   UNL     1      -5.396   8.244  72.374  1.00  0.00    -0.038 A  
HETATM   22  C   UNL     1      -6.369   7.276  72.145  1.00  0.00    -0.043 A  
HETATM   23  C   UNL     1      -7.461   7.530  71.295  1.00  0.00    -0.079 A  
HETATM   24 CL   UNL     1      -8.583   6.219  71.165  1.00  0.00    -0.125 Cl 
ENDBRANCH  15  17
ENDBRANCH  14  15
ENDBRANCH   8   9
ENDBRANCH   6   8
ENDBRANCH   5   6
ENDBRANCH   4   5
TORSDOF 6
ENDMDL
MODEL      395
REMARK 921   NORMALIZED FREE ENERGY PREDICTED BY IDOCK:   -2.44 KCAL/MOL
REMARK 922        TOTAL FREE ENERGY PREDICTED BY IDOCK:   -4.26 KCAL/MOL
REMARK 923 INTER-LIGAND FREE ENERGY PREDICTED BY IDOCK:   -3.41 KCAL/MOL
REMARK 924 INTRA-LIGAND FREE ENERGY PREDICTED BY IDOCK:   -0.85 KCAL/MOL
REMARK 927      BINDING AFFINITY PREDICTED BY RF-SCORE:    0.00 PKD
ROOT
HETATM    1  O   UNL     1      -8.108   4.453  66.971  1.00  0.00    -0.101 OA 
HETATM    2  C   UNL     1      -8.768   5.543  66.509  1.00  0.00    -0.119 C  
HETATM    3  O   UNL     1      -9.984   5.634  66.561  1.00  0.00    -0.158 OA 
HETATM    4  C   UNL     1      -7.835   6.604  65.934  1.00  0.00    -0.102 C  
ENDROOT
BRANCH   4   5
HETATM    5  O   UNL     1      -8.588   7.701  65.399  1.00  0.00    -0.129 OA 
BRANCH   5   6
HETATM    6  C   UNL     1      -8.214   8.940  65.809  1.00  0.00    -0.115 C  
HETATM    7  O   UNL     1      -7.111   9.236  66.240  1.00  0.00    -0.085 OA 
BRANCH   6   8
HETATM    8  C   UNL     1      -9.371   9.911  65.662  1.00  0.00    -0.269 C  
BRANCH   8   9
HETATM    9  C   UNL     1      -9.950  10.384  66.975  1.00  0.00    -0.252 A  
HETATM   10  C   UNL     1     -10.931   9.570  67.579  1.00  0.00    -0.125 A  
HETATM   11  C   UNL     1     -11.497   9.912  68.805  1.00  0.00     0.039 A  
HETATM   12  C   UNL     1     -11.066  11.050  69.471  1.00  0.00    -0.322 A  
HETATM   13  C   UNL     1     -10.114  11.880  68.875  1.00  0.00    -0.060 A  
HETATM   14  C   UNL     1      -9.586  11.594  67.608  1.00  0.00    -0.181 A  
BRANCH  14  15
HETATM   15  N   UNL     1      -8.766  12.554  66.973  1.00  0.00    -0.205 NA 
HETATM   16  H   UNL     1      -8.828  12.546  65.955  1.00  0.00     0.000 HD 
BRANCH  15  17
HETATM   17  C   UNL     1      -7.867  13.531  67.496  1.00  0.00    -0.178 A  
HETATM   18  C   UNL     1      -8.424  14.763  67.925  1.00  0.00    -0.155 A  
HETATM   19  C   UNL     1      -7.674  15.718  68.622  1.00  0.00    -0.153 A  
HETATM   20 CL   UNL     1     -10.085  15.150  67.606  1.00  0.00    -0.230 Cl 
HETATM   21  C   UNL     1      -6.335  15.481  68.896  1.00  0.00    -0.108 A  
HETATM   22  C   UNL     1      -5.735  14.327  68.403  1.00  0.00    -0.106 A  
HETATM   23  C   UNL     1      -6.479  13.367  67.692  1.00  0.00    -0.162 A  
HETATM   24 CL   UNL     1      -5.566  11.985  67.192  1.00  0.00    -0.132 Cl 
ENDBRANCH  15  17
ENDBRANCH  14  15
ENDBRANCH   8   9
ENDBRANCH   6   8
ENDBRANCH   5   6
ENDBRANCH   4   5
TORSDOF 6
ENDMDL
MODEL      396
REMARK 921   NORMALIZED FREE ENERGY PREDICTED BY IDOCK:   -2.38 KCAL/MOL
REMARK 922        TOTAL FREE ENERGY PREDICTED BY IDOCK:   -4.18 KCAL/MOL
REMARK 923 INTER-LIGAND FREE ENERGY PREDICTED BY IDOCK:   -3.18 KCAL/MOL
REMARK 924 INTRA-LIGAND FREE ENERGY PREDICTED BY IDOCK:   -0.99 KCAL/MOL
REMARK 927      BINDING AFFINITY PREDICTED BY RF-SCORE:    0.00 PKD
ROOT
HETATM    1  O   UNL     1     -10.486   8.499  72.781  1.00  0.00    -0.250 OA 
HETATM    2  C   UNL     1     -11.194   8.322  71.639  1.00  0.00    -0.270 C  
HETATM    3  O   UNL     1     -12.340   7.901  71.646  1.00  0.00    -0.296 OA 
HETATM    4  C   UNL     1     -10.409   8.700  70.388  1.00  0.00    -0.200 C  
ENDROOT
BRANCH   4   5
HETATM    5  O   UNL     1     -11.179   8.429  69.208  1.00  0.00     0.067 OA 
BRANCH   5   6
HETATM    6  C   UNL     1     -10.521   7.811  68.193  1.00  0.00    -0.176 C  
HETATM    7  O   UNL     1      -9.737   8.353  67.430  1.00  0.00    -0.152 OA 
BRANCH   6   8
HETATM    8  C   UNL     1     -10.906   6.344  68.137  1.00  0.00    -0.386 C  
BRANCH   8   9
HETATM    9  C   UNL     1     -10.034   5.446  68.983  1.00  0.00    -0.260 A  
HETATM   10  C   UNL     1     -10.532   5.066  70.247  1.00  0.00    -0.243 A  
HETATM   11  C   UNL     1      -9.810   4.216  71.081  1.00  0.00    -0.244 A  
HETATM   12  C   UNL     1      -8.596   3.696  70.653  1.00  0.00    -0.112 A  
HETATM   13  C   UNL     1      -8.077   4.082  69.416  1.00  0.00    -0.061 A  
HETATM   14  C   UNL     1      -8.752   4.995  68.593  1.00  0.00    -0.093 A  
BRANCH  14  15
HETATM   15  N   UNL     1      -8.103   5.490  67.440  1.00  0.00    -0.101 NA 
HETATM   16  H   UNL     1      -8.395   5.040  66.573  1.00  0.00     0.000 HD 
BRANCH  15  17
HETATM   17  C   UNL     1      -7.114   6.504  67.267  1.00  0.00    -0.077 A  
HETATM   18  C   UNL     1      -6.662   6.753  65.946  1.00  0.00    -0.052 A  
HETATM   19  C   UNL     1      -5.839   7.841  65.632  1.00  0.00    -0.038 A  
HETATM   20 CL   UNL     1      -7.117   5.709  64.637  1.00  0.00    -0.055 Cl 
HETATM   21  C   UNL     1      -5.423   8.706  66.633  1.00  0.00    -0.039 A  
HETATM   22  C   UNL     1      -5.767   8.433  67.953  1.00  0.00    -0.039 A  
HETATM   23  C   UNL     1      -6.586   7.335  68.279  1.00  0.00    -0.049 A  
HETATM   24 CL   UNL     1      -6.933   7.181  69.967  1.00  0.00    -0.060 Cl 
ENDBRANCH  15  17
ENDBRANCH  14  15
ENDBRANCH   8   9
ENDBRANCH   6   8
ENDBRANCH   5   6
ENDBRANCH   4   5
TORSDOF 6
ENDMDL
MODEL      397
REMARK 921   NORMALIZED FREE ENERGY PREDICTED BY IDOCK:   -2.31 KCAL/MOL
REMARK 922        TOTAL FREE ENERGY PREDICTED BY IDOCK:   -4.08 KCAL/MOL
REMARK 923 INTER-LIGAND FREE ENERGY PREDICTED BY IDOCK:   -3.47 KCAL/MOL
REMARK 924 INTRA-LIGAND FREE ENERGY PREDICTED BY IDOCK:   -0.61 KCAL/MOL
REMARK 927      BINDING AFFINITY PREDICTED BY RF-SCORE:    0.00 PKD
ROOT
HETATM    1  O   UNL     1      -9.391   2.498  66.909  1.00  0.00    -0.116 OA 
HETATM    2  C   UNL     1      -9.073   3.814  66.857  1.00  0.00    -0.161 C  
HETATM    3  O   UNL     1      -9.868   4.658  66.473  1.00  0.00    -0.181 OA 
HETATM    4  C   UNL     1      -7.650   4.101  67.322  1.00  0.00    -0.077 C  
ENDROOT
BRANCH   4   5
HETATM    5  O   UNL     1      -7.345   5.495  67.182  1.00  0.00    -0.077 OA 
BRANCH   5   6
HETATM    6  C   UNL     1      -7.306   6.218  68.332  1.00  0.00    -0.086 C  
HETATM    7  O   UNL     1      -6.841   5.830  69.392  1.00  0.00    -0.057 OA 
BRANCH   6   8
HETATM    8  C   UNL     1      -7.933   7.583  68.113  1.00  0.00    -0.123 C  
BRANCH   8   9
HETATM    9  C   UNL     1      -9.124   7.863  69.001  1.00  0.00    -0.144 A  
HETATM   10  C   UNL     1      -9.801   6.751  69.544  1.00  0.00    -0.164 A  
HETATM   11  C   UNL     1     -10.889   6.916  70.397  1.00  0.00    -0.297 A  
HETATM   12  C   UNL     1     -11.298   8.192  70.756  1.00  0.00    -0.283 A  
HETATM   13  C   UNL     1     -10.655   9.303  70.207  1.00  0.00    -0.278 A  
HETATM   14  C   UNL     1      -9.606   9.160  69.289  1.00  0.00    -0.159 A  
BRANCH  14  15
HETATM   15  N   UNL     1      -9.111  10.306  68.627  1.00  0.00    -0.144 NA 
HETATM   16  H   UNL     1      -8.310  10.739  69.087  1.00  0.00     0.000 HD 
BRANCH  15  17
HETATM   17  C   UNL     1      -9.527  10.969  67.434  1.00  0.00    -0.160 A  
HETATM   18  C   UNL     1      -9.345  12.374  67.373  1.00  0.00    -0.181 A  
HETATM   19  C   UNL     1      -9.541  13.102  66.193  1.00  0.00    -0.209 A  
HETATM   20 CL   UNL     1      -8.861  13.272  68.778  1.00  0.00     0.057 Cl 
HETATM   21  C   UNL     1      -9.945  12.450  65.038  1.00  0.00    -0.219 A  
HETATM   22  C   UNL     1     -10.227  11.089  65.089  1.00  0.00    -0.352 A  
HETATM   23  C   UNL     1     -10.044  10.352  66.274  1.00  0.00    -0.231 A  
HETATM   24 CL   UNL     1     -10.414   8.668  66.131  1.00  0.00     0.169 Cl 
ENDBRANCH  15  17
ENDBRANCH  14  15
ENDBRANCH   8   9
ENDBRANCH   6   8
ENDBRANCH   5   6
ENDBRANCH   4   5
TORSDOF 6
ENDMDL
MODEL      398
REMARK 921   NORMALIZED FREE ENERGY PREDICTED BY IDOCK:   -2.11 KCAL/MOL
REMARK 922        TOTAL FREE ENERGY PREDICTED BY IDOCK:   -3.81 KCAL/MOL
REMARK 923 INTER-LIGAND FREE ENERGY PREDICTED BY IDOCK:   -3.40 KCAL/MOL
REMARK 924 INTRA-LIGAND FREE ENERGY PREDICTED BY IDOCK:   -0.41 KCAL/MOL
REMARK 927      BINDING AFFINITY PREDICTED BY RF-SCORE:    0.00 PKD
ROOT
HETATM    1  O   UNL     1     -11.104   8.187  73.039  1.00  0.00    -0.331 OA 
HETATM    2  C   UNL     1     -11.754   7.618  71.995  1.00  0.00    -0.298 C  
HETATM    3  O   UNL     1     -12.803   7.010  72.139  1.00  0.00    -0.194 OA 
HETATM    4  C   UNL     1     -11.038   7.824  70.665  1.00  0.00    -0.256 C  
ENDROOT
BRANCH   4   5
HETATM    5  O   UNL     1     -11.731   7.146  69.608  1.00  0.00    -0.010 OA 
BRANCH   5   6
HETATM    6  C   UNL     1     -11.071   6.111  69.027  1.00  0.00    -0.367 C  
HETATM    7  O   UNL     1     -11.067   5.860  67.833  1.00  0.00    -0.250 OA 
BRANCH   6   8
HETATM    8  C   UNL     1     -10.341   5.299  70.082  1.00  0.00    -0.354 C  
BRANCH   8   9
HETATM    9  C   UNL     1      -8.836   5.417  70.017  1.00  0.00    -0.141 A  
HETATM   10  C   UNL     1      -8.204   6.190  71.013  1.00  0.00    -0.123 A  
HETATM   11  C   UNL     1      -6.819   6.329  71.048  1.00  0.00    -0.066 A  
HETATM   12  C   UNL     1      -6.035   5.666  70.115  1.00  0.00    -0.025 A  
HETATM   13  C   UNL     1      -6.645   4.918  69.107  1.00  0.00    -0.044 A  
HETATM   14  C   UNL     1      -8.041   4.826  69.008  1.00  0.00    -0.078 A  
BRANCH  14  15
HETATM   15  N   UNL     1      -8.610   4.210  67.871  1.00  0.00    -0.095 NA 
HETATM   16  H   UNL     1      -9.192   3.400  68.085  1.00  0.00     0.000 HD 
BRANCH  15  17
HETATM   17  C   UNL     1      -8.519   4.514  66.480  1.00  0.00    -0.109 A  
HETATM   18  C   UNL     1      -8.657   3.436  65.569  1.00  0.00    -0.112 A  
HETATM   19  C   UNL     1      -8.771   3.636  64.188  1.00  0.00    -0.101 A  
HETATM   20 CL   UNL     1      -8.693   1.794  66.130  1.00  0.00    -0.113 Cl 
HETATM   21  C   UNL     1      -8.732   4.922  63.670  1.00  0.00    -0.107 A  
HETATM   22  C   UNL     1      -8.499   5.993  64.526  1.00  0.00     0.024 A  
HETATM   23  C   UNL     1      -8.372   5.799  65.915  1.00  0.00    -0.130 A  
HETATM   24 CL   UNL     1      -8.122   7.254  66.817  1.00  0.00    -0.117 Cl 
ENDBRANCH  15  17
ENDBRANCH  14  15
ENDBRANCH   8   9
ENDBRANCH   6   8
ENDBRANCH   5   6
ENDBRANCH   4   5
TORSDOF 6
ENDMDL
MODEL      399
REMARK 921   NORMALIZED FREE ENERGY PREDICTED BY IDOCK:   -1.96 KCAL/MOL
REMARK 922        TOTAL FREE ENERGY PREDICTED BY IDOCK:   -3.61 KCAL/MOL
REMARK 923 INTER-LIGAND FREE ENERGY PREDICTED BY IDOCK:   -4.36 KCAL/MOL
REMARK 924 INTRA-LIGAND FREE ENERGY PREDICTED BY IDOCK:    0.76 KCAL/MOL
REMARK 927      BINDING AFFINITY PREDICTED BY RF-SCORE:    0.00 PKD
ROOT
HETATM    1  O   UNL     1      -6.780  15.301  66.972  1.00  0.00    -0.251 OA 
HETATM    2  C   UNL     1      -6.390  14.428  67.933  1.00  0.00    -0.162 C  
HETATM    3  O   UNL     1      -5.212  14.214  68.175  1.00  0.00    -0.106 OA 
HETATM    4  C   UNL     1      -7.563  13.769  68.651  1.00  0.00    -0.125 C  
ENDROOT
BRANCH   4   5
HETATM    5  O   UNL     1      -7.094  12.808  69.606  1.00  0.00     0.167 OA 
BRANCH   5   6
HETATM    6  C   UNL     1      -7.183  11.504  69.237  1.00  0.00    -0.048 C  
HETATM    7  O   UNL     1      -6.352  10.644  69.484  1.00  0.00    -0.052 OA 
BRANCH   6   8
HETATM    8  C   UNL     1      -8.467  11.266  68.463  1.00  0.00    -0.156 C  
BRANCH   8   9
HETATM    9  C   UNL     1      -8.549   9.906  67.809  1.00  0.00    -0.121 A  
HETATM   10  C   UNL     1      -7.421   9.068  67.917  1.00  0.00    -0.085 A  
HETATM   11  C   UNL     1      -7.418   7.786  67.372  1.00  0.00    -0.093 A  
HETATM   12  C   UNL     1      -8.557   7.302  66.744  1.00  0.00    -0.127 A  
HETATM   13  C   UNL     1      -9.673   8.128  66.606  1.00  0.00    -0.318 A  
HETATM   14  C   UNL     1      -9.670   9.447  67.081  1.00  0.00    -0.173 A  
BRANCH  14  15
HETATM   15  N   UNL     1     -10.752  10.296  66.758  1.00  0.00    -0.188 NA 
HETATM   16  H   UNL     1     -11.613  10.082  67.261  1.00  0.00     0.000 HD 
BRANCH  15  17
HETATM   17  C   UNL     1     -10.860  11.397  65.857  1.00  0.00    -0.234 A  
HETATM   18  C   UNL     1     -10.317  11.231  64.558  1.00  0.00    -0.322 A  
HETATM   19  C   UNL     1     -10.526  12.165  63.537  1.00  0.00    -0.490 A  
HETATM   20 CL   UNL     1      -9.354   9.841  64.166  1.00  0.00    -0.294 Cl 
HETATM   21  C   UNL     1     -11.271  13.308  63.786  1.00  0.00    -0.230 A  
HETATM   22  C   UNL     1     -11.735  13.549  65.075  1.00  0.00    -0.354 A  
HETATM   23  C   UNL     1     -11.519  12.620  66.111  1.00  0.00    -0.365 A  
HETATM   24 CL   UNL     1     -12.201  13.079  67.633  1.00  0.00    -0.233 Cl 
ENDBRANCH  15  17
ENDBRANCH  14  15
ENDBRANCH   8   9
ENDBRANCH   6   8
ENDBRANCH   5   6
ENDBRANCH   4   5
TORSDOF 6
ENDMDL
MODEL      400
REMARK 921   NORMALIZED FREE ENERGY PREDICTED BY IDOCK:   -1.83 KCAL/MOL
REMARK 922        TOTAL FREE ENERGY PREDICTED BY IDOCK:   -3.44 KCAL/MOL
REMARK 923 INTER-LIGAND FREE ENERGY PREDICTED BY IDOCK:   -3.20 KCAL/MOL
REMARK 924 INTRA-LIGAND FREE ENERGY PREDICTED BY IDOCK:   -0.24 KCAL/MOL
REMARK 927      BINDING AFFINITY PREDICTED BY RF-SCORE:    0.00 PKD
ROOT
HETATM    1  O   UNL     1      -6.779  15.280  66.961  1.00  0.00    -0.251 OA 
HETATM    2  C   UNL     1      -6.346  14.290  67.780  1.00  0.00    -0.154 C  
HETATM    3  O   UNL     1      -5.161  14.120  68.021  1.00  0.00    -0.110 OA 
HETATM    4  C   UNL     1      -7.483  13.444  68.342  1.00  0.00    -0.117 C  
ENDROOT
BRANCH   4   5
HETATM    5  O   UNL     1      -6.966  12.373  69.144  1.00  0.00    -0.097 OA 
BRANCH   5   6
HETATM    6  C   UNL     1      -6.858  11.165  68.532  1.00  0.00    -0.065 C  
HETATM    7  O   UNL     1      -5.946  10.371  68.697  1.00  0.00    -0.041 OA 
BRANCH   6   8
HETATM    8  C   UNL     1      -8.037  10.943  67.602  1.00  0.00    -0.115 C  
BRANCH   8   9
HETATM    9  C   UNL     1      -7.842   9.813  66.618  1.00  0.00    -0.109 A  
HETATM   10  C   UNL     1      -7.822  10.145  65.248  1.00  0.00    -0.143 A  
HETATM   11  C   UNL     1      -7.617   9.172  64.273  1.00  0.00    -0.115 A  
HETATM   12  C   UNL     1      -7.387   7.856  64.649  1.00  0.00    -0.084 A  
HETATM   13  C   UNL     1      -7.429   7.506  65.999  1.00  0.00    -0.083 A  
HETATM   14  C   UNL     1      -7.708   8.456  66.992  1.00  0.00    -0.093 A  
BRANCH  14  15
HETATM   15  N   UNL     1      -7.918   8.021  68.319  1.00  0.00    -0.126 NA 
HETATM   16  H   UNL     1      -7.066   7.732  68.802  1.00  0.00     0.000 HD 
BRANCH  15  17
HETATM   17  C   UNL     1      -9.102   7.910  69.108  1.00  0.00    -0.145 A  
HETATM   18  C   UNL     1     -10.242   7.333  68.493  1.00  0.00    -0.181 A  
HETATM   19  C   UNL     1     -11.394   7.004  69.217  1.00  0.00    -0.047 A  
HETATM   20 CL   UNL     1     -10.262   6.999  66.790  1.00  0.00    -0.297 Cl 
HETATM   21  C   UNL     1     -11.452   7.260  70.579  1.00  0.00    -0.310 A  
HETATM   22  C   UNL     1     -10.389   7.915  71.193  1.00  0.00    -0.225 A  
HETATM   23  C   UNL     1      -9.232   8.260  70.470  1.00  0.00    -0.151 A  
HETATM   24 CL   UNL     1      -8.006   9.035  71.414  1.00  0.00    -0.146 Cl 
ENDBRANCH  15  17
ENDBRANCH  14  15
ENDBRANCH   8   9
ENDBRANCH   6   8
ENDBRANCH   5   6
ENDBRANCH   4   5
TORSDOF 6
ENDMDL
MODEL      401
REMARK 921   NORMALIZED FREE ENERGY PREDICTED BY IDOCK:   -1.76 KCAL/MOL
REMARK 922        TOTAL FREE ENERGY PREDICTED BY IDOCK:   -3.34 KCAL/MOL
REMARK 923 INTER-LIGAND FREE ENERGY PREDICTED BY IDOCK:   -2.16 KCAL/MOL
REMARK 924 INTRA-LIGAND FREE ENERGY PREDICTED BY IDOCK:   -1.18 KCAL/MOL
REMARK 927      BINDING AFFINITY PREDICTED BY RF-SCORE:    0.00 PKD
ROOT
HETATM    1  O   UNL     1      -9.504   8.084  74.258  1.00  0.00     0.275 OA 
HETATM    2  C   UNL     1      -8.755   7.430  73.336  1.00  0.00    -0.159 C  
HETATM    3  O   UNL     1      -8.243   6.347  73.568  1.00  0.00    -0.118 OA 
HETATM    4  C   UNL     1      -8.637   8.189  72.019  1.00  0.00    -0.162 C  
ENDROOT
BRANCH   4   5
HETATM    5  O   UNL     1      -7.781   7.487  71.108  1.00  0.00    -0.087 OA 
BRANCH   5   6
HETATM    6  C   UNL     1      -6.941   8.253  70.364  1.00  0.00    -0.037 C  
HETATM    7  O   UNL     1      -6.339   9.234  70.770  1.00  0.00    -0.058 OA 
BRANCH   6   8
HETATM    8  C   UNL     1      -6.861   7.717  68.947  1.00  0.00    -0.061 C  
BRANCH   8   9
HETATM    9  C   UNL     1      -8.171   7.769  68.194  1.00  0.00    -0.124 A  
HETATM   10  C   UNL     1      -8.421   8.915  67.412  1.00  0.00    -0.115 A  
HETATM   11  C   UNL     1      -9.588   9.036  66.661  1.00  0.00    -0.274 A  
HETATM   12  C   UNL     1     -10.508   7.998  66.645  1.00  0.00    -0.199 A  
HETATM   13  C   UNL     1     -10.288   6.867  67.433  1.00  0.00    -0.297 A  
HETATM   14  C   UNL     1      -9.157   6.758  68.255  1.00  0.00    -0.124 A  
BRANCH  14  15
HETATM   15  N   UNL     1      -9.071   5.682  69.166  1.00  0.00    -0.112 NA 
HETATM   16  H   UNL     1      -8.959   5.968  70.138  1.00  0.00     0.000 HD 
BRANCH  15  17
HETATM   17  C   UNL     1      -9.111   4.268  68.974  1.00  0.00    -0.131 A  
HETATM   18  C   UNL     1      -9.749   3.494  69.976  1.00  0.00    -0.077 A  
HETATM   19  C   UNL     1     -10.013   2.129  69.809  1.00  0.00     0.444 A  
HETATM   20 CL   UNL     1     -10.244   4.212  71.477  1.00  0.00    -0.174 Cl 
HETATM   21  C   UNL     1      -9.629   1.488  68.640  1.00  0.00    -0.192 A  
HETATM   22  C   UNL     1      -8.914   2.196  67.681  1.00  0.00    -0.187 A  
HETATM   23  C   UNL     1      -8.634   3.566  67.845  1.00  0.00    -0.099 A  
HETATM   24 CL   UNL     1      -7.767   4.280  66.530  1.00  0.00    -0.093 Cl 
ENDBRANCH  15  17
ENDBRANCH  14  15
ENDBRANCH   8   9
ENDBRANCH   6   8
ENDBRANCH   5   6
ENDBRANCH   4   5
TORSDOF 6
ENDMDL
MODEL      402
REMARK 921   NORMALIZED FREE ENERGY PREDICTED BY IDOCK:   -1.44 KCAL/MOL
REMARK 922        TOTAL FREE ENERGY PREDICTED BY IDOCK:   -2.91 KCAL/MOL
REMARK 923 INTER-LIGAND FREE ENERGY PREDICTED BY IDOCK:   -2.29 KCAL/MOL
REMARK 924 INTRA-LIGAND FREE ENERGY PREDICTED BY IDOCK:   -0.62 KCAL/MOL
REMARK 927      BINDING AFFINITY PREDICTED BY RF-SCORE:    0.00 PKD
ROOT
HETATM    1  O   UNL     1     -11.391   6.302  68.312  1.00  0.00    -0.289 OA 
HETATM    2  C   UNL     1     -10.977   7.580  68.132  1.00  0.00     0.097 C  
HETATM    3  O   UNL     1     -10.936   8.383  69.051  1.00  0.00    -0.058 OA 
HETATM    4  C   UNL     1     -10.585   7.882  66.690  1.00  0.00    -0.002 C  
ENDROOT
BRANCH   4   5
HETATM    5  O   UNL     1     -10.222   9.261  66.544  1.00  0.00    -0.269 OA 
BRANCH   5   6
HETATM    6  C   UNL     1      -8.891   9.532  66.528  1.00  0.00    -0.139 C  
HETATM    7  O   UNL     1      -8.015   8.778  66.918  1.00  0.00    -0.097 OA 
BRANCH   6   8
HETATM    8  C   UNL     1      -8.647  10.918  65.957  1.00  0.00    -0.179 C  
BRANCH   8   9
HETATM    9  C   UNL     1      -9.038  12.044  66.887  1.00  0.00    -0.196 A  
HETATM   10  C   UNL     1      -9.278  13.306  66.306  1.00  0.00    -0.067 A  
HETATM   11  C   UNL     1      -9.672  14.394  67.082  1.00  0.00    -0.248 A  
HETATM   12  C   UNL     1      -9.873  14.232  68.445  1.00  0.00    -0.233 A  
HETATM   13  C   UNL     1      -9.615  12.995  69.040  1.00  0.00     0.371 A  
HETATM   14  C   UNL     1      -9.146  11.908  68.289  1.00  0.00    -0.183 A  
BRANCH  14  15
HETATM   15  N   UNL     1      -8.729  10.738  68.962  1.00  0.00    -0.258 NA 
HETATM   16  H   UNL     1      -9.381   9.957  68.881  1.00  0.00     0.000 HD 
BRANCH  15  17
HETATM   17  C   UNL     1      -7.565  10.449  69.735  1.00  0.00    -0.133 A  
HETATM   18  C   UNL     1      -7.724   9.600  70.859  1.00  0.00     0.137 A  
HETATM   19  C   UNL     1      -6.632   9.099  71.577  1.00  0.00    -0.034 A  
HETATM   20 CL   UNL     1      -9.304   9.131  71.405  1.00  0.00    -0.305 Cl 
HETATM   21  C   UNL     1      -5.342   9.447  71.206  1.00  0.00    -0.055 A  
HETATM   22  C   UNL     1      -5.155  10.356  70.169  1.00  0.00    -0.039 A  
HETATM   23  C   UNL     1      -6.248  10.873  69.450  1.00  0.00    -0.063 A  
HETATM   24 CL   UNL     1      -5.814  11.960  68.176  1.00  0.00    -0.050 Cl 
ENDBRANCH  15  17
ENDBRANCH  14  15
ENDBRANCH   8   9
ENDBRANCH   6   8
ENDBRANCH   5   6
ENDBRANCH   4   5
TORSDOF 6
ENDMDL
MODEL      403
REMARK 921   NORMALIZED FREE ENERGY PREDICTED BY IDOCK:   -1.43 KCAL/MOL
REMARK 922        TOTAL FREE ENERGY PREDICTED BY IDOCK:   -2.90 KCAL/MOL
REMARK 923 INTER-LIGAND FREE ENERGY PREDICTED BY IDOCK:   -2.46 KCAL/MOL
REMARK 924 INTRA-LIGAND FREE ENERGY PREDICTED BY IDOCK:   -0.43 KCAL/MOL
REMARK 927      BINDING AFFINITY PREDICTED BY RF-SCORE:    0.00 PKD
ROOT
HETATM    1  O   UNL     1      -9.384   8.541  72.978  1.00  0.00    -0.215 OA 
HETATM    2  C   UNL     1      -9.695   7.678  71.980  1.00  0.00    -0.166 C  
HETATM    3  O   UNL     1     -10.384   6.688  72.171  1.00  0.00    -0.198 OA 
HETATM    4  C   UNL     1      -9.098   8.081  70.636  1.00  0.00    -0.153 C  
ENDROOT
BRANCH   4   5
HETATM    5  O   UNL     1      -9.400   7.100  69.635  1.00  0.00    -0.150 OA 
BRANCH   5   6
HETATM    6  C   UNL     1      -8.541   7.033  68.584  1.00  0.00    -0.120 C  
HETATM    7  O   UNL     1      -7.748   7.905  68.267  1.00  0.00    -0.115 OA 
BRANCH   6   8
HETATM    8  C   UNL     1      -8.714   5.715  67.851  1.00  0.00    -0.107 C  
BRANCH   8   9
HETATM    9  C   UNL     1      -8.069   4.537  68.543  1.00  0.00    -0.082 A  
HETATM   10  C   UNL     1      -7.181   4.816  69.602  1.00  0.00    -0.055 A  
HETATM   11  C   UNL     1      -6.564   3.792  70.316  1.00  0.00    -0.033 A  
HETATM   12  C   UNL     1      -6.852   2.469  70.013  1.00  0.00    -0.033 A  
HETATM   13  C   UNL     1      -7.709   2.175  68.951  1.00  0.00    -0.048 A  
HETATM   14  C   UNL     1      -8.282   3.190  68.171  1.00  0.00    -0.077 A  
BRANCH  14  15
HETATM   15  N   UNL     1      -8.993   2.839  67.003  1.00  0.00    -0.146 NA 
HETATM   16  H   UNL     1      -9.800   2.239  67.171  1.00  0.00     0.000 HD 
BRANCH  15  17
HETATM   17  C   UNL     1      -8.788   3.171  65.630  1.00  0.00    -0.137 A  
HETATM   18  C   UNL     1      -7.649   2.619  64.990  1.00  0.00    -0.072 A  
HETATM   19  C   UNL     1      -7.447   2.721  63.609  1.00  0.00    -0.062 A  
HETATM   20 CL   UNL     1      -6.436   1.777  65.902  1.00  0.00    -0.023 Cl 
HETATM   21  C   UNL     1      -8.368   3.395  62.822  1.00  0.00    -0.077 A  
HETATM   22  C   UNL     1      -9.445   4.032  63.431  1.00  0.00    -0.150 A  
HETATM   23  C   UNL     1      -9.650   3.944  64.821  1.00  0.00    -0.177 A  
HETATM   24 CL   UNL     1     -11.060   4.771  65.387  1.00  0.00    -0.068 Cl 
ENDBRANCH  15  17
ENDBRANCH  14  15
ENDBRANCH   8   9
ENDBRANCH   6   8
ENDBRANCH   5   6
ENDBRANCH   4   5
TORSDOF 6
ENDMDL
MODEL      404
REMARK 921   NORMALIZED FREE ENERGY PREDICTED BY IDOCK:   -0.60 KCAL/MOL
REMARK 922        TOTAL FREE ENERGY PREDICTED BY IDOCK:   -1.77 KCAL/MOL
REMARK 923 INTER-LIGAND FREE ENERGY PREDICTED BY IDOCK:   -2.78 KCAL/MOL
REMARK 924 INTRA-LIGAND FREE ENERGY PREDICTED BY IDOCK:    1.00 KCAL/MOL
REMARK 927      BINDING AFFINITY PREDICTED BY RF-SCORE:    0.00 PKD
ROOT
HETATM    1  O   UNL     1      -9.692   5.776  73.687  1.00  0.00    -0.149 OA 
HETATM    2  C   UNL     1      -9.401   6.040  72.390  1.00  0.00    -0.146 C  
HETATM    3  O   UNL     1      -8.979   7.128  72.029  1.00  0.00    -0.130 OA 
HETATM    4  C   UNL     1      -9.657   4.853  71.468  1.00  0.00    -0.161 C  
ENDROOT
BRANCH   4   5
HETATM    5  O   UNL     1      -9.398   5.208  70.103  1.00  0.00    -0.140 OA 
BRANCH   5   6
HETATM    6  C   UNL     1     -10.106   6.260  69.614  1.00  0.00    -0.174 C  
HETATM    7  O   UNL     1     -11.319   6.377  69.667  1.00  0.00    -0.387 OA 
BRANCH   6   8
HETATM    8  C   UNL     1      -9.168   7.271  68.981  1.00  0.00    -0.139 C  
BRANCH   8   9
HETATM    9  C   UNL     1      -8.455   6.763  67.749  1.00  0.00    -0.122 A  
HETATM   10  C   UNL     1      -8.218   5.375  67.666  1.00  0.00    -0.100 A  
HETATM   11  C   UNL     1      -7.594   4.815  66.553  1.00  0.00    -0.087 A  
HETATM   12  C   UNL     1      -7.233   5.624  65.485  1.00  0.00    -0.067 A  
HETATM   13  C   UNL     1      -7.437   7.002  65.562  1.00  0.00    -0.086 A  
HETATM   14  C   UNL     1      -7.994   7.596  66.704  1.00  0.00    -0.107 A  
BRANCH  14  15
HETATM   15  N   UNL     1      -8.013   9.005  66.805  1.00  0.00    -0.107 NA 
HETATM   16  H   UNL     1      -8.860   9.437  66.437  1.00  0.00     0.000 HD 
BRANCH  15  17
HETATM   17  C   UNL     1      -7.064   9.933  67.328  1.00  0.00    -0.085 A  
HETATM   18  C   UNL     1      -6.288  10.665  66.394  1.00  0.00    -0.109 A  
HETATM   19  C   UNL     1      -5.464  11.730  66.780  1.00  0.00    -0.099 A  
HETATM   20 CL   UNL     1      -6.325  10.274  64.704  1.00  0.00    -0.127 Cl 
HETATM   21  C   UNL     1      -5.374  12.085  68.118  1.00  0.00    -0.048 A  
HETATM   22  C   UNL     1      -6.045  11.325  69.069  1.00  0.00    -0.052 A  
HETATM   23  C   UNL     1      -6.867  10.246  68.691  1.00  0.00    -0.057 A  
HETATM   24 CL   UNL     1      -7.645   9.445  70.012  1.00  0.00    -0.096 Cl 
ENDBRANCH  15  17
ENDBRANCH  14  15
ENDBRANCH   8   9
ENDBRANCH   6   8
ENDBRANCH   5   6
ENDBRANCH   4   5
TORSDOF 6
ENDMDL
MODEL      405
REMARK 921   NORMALIZED FREE ENERGY PREDICTED BY IDOCK:    3.58 KCAL/MOL
REMARK 922        TOTAL FREE ENERGY PREDICTED BY IDOCK:    3.87 KCAL/MOL
REMARK 923 INTER-LIGAND FREE ENERGY PREDICTED BY IDOCK:   -1.34 KCAL/MOL
REMARK 924 INTRA-LIGAND FREE ENERGY PREDICTED BY IDOCK:    5.21 KCAL/MOL
REMARK 927      BINDING AFFINITY PREDICTED BY RF-SCORE:    0.00 PKD
ROOT
HETATM    1  O   UNL     1      -6.619  15.187  66.716  1.00  0.00     0.052 OA 
HETATM    2  C   UNL     1      -6.093  14.100  67.331  1.00  0.00     0.244 C  
HETATM    3  O   UNL     1      -5.527  13.214  66.709  1.00  0.00     0.137 OA 
HETATM    4  C   UNL     1      -6.287  14.119  68.843  1.00  0.00    -0.091 C  
ENDROOT
BRANCH   4   5
HETATM    5  O   UNL     1      -5.774  12.917  69.433  1.00  0.00    -0.079 OA 
BRANCH   5   6
HETATM    6  C   UNL     1      -5.956  11.775  68.721  1.00  0.00    -0.048 C  
HETATM    7  O   UNL     1      -5.186  10.828  68.701  1.00  0.00    -0.041 OA 
BRANCH   6   8
HETATM    8  C   UNL     1      -7.257  11.847  67.942  1.00  0.00    -0.095 C  
BRANCH   8   9
HETATM    9  C   UNL     1      -7.482  10.679  67.010  1.00  0.00    -0.106 A  
HETATM   10  C   UNL     1      -6.352   9.919  66.642  1.00  0.00    -0.069 A  
HETATM   11  C   UNL     1      -6.469   8.807  65.811  1.00  0.00    -0.057 A  
HETATM   12  C   UNL     1      -7.721   8.409  65.365  1.00  0.00    -0.099 A  
HETATM   13  C   UNL     1      -8.846   9.164  65.699  1.00  0.00    -0.222 A  
HETATM   14  C   UNL     1      -8.741  10.329  66.472  1.00  0.00    -0.131 A  
BRANCH  14  15
HETATM   15  N   UNL     1      -9.877  11.154  66.630  1.00  0.00    -0.194 NA 
HETATM   16  H   UNL     1     -10.648  10.925  66.002  1.00  0.00     0.000 HD 
BRANCH  15  17
HETATM   17  C   UNL     1     -10.144  12.247  67.507  1.00  0.00    -0.201 A  
HETATM   18  C   UNL     1      -9.679  13.527  67.112  1.00  0.00    -0.244 A  
HETATM   19  C   UNL     1     -10.041  14.695  67.793  1.00  0.00    -0.228 A  
HETATM   20 CL   UNL     1      -8.628  13.709  65.743  1.00  0.00     1.187 Cl 
HETATM   21  C   UNL     1     -10.864  14.620  68.907  1.00  0.00    -0.257 A  
HETATM   22  C   UNL     1     -11.257  13.372  69.378  1.00  0.00    -0.235 A  
HETATM   23  C   UNL     1     -10.889  12.192  68.706  1.00  0.00    -0.228 A  
HETATM   24 CL   UNL     1     -11.501  10.742  69.424  1.00  0.00    -0.331 Cl 
ENDBRANCH  15  17
ENDBRANCH  14  15
ENDBRANCH   8   9
ENDBRANCH   6   8
ENDBRANCH   5   6
ENDBRANCH   4   5
TORSDOF 6
ENDMDL
MODEL      406
REMARK 921   NORMALIZED FREE ENERGY PREDICTED BY IDOCK:   10.39 KCAL/MOL
REMARK 922        TOTAL FREE ENERGY PREDICTED BY IDOCK:   13.07 KCAL/MOL
REMARK 923 INTER-LIGAND FREE ENERGY PREDICTED BY IDOCK:   11.66 KCAL/MOL
REMARK 924 INTRA-LIGAND FREE ENERGY PREDICTED BY IDOCK:    1.41 KCAL/MOL
REMARK 927      BINDING AFFINITY PREDICTED BY RF-SCORE:    0.00 PKD
ROOT
HETATM    1  O   UNL     1      -7.704  10.352  73.494  1.00  0.00     5.029 OA 
HETATM    2  C   UNL     1      -7.314  10.163  72.210  1.00  0.00     3.343 C  
HETATM    3  O   UNL     1      -6.587   9.239  71.883  1.00  0.00    -0.281 OA 
HETATM    4  C   UNL     1      -7.876  11.213  71.257  1.00  0.00     5.946 C  
ENDROOT
BRANCH   4   5
HETATM    5  O   UNL     1      -7.378  11.006  69.928  1.00  0.00    -0.045 OA 
BRANCH   5   6
HETATM    6  C   UNL     1      -6.076  11.332  69.720  1.00  0.00    -0.112 C  
HETATM    7  O   UNL     1      -5.155  11.069  70.476  1.00  0.00    -0.067 OA 
BRANCH   6   8
HETATM    8  C   UNL     1      -5.928  12.078  68.406  1.00  0.00    -0.050 C  
BRANCH   8   9
HETATM    9  C   UNL     1      -7.188  12.112  67.572  1.00  0.00    -0.133 A  
HETATM   10  C   UNL     1      -7.907  13.325  67.537  1.00  0.00    -0.173 A  
HETATM   11  C   UNL     1      -9.063  13.456  66.770  1.00  0.00    -0.221 A  
HETATM   12  C   UNL     1      -9.499  12.393  65.993  1.00  0.00    -0.168 A  
HETATM   13  C   UNL     1      -8.814  11.178  66.036  1.00  0.00    -0.196 A  
HETATM   14  C   UNL     1      -7.692  11.001  66.859  1.00  0.00    -0.140 A  
BRANCH  14  15
HETATM   15  N   UNL     1      -7.145   9.707  67.004  1.00  0.00    -0.085 NA 
HETATM   16  H   UNL     1      -6.144   9.655  66.815  1.00  0.00     0.000 HD 
BRANCH  15  17
HETATM   17  C   UNL     1      -7.736   8.460  67.367  1.00  0.00    -0.098 A  
HETATM   18  C   UNL     1      -6.933   7.546  68.096  1.00  0.00    -0.072 A  
HETATM   19  C   UNL     1      -7.458   6.379  68.664  1.00  0.00    -0.088 A  
HETATM   20 CL   UNL     1      -5.237   7.838  68.325  1.00  0.00    -0.026 Cl 
HETATM   21  C   UNL     1      -8.802   6.076  68.504  1.00  0.00    -0.112 A  
HETATM   22  C   UNL     1      -9.594   6.900  67.712  1.00  0.00    -0.134 A  
HETATM   23  C   UNL     1      -9.072   8.069  67.128  1.00  0.00    -0.137 A  
HETATM   24 CL   UNL     1     -10.219   8.981  66.209  1.00  0.00    -0.319 Cl 
ENDBRANCH  15  17
ENDBRANCH  14  15
ENDBRANCH   8   9
ENDBRANCH   6   8
ENDBRANCH   5   6
ENDBRANCH   4   5
TORSDOF 6
ENDMDL
MODEL      407
REMARK 921   NORMALIZED FREE ENERGY PREDICTED BY IDOCK:   17.55 KCAL/MOL
REMARK 922        TOTAL FREE ENERGY PREDICTED BY IDOCK:   22.74 KCAL/MOL
REMARK 923 INTER-LIGAND FREE ENERGY PREDICTED BY IDOCK:   16.98 KCAL/MOL
REMARK 924 INTRA-LIGAND FREE ENERGY PREDICTED BY IDOCK:    5.76 KCAL/MOL
REMARK 927      BINDING AFFINITY PREDICTED BY RF-SCORE:    0.00 PKD
ROOT
HETATM    1  O   UNL     1      -7.415  10.568  74.109  1.00  0.00     3.815 OA 
HETATM    2  C   UNL     1      -7.070  10.388  72.811  1.00  0.00     4.480 C  
HETATM    3  O   UNL     1      -6.369   9.457  72.450  1.00  0.00    -0.297 OA 
HETATM    4  C   UNL     1      -7.646  11.458  71.889  1.00  0.00     9.275 C  
ENDROOT
BRANCH   4   5
HETATM    5  O   UNL     1      -7.196  11.259  70.542  1.00  0.00     0.431 OA 
BRANCH   5   6
HETATM    6  C   UNL     1      -6.048  10.547  70.394  1.00  0.00    -0.125 C  
HETATM    7  O   UNL     1      -5.760   9.539  71.018  1.00  0.00    -0.052 OA 
BRANCH   6   8
HETATM    8  C   UNL     1      -5.167  11.191  69.339  1.00  0.00    -0.044 C  
BRANCH   8   9
HETATM    9  C   UNL     1      -5.838  12.308  68.574  1.00  0.00    -0.054 A  
HETATM   10  C   UNL     1      -5.463  13.629  68.896  1.00  0.00    -0.074 A  
HETATM   11  C   UNL     1      -6.007  14.719  68.221  1.00  0.00    -0.122 A  
HETATM   12  C   UNL     1      -6.906  14.509  67.185  1.00  0.00     0.358 A  
HETATM   13  C   UNL     1      -7.308  13.210  66.871  1.00  0.00     0.427 A  
HETATM   14  C   UNL     1      -6.829  12.104  67.587  1.00  0.00    -0.119 A  
BRANCH  14  15
HETATM   15  N   UNL     1      -7.401  10.834  67.352  1.00  0.00    -0.092 NA 
HETATM   16  H   UNL     1      -6.720  10.103  67.146  1.00  0.00     0.000 HD 
BRANCH  15  17
HETATM   17  C   UNL     1      -8.756  10.387  67.348  1.00  0.00    -0.125 A  
HETATM   18  C   UNL     1      -9.004   9.057  67.776  1.00  0.00    -0.127 A  
HETATM   19  C   UNL     1     -10.299   8.572  67.991  1.00  0.00    -0.272 A  
HETATM   20 CL   UNL     1      -7.694   7.954  68.059  1.00  0.00    -0.122 Cl 
HETATM   21  C   UNL     1     -11.393   9.395  67.767  1.00  0.00     0.499 A  
HETATM   22  C   UNL     1     -11.188  10.671  67.254  1.00  0.00    -0.237 A  
HETATM   23  C   UNL     1      -9.890  11.163  67.023  1.00  0.00    -0.185 A  
HETATM   24 CL   UNL     1      -9.838  12.783  66.417  1.00  0.00    -0.264 Cl 
ENDBRANCH  15  17
ENDBRANCH  14  15
ENDBRANCH   8   9
ENDBRANCH   6   8
ENDBRANCH   5   6
ENDBRANCH   4   5
TORSDOF 6
ENDMDL
