MODEL        1
REMARK 921   NORMALIZED FREE ENERGY PREDICTED BY IDOCK:   -7.43 KCAL/MOL
REMARK 922        TOTAL FREE ENERGY PREDICTED BY IDOCK:  -11.19 KCAL/MOL
REMARK 923 INTER-LIGAND FREE ENERGY PREDICTED BY IDOCK:  -10.04 KCAL/MOL
REMARK 924 INTRA-LIGAND FREE ENERGY PREDICTED BY IDOCK:   -1.15 KCAL/MOL
REMARK 927      BINDING AFFINITY PREDICTED BY RF-SCORE:    0.00 PKD
ROOT
HETATM    1  C   UNL     1     -12.292  12.517  70.437  1.00  0.00    -0.232 C  
HETATM    2  O   UNL     1     -12.114  13.034  69.124  1.00  0.00    -0.276 OA 
ENDROOT
BRANCH   2   3
HETATM    3  C   UNL     1     -11.453  12.242  68.225  1.00  0.00    -0.315 A  
HETATM    4  C   UNL     1     -11.439  12.409  66.839  1.00  0.00    -0.423 A  
HETATM    5  C   UNL     1     -10.743  11.489  66.015  1.00  0.00    -0.332 A  
HETATM    6  C   UNL     1     -10.101  10.396  66.603  1.00  0.00    -0.224 A  
HETATM    7  N   UNL     1      -9.620   9.564  65.576  1.00  0.00    -0.277 N  
HETATM    8  C   UNL     1     -10.009  10.298  68.007  1.00  0.00    -0.177 A  
HETATM    9  C   UNL     1      -9.101   8.242  65.736  1.00  0.00    -0.114 C  
HETATM   10  C   UNL     1     -10.714  11.214  68.795  1.00  0.00    -0.236 A  
HETATM   11  C   UNL     1      -9.726  10.291  64.374  1.00  0.00    -0.315 A  
HETATM   12  O   UNL     1      -8.314   7.831  64.885  1.00  0.00    -0.136 OA 
HETATM   13  C   UNL     1     -10.451  11.453  64.619  1.00  0.00    -0.373 A  
HETATM   14  C   UNL     1      -9.180   9.847  63.055  1.00  0.00    -0.284 C  
BRANCH   9  15
HETATM   15  C   UNL     1      -9.410   7.299  66.848  1.00  0.00    -0.192 A  
HETATM   16  C   UNL     1     -10.664   6.695  66.995  1.00  0.00    -0.437 A  
HETATM   17  C   UNL     1      -9.923   5.645  69.045  1.00  0.00    -0.174 A  
HETATM   18 CL   UNL     1     -10.271   4.715  70.448  1.00  0.00    -0.269 Cl 
HETATM   19  C   UNL     1     -10.929   5.896  68.111  1.00  0.00    -0.258 A  
HETATM   20  C   UNL     1      -8.641   6.153  68.852  1.00  0.00    -0.121 A  
HETATM   21  C   UNL     1      -8.384   6.978  67.753  1.00  0.00    -0.117 A  
ENDBRANCH   9  15
BRANCH  13  22
HETATM   22  C   UNL     1     -10.760  12.530  63.618  1.00  0.00    -0.469 C  
BRANCH  22  23
HETATM   23  C   UNL     1     -12.223  12.862  63.461  1.00  0.00    -0.512 C  
HETATM   24  O   UNL     1     -13.129  12.032  63.468  1.00  0.00    -0.764 OA 
BRANCH  23  25
HETATM   25  O   UNL     1     -12.440  14.200  63.372  1.00  0.00    -0.797 OA 
BRANCH  25  26
HETATM   26  C   UNL     1     -12.398  14.892  64.619  1.00  0.00    -0.278 C  
HETATM   27  C   UNL     1     -11.153  15.745  64.848  1.00  0.00    -0.399 C  
HETATM   28  O   UNL     1     -11.181  16.945  64.219  1.00  0.00    -1.204 OA 
HETATM   29  O   UNL     1     -10.206  15.394  65.539  1.00  0.00    -0.331 OA 
ENDBRANCH  25  26
ENDBRANCH  23  25
ENDBRANCH  22  23
ENDBRANCH  13  22
ENDBRANCH   2   3
TORSDOF 6
ENDMDL
MODEL        2
REMARK 921   NORMALIZED FREE ENERGY PREDICTED BY IDOCK:   -7.41 KCAL/MOL
REMARK 922        TOTAL FREE ENERGY PREDICTED BY IDOCK:  -11.16 KCAL/MOL
REMARK 923 INTER-LIGAND FREE ENERGY PREDICTED BY IDOCK:   -9.96 KCAL/MOL
REMARK 924 INTRA-LIGAND FREE ENERGY PREDICTED BY IDOCK:   -1.20 KCAL/MOL
REMARK 927      BINDING AFFINITY PREDICTED BY RF-SCORE:    0.00 PKD
ROOT
HETATM    1  C   UNL     1     -12.511  15.832  74.352  1.00  0.00    -0.638 C  
HETATM    2  O   UNL     1     -13.459  15.202  73.499  1.00  0.00    -0.423 OA 
ENDROOT
BRANCH   2   3
HETATM    3  C   UNL     1     -13.006  14.743  72.293  1.00  0.00    -0.341 A  
HETATM    4  C   UNL     1     -12.828  13.405  71.937  1.00  0.00    -0.354 A  
HETATM    5  C   UNL     1     -12.312  13.066  70.661  1.00  0.00    -0.391 A  
HETATM    6  C   UNL     1     -11.952  14.088  69.777  1.00  0.00    -0.334 A  
HETATM    7  N   UNL     1     -11.335  13.503  68.657  1.00  0.00    -0.268 N  
HETATM    8  C   UNL     1     -12.248  15.431  70.087  1.00  0.00    -0.407 A  
HETATM    9  C   UNL     1     -10.626  14.195  67.627  1.00  0.00    -0.253 C  
HETATM   10  C   UNL     1     -12.748  15.737  71.357  1.00  0.00    -0.509 A  
HETATM   11  C   UNL     1     -11.572  12.116  68.734  1.00  0.00    -0.327 A  
HETATM   12  O   UNL     1     -10.556  13.659  66.522  1.00  0.00    -0.278 OA 
HETATM   13  C   UNL     1     -12.130  11.829  69.976  1.00  0.00    -0.387 A  
HETATM   14  C   UNL     1     -11.231  11.130  67.664  1.00  0.00    -0.364 C  
BRANCH   9  15
HETATM   15  C   UNL     1      -9.961  15.523  67.750  1.00  0.00    -0.222 A  
HETATM   16  C   UNL     1      -8.826  15.725  68.545  1.00  0.00    -0.193 A  
HETATM   17  C   UNL     1      -8.869  18.086  68.014  1.00  0.00    -0.275 A  
HETATM   18 CL   UNL     1      -8.262  19.675  68.260  1.00  0.00    -0.365 Cl 
HETATM   19  C   UNL     1      -8.302  17.011  68.703  1.00  0.00    -0.264 A  
HETATM   20  C   UNL     1      -9.930  17.877  67.137  1.00  0.00    -0.327 A  
HETATM   21  C   UNL     1     -10.475  16.597  67.004  1.00  0.00    -0.283 A  
ENDBRANCH   9  15
BRANCH  13  22
HETATM   22  C   UNL     1     -12.573  10.474  70.453  1.00  0.00    -0.364 C  
BRANCH  22  23
HETATM   23  C   UNL     1     -11.501   9.644  71.115  1.00  0.00    -0.384 C  
HETATM   24  O   UNL     1     -10.306   9.698  70.833  1.00  0.00    -0.300 OA 
BRANCH  23  25
HETATM   25  O   UNL     1     -11.996   8.863  72.111  1.00  0.00    -0.357 OA 
BRANCH  25  26
HETATM   26  C   UNL     1     -12.758   7.743  71.664  1.00  0.00    -0.335 C  
HETATM   27  C   UNL     1     -11.944   6.599  71.065  1.00  0.00    -0.359 C  
HETATM   28  O   UNL     1     -11.362   5.794  71.987  1.00  0.00    -0.271 OA 
HETATM   29  O   UNL     1     -11.822   6.407  69.864  1.00  0.00    -0.384 OA 
ENDBRANCH  25  26
ENDBRANCH  23  25
ENDBRANCH  22  23
ENDBRANCH  13  22
ENDBRANCH   2   3
TORSDOF 6
ENDMDL
MODEL        3
REMARK 921   NORMALIZED FREE ENERGY PREDICTED BY IDOCK:   -7.37 KCAL/MOL
REMARK 922        TOTAL FREE ENERGY PREDICTED BY IDOCK:  -11.11 KCAL/MOL
REMARK 923 INTER-LIGAND FREE ENERGY PREDICTED BY IDOCK:  -10.11 KCAL/MOL
REMARK 924 INTRA-LIGAND FREE ENERGY PREDICTED BY IDOCK:   -1.01 KCAL/MOL
REMARK 927      BINDING AFFINITY PREDICTED BY RF-SCORE:    0.00 PKD
ROOT
HETATM    1  C   UNL     1     -10.230  11.321  64.752  1.00  0.00    -0.292 C  
HETATM    2  O   UNL     1      -9.706  11.922  65.929  1.00  0.00    -0.231 OA 
ENDROOT
BRANCH   2   3
HETATM    3  C   UNL     1     -10.406  11.738  67.089  1.00  0.00    -0.215 A  
HETATM    4  C   UNL     1     -10.863  12.745  67.942  1.00  0.00    -0.242 A  
HETATM    5  C   UNL     1     -11.546  12.414  69.139  1.00  0.00    -0.369 A  
HETATM    6  C   UNL     1     -11.726  11.068  69.472  1.00  0.00    -0.329 A  
HETATM    7  N   UNL     1     -12.287  11.005  70.761  1.00  0.00    -0.368 N  
HETATM    8  C   UNL     1     -11.377  10.057  68.554  1.00  0.00    -0.115 A  
HETATM    9  C   UNL     1     -12.427   9.832  71.563  1.00  0.00    -0.403 C  
HETATM   10  C   UNL     1     -10.696  10.412  67.385  1.00  0.00    -0.338 A  
HETATM   11  C   UNL     1     -12.705  12.310  71.091  1.00  0.00    -0.243 A  
HETATM   12  O   UNL     1     -13.316   9.824  72.413  1.00  0.00    -0.412 OA 
HETATM   13  C   UNL     1     -12.218  13.190  70.128  1.00  0.00    -0.360 A  
HETATM   14  C   UNL     1     -13.499  12.672  72.304  1.00  0.00    -0.541 C  
BRANCH   9  15
HETATM   15  C   UNL     1     -11.603   8.593  71.470  1.00  0.00    -0.368 A  
HETATM   16  C   UNL     1     -10.259   8.554  71.859  1.00  0.00    -0.369 A  
HETATM   17  C   UNL     1     -10.111   6.250  71.132  1.00  0.00    -0.183 A  
HETATM   18 CL   UNL     1      -9.169   4.846  70.828  1.00  0.00    -0.183 Cl 
HETATM   19  C   UNL     1      -9.506   7.393  71.659  1.00  0.00    -0.163 A  
HETATM   20  C   UNL     1     -11.473   6.246  70.843  1.00  0.00    -0.377 A  
HETATM   21  C   UNL     1     -12.219   7.416  71.013  1.00  0.00    -0.315 A  
ENDBRANCH   9  15
BRANCH  13  22
HETATM   22  C   UNL     1     -12.467  14.671  70.080  1.00  0.00    -0.369 C  
BRANCH  22  23
HETATM   23  C   UNL     1     -11.312  15.531  70.529  1.00  0.00    -0.351 C  
HETATM   24  O   UNL     1     -10.178  15.475  70.058  1.00  0.00    -0.301 OA 
BRANCH  23  25
HETATM   25  O   UNL     1     -11.678  16.429  71.482  1.00  0.00    -0.448 OA 
BRANCH  25  26
HETATM   26  C   UNL     1     -12.728  15.987  72.341  1.00  0.00    -0.419 C  
HETATM   27  C   UNL     1     -12.337  15.804  73.805  1.00  0.00    -0.597 C  
HETATM   28  O   UNL     1     -12.287  16.959  74.512  1.00  0.00    -0.679 OA 
HETATM   29  O   UNL     1     -12.093  14.718  74.313  1.00  0.00    -0.526 OA 
ENDBRANCH  25  26
ENDBRANCH  23  25
ENDBRANCH  22  23
ENDBRANCH  13  22
ENDBRANCH   2   3
TORSDOF 6
ENDMDL
MODEL        4
REMARK 921   NORMALIZED FREE ENERGY PREDICTED BY IDOCK:   -7.35 KCAL/MOL
REMARK 922        TOTAL FREE ENERGY PREDICTED BY IDOCK:  -11.08 KCAL/MOL
REMARK 923 INTER-LIGAND FREE ENERGY PREDICTED BY IDOCK:  -10.17 KCAL/MOL
REMARK 924 INTRA-LIGAND FREE ENERGY PREDICTED BY IDOCK:   -0.90 KCAL/MOL
REMARK 927      BINDING AFFINITY PREDICTED BY RF-SCORE:    0.00 PKD
ROOT
HETATM    1  C   UNL     1     -10.576  12.708  63.902  1.00  0.00    -0.428 C  
HETATM    2  O   UNL     1      -9.911  12.113  65.010  1.00  0.00    -0.260 OA 
ENDROOT
BRANCH   2   3
HETATM    3  C   UNL     1     -10.519  12.213  66.231  1.00  0.00    -0.239 A  
HETATM    4  C   UNL     1     -10.694  13.386  66.968  1.00  0.00    -0.271 A  
HETATM    5  C   UNL     1     -11.309  13.344  68.244  1.00  0.00    -0.330 A  
HETATM    6  C   UNL     1     -11.708  12.111  68.770  1.00  0.00    -0.321 A  
HETATM    7  N   UNL     1     -12.145  12.318  70.091  1.00  0.00    -0.321 N  
HETATM    8  C   UNL     1     -11.646  10.948  67.975  1.00  0.00    -0.295 A  
HETATM    9  C   UNL     1     -12.427  11.301  71.054  1.00  0.00    -0.400 C  
HETATM   10  C   UNL     1     -11.026  11.017  66.724  1.00  0.00    -0.279 A  
HETATM   11  C   UNL     1     -12.274  13.710  70.269  1.00  0.00    -0.353 A  
HETATM   12  O   UNL     1     -13.216  11.572  71.957  1.00  0.00    -0.509 OA 
HETATM   13  C   UNL     1     -11.725  14.352  69.163  1.00  0.00    -0.354 A  
HETATM   14  C   UNL     1     -12.866  14.366  71.474  1.00  0.00    -0.411 C  
BRANCH   9  15
HETATM   15  C   UNL     1     -11.865   9.920  71.073  1.00  0.00    -0.463 A  
HETATM   16  C   UNL     1     -10.506   9.659  70.861  1.00  0.00    -0.359 A  
HETATM   17  C   UNL     1     -10.938   7.282  71.000  1.00  0.00    -0.251 A  
HETATM   18 CL   UNL     1     -10.386   5.661  70.851  1.00  0.00    -0.287 Cl 
HETATM   19  C   UNL     1     -10.051   8.339  70.792  1.00  0.00    -0.218 A  
HETATM   20  C   UNL     1     -12.270   7.534  71.317  1.00  0.00    -0.357 A  
HETATM   21  C   UNL     1     -12.733   8.852  71.355  1.00  0.00    -0.350 A  
ENDBRANCH   9  15
BRANCH  13  22
HETATM   22  C   UNL     1     -11.692  15.836  68.931  1.00  0.00    -0.404 C  
BRANCH  22  23
HETATM   23  C   UNL     1     -10.329  16.473  69.041  1.00  0.00    -0.296 C  
HETATM   24  O   UNL     1      -9.335  15.915  69.499  1.00  0.00    -0.257 OA 
BRANCH  23  25
HETATM   25  O   UNL     1     -10.302  17.727  68.517  1.00  0.00    -0.359 OA 
BRANCH  25  26
HETATM   26  C   UNL     1      -9.568  17.846  67.300  1.00  0.00    -0.273 C  
HETATM   27  C   UNL     1     -10.391  18.253  66.080  1.00  0.00    -0.398 C  
HETATM   28  O   UNL     1     -10.658  19.580  66.012  1.00  0.00    -0.485 OA 
HETATM   29  O   UNL     1     -10.778  17.466  65.228  1.00  0.00    -0.646 OA 
ENDBRANCH  25  26
ENDBRANCH  23  25
ENDBRANCH  22  23
ENDBRANCH  13  22
ENDBRANCH   2   3
TORSDOF 6
ENDMDL
MODEL        5
REMARK 921   NORMALIZED FREE ENERGY PREDICTED BY IDOCK:   -7.32 KCAL/MOL
REMARK 922        TOTAL FREE ENERGY PREDICTED BY IDOCK:  -11.04 KCAL/MOL
REMARK 923 INTER-LIGAND FREE ENERGY PREDICTED BY IDOCK:   -9.79 KCAL/MOL
REMARK 924 INTRA-LIGAND FREE ENERGY PREDICTED BY IDOCK:   -1.24 KCAL/MOL
REMARK 927      BINDING AFFINITY PREDICTED BY RF-SCORE:    0.00 PKD
ROOT
HETATM    1  C   UNL     1     -10.563  12.909  64.705  1.00  0.00    -0.363 C  
HETATM    2  O   UNL     1      -9.835  12.382  65.807  1.00  0.00    -0.254 OA 
ENDROOT
BRANCH   2   3
HETATM    3  C   UNL     1     -10.520  12.196  66.976  1.00  0.00    -0.220 A  
HETATM    4  C   UNL     1     -10.961  13.202  67.839  1.00  0.00    -0.271 A  
HETATM    5  C   UNL     1     -11.629  12.868  69.044  1.00  0.00    -0.372 A  
HETATM    6  C   UNL     1     -11.809  11.522  69.375  1.00  0.00    -0.350 A  
HETATM    7  N   UNL     1     -12.353  11.456  70.670  1.00  0.00    -0.372 N  
HETATM    8  C   UNL     1     -11.476  10.513  68.447  1.00  0.00    -0.285 A  
HETATM    9  C   UNL     1     -12.486  10.281  71.470  1.00  0.00    -0.422 C  
HETATM   10  C   UNL     1     -10.810  10.870  67.271  1.00  0.00    -0.342 A  
HETATM   11  C   UNL     1     -12.761  12.761  71.012  1.00  0.00    -0.243 A  
HETATM   12  O   UNL     1     -13.363  10.272  72.332  1.00  0.00    -0.325 OA 
HETATM   13  C   UNL     1     -12.284  13.643  70.045  1.00  0.00    -0.395 A  
HETATM   14  C   UNL     1     -13.537  13.121  72.237  1.00  0.00    -0.677 C  
BRANCH   9  15
HETATM   15  C   UNL     1     -11.668   9.039  71.361  1.00  0.00    -0.392 A  
HETATM   16  C   UNL     1     -10.280   9.035  71.546  1.00  0.00    -0.414 A  
HETATM   17  C   UNL     1     -10.211   6.677  71.005  1.00  0.00    -0.191 A  
HETATM   18 CL   UNL     1      -9.304   5.253  70.685  1.00  0.00    -0.196 Cl 
HETATM   19  C   UNL     1      -9.550   7.862  71.335  1.00  0.00    -0.187 A  
HETATM   20  C   UNL     1     -11.601   6.647  70.925  1.00  0.00    -0.416 A  
HETATM   21  C   UNL     1     -12.329   7.826  71.104  1.00  0.00    -0.268 A  
ENDBRANCH   9  15
BRANCH  13  22
HETATM   22  C   UNL     1     -12.528  15.125  70.006  1.00  0.00    -0.316 C  
BRANCH  22  23
HETATM   23  C   UNL     1     -11.531  15.961  70.771  1.00  0.00    -0.407 C  
HETATM   24  O   UNL     1     -11.693  16.353  71.924  1.00  0.00    -0.493 OA 
BRANCH  23  25
HETATM   25  O   UNL     1     -10.395  16.185  70.061  1.00  0.00    -0.253 OA 
BRANCH  25  26
HETATM   26  C   UNL     1     -10.604  16.759  68.772  1.00  0.00    -0.348 C  
HETATM   27  C   UNL     1      -9.810  18.032  68.491  1.00  0.00    -0.378 C  
HETATM   28  O   UNL     1      -8.517  17.813  68.148  1.00  0.00    -0.246 OA 
HETATM   29  O   UNL     1     -10.284  19.158  68.558  1.00  0.00    -0.394 OA 
ENDBRANCH  25  26
ENDBRANCH  23  25
ENDBRANCH  22  23
ENDBRANCH  13  22
ENDBRANCH   2   3
TORSDOF 6
ENDMDL
MODEL        6
REMARK 921   NORMALIZED FREE ENERGY PREDICTED BY IDOCK:   -7.31 KCAL/MOL
REMARK 922        TOTAL FREE ENERGY PREDICTED BY IDOCK:  -11.02 KCAL/MOL
REMARK 923 INTER-LIGAND FREE ENERGY PREDICTED BY IDOCK:  -10.26 KCAL/MOL
REMARK 924 INTRA-LIGAND FREE ENERGY PREDICTED BY IDOCK:   -0.76 KCAL/MOL
REMARK 927      BINDING AFFINITY PREDICTED BY RF-SCORE:    0.00 PKD
ROOT
HETATM    1  C   UNL     1      -9.940  10.426  64.640  1.00  0.00    -0.338 C  
HETATM    2  O   UNL     1      -9.836  11.686  65.293  1.00  0.00    -0.239 OA 
ENDROOT
BRANCH   2   3
HETATM    3  C   UNL     1     -10.482  11.823  66.491  1.00  0.00    -0.230 A  
HETATM    4  C   UNL     1     -10.696  13.021  67.175  1.00  0.00    -0.266 A  
HETATM    5  C   UNL     1     -11.349  13.019  68.434  1.00  0.00    -0.326 A  
HETATM    6  C   UNL     1     -11.744  11.802  68.996  1.00  0.00    -0.328 A  
HETATM    7  N   UNL     1     -12.224  12.052  70.294  1.00  0.00    -0.298 N  
HETATM    8  C   UNL     1     -11.641  10.609  68.250  1.00  0.00    -0.245 A  
HETATM    9  C   UNL     1     -12.518  11.070  71.288  1.00  0.00    -0.370 C  
HETATM   10  C   UNL     1     -10.984  10.639  67.016  1.00  0.00    -0.274 A  
HETATM   11  C   UNL     1     -12.379  13.448  70.413  1.00  0.00    -0.312 A  
HETATM   12  O   UNL     1     -13.338  11.363  72.157  1.00  0.00    -0.469 OA 
HETATM   13  C   UNL     1     -11.807  14.056  69.300  1.00  0.00    -0.389 A  
HETATM   14  C   UNL     1     -13.017  14.141  71.574  1.00  0.00    -0.417 C  
BRANCH   9  15
HETATM   15  C   UNL     1     -11.936   9.700  71.379  1.00  0.00    -0.480 A  
HETATM   16  C   UNL     1     -10.557   9.466  71.335  1.00  0.00    -0.381 A  
HETATM   17  C   UNL     1     -10.955   7.080  71.424  1.00  0.00    -0.240 A  
HETATM   18 CL   UNL     1     -10.358   5.471  71.347  1.00  0.00    -0.280 Cl 
HETATM   19  C   UNL     1     -10.070   8.155  71.325  1.00  0.00    -0.240 A  
HETATM   20  C   UNL     1     -12.321   7.306  71.576  1.00  0.00    -0.397 A  
HETATM   21  C   UNL     1     -12.811   8.615  71.555  1.00  0.00    -0.351 A  
ENDBRANCH   9  15
BRANCH  13  22
HETATM   22  C   UNL     1     -11.789  15.530  69.010  1.00  0.00    -0.373 C  
BRANCH  22  23
HETATM   23  C   UNL     1     -10.481  16.066  68.485  1.00  0.00    -0.258 C  
HETATM   24  O   UNL     1      -9.376  15.765  68.932  1.00  0.00    -0.199 OA 
BRANCH  23  25
HETATM   25  O   UNL     1     -10.651  16.882  67.412  1.00  0.00    -0.329 OA 
BRANCH  25  26
HETATM   26  C   UNL     1      -9.970  16.460  66.232  1.00  0.00    -0.323 C  
HETATM   27  C   UNL     1     -10.873  16.083  65.060  1.00  0.00    -0.404 C  
HETATM   28  O   UNL     1     -11.351  17.144  64.366  1.00  0.00    -1.115 OA 
HETATM   29  O   UNL     1     -11.146  14.930  64.756  1.00  0.00    -0.391 OA 
ENDBRANCH  25  26
ENDBRANCH  23  25
ENDBRANCH  22  23
ENDBRANCH  13  22
ENDBRANCH   2   3
TORSDOF 6
ENDMDL
MODEL        7
REMARK 921   NORMALIZED FREE ENERGY PREDICTED BY IDOCK:   -7.25 KCAL/MOL
REMARK 922        TOTAL FREE ENERGY PREDICTED BY IDOCK:  -10.94 KCAL/MOL
REMARK 923 INTER-LIGAND FREE ENERGY PREDICTED BY IDOCK:  -10.00 KCAL/MOL
REMARK 924 INTRA-LIGAND FREE ENERGY PREDICTED BY IDOCK:   -0.94 KCAL/MOL
REMARK 927      BINDING AFFINITY PREDICTED BY RF-SCORE:    0.00 PKD
ROOT
HETATM    1  C   UNL     1     -10.673  11.327  64.233  1.00  0.00    -0.349 C  
HETATM    2  O   UNL     1      -9.971  12.149  65.157  1.00  0.00    -0.257 OA 
ENDROOT
BRANCH   2   3
HETATM    3  C   UNL     1     -10.557  12.361  66.374  1.00  0.00    -0.244 A  
HETATM    4  C   UNL     1     -10.540  13.555  67.097  1.00  0.00    -0.264 A  
HETATM    5  C   UNL     1     -11.157  13.629  68.372  1.00  0.00    -0.289 A  
HETATM    6  C   UNL     1     -11.751  12.484  68.910  1.00  0.00    -0.322 A  
HETATM    7  N   UNL     1     -12.152  12.774  70.226  1.00  0.00    -0.342 N  
HETATM    8  C   UNL     1     -11.878  11.317  68.129  1.00  0.00    -0.276 A  
HETATM    9  C   UNL     1     -12.597  11.828  71.200  1.00  0.00    -0.309 C  
HETATM   10  C   UNL     1     -11.252  11.269  66.879  1.00  0.00    -0.300 A  
HETATM   11  C   UNL     1     -12.054  14.171  70.388  1.00  0.00    -0.346 A  
HETATM   12  O   UNL     1     -13.333  12.235  72.097  1.00  0.00    -0.526 OA 
HETATM   13  C   UNL     1     -11.405  14.702  69.277  1.00  0.00    -0.313 A  
HETATM   14  C   UNL     1     -12.533  14.928  71.584  1.00  0.00    -0.395 C  
BRANCH   9  15
HETATM   15  C   UNL     1     -12.267  10.375  71.237  1.00  0.00    -0.491 A  
HETATM   16  C   UNL     1     -10.970   9.893  71.023  1.00  0.00    -0.360 A  
HETATM   17  C   UNL     1     -11.781   7.620  71.199  1.00  0.00    -0.290 A  
HETATM   18 CL   UNL     1     -11.502   5.929  71.071  1.00  0.00    -0.239 Cl 
HETATM   19  C   UNL     1     -10.735   8.516  70.971  1.00  0.00    -0.278 A  
HETATM   20  C   UNL     1     -13.052   8.089  71.519  1.00  0.00    -0.322 A  
HETATM   21  C   UNL     1     -13.295   9.466  71.539  1.00  0.00    -0.458 A  
ENDBRANCH   9  15
BRANCH  13  22
HETATM   22  C   UNL     1     -11.130  16.159  69.028  1.00  0.00    -0.336 C  
BRANCH  22  23
HETATM   23  C   UNL     1      -9.672  16.543  69.007  1.00  0.00    -0.258 C  
HETATM   24  O   UNL     1      -8.772  15.886  69.525  1.00  0.00    -0.241 OA 
BRANCH  23  25
HETATM   25  O   UNL     1      -9.449  17.677  68.291  1.00  0.00    -0.275 OA 
BRANCH  25  26
HETATM   26  C   UNL     1     -10.620  18.260  67.723  1.00  0.00    -0.393 C  
HETATM   27  C   UNL     1     -10.512  18.629  66.246  1.00  0.00    -0.424 C  
HETATM   28  O   UNL     1     -10.664  17.579  65.402  1.00  0.00    -0.612 OA 
HETATM   29  O   UNL     1     -10.312  19.766  65.842  1.00  0.00    -0.486 OA 
ENDBRANCH  25  26
ENDBRANCH  23  25
ENDBRANCH  22  23
ENDBRANCH  13  22
ENDBRANCH   2   3
TORSDOF 6
ENDMDL
MODEL        8
REMARK 921   NORMALIZED FREE ENERGY PREDICTED BY IDOCK:   -7.23 KCAL/MOL
REMARK 922        TOTAL FREE ENERGY PREDICTED BY IDOCK:  -10.93 KCAL/MOL
REMARK 923 INTER-LIGAND FREE ENERGY PREDICTED BY IDOCK:   -9.69 KCAL/MOL
REMARK 924 INTRA-LIGAND FREE ENERGY PREDICTED BY IDOCK:   -1.24 KCAL/MOL
REMARK 927      BINDING AFFINITY PREDICTED BY RF-SCORE:    0.00 PKD
ROOT
HETATM    1  C   UNL     1     -13.830  15.502  72.564  1.00  0.00    -0.576 C  
HETATM    2  O   UNL     1     -12.573  14.890  72.307  1.00  0.00    -0.312 OA 
ENDROOT
BRANCH   2   3
HETATM    3  C   UNL     1     -12.247  14.656  71.000  1.00  0.00    -0.332 A  
HETATM    4  C   UNL     1     -12.027  13.405  70.419  1.00  0.00    -0.358 A  
HETATM    5  C   UNL     1     -11.656  13.305  69.054  1.00  0.00    -0.359 A  
HETATM    6  C   UNL     1     -11.480  14.474  68.308  1.00  0.00    -0.311 A  
HETATM    7  N   UNL     1     -10.974  14.116  67.045  1.00  0.00    -0.295 N  
HETATM    8  C   UNL     1     -11.824  15.726  68.857  1.00  0.00    -0.354 A  
HETATM    9  C   UNL     1     -10.449  15.011  66.063  1.00  0.00    -0.315 C  
HETATM   10  C   UNL     1     -12.178  15.796  70.209  1.00  0.00    -0.367 A  
HETATM   11  C   UNL     1     -11.106  12.718  66.929  1.00  0.00    -0.270 A  
HETATM   12  O   UNL     1     -10.485  14.653  64.887  1.00  0.00    -0.414 OA 
HETATM   13  C   UNL     1     -11.481  12.203  68.167  1.00  0.00    -0.375 A  
HETATM   14  C   UNL     1     -10.839  11.934  65.685  1.00  0.00    -0.333 C  
BRANCH   9  15
HETATM   15  C   UNL     1      -9.864  16.359  66.316  1.00  0.00    -0.336 A  
HETATM   16  C   UNL     1      -8.579  16.533  66.842  1.00  0.00    -0.237 A  
HETATM   17  C   UNL     1      -8.912  18.929  66.875  1.00  0.00    -0.298 A  
HETATM   18 CL   UNL     1      -8.369  20.499  67.316  1.00  0.00    -0.388 Cl 
HETATM   19  C   UNL     1      -8.118  17.816  67.152  1.00  0.00    -0.229 A  
HETATM   20  C   UNL     1     -10.148  18.774  66.253  1.00  0.00    -0.447 A  
HETATM   21  C   UNL     1     -10.623  17.490  65.972  1.00  0.00    -0.217 A  
ENDBRANCH   9  15
BRANCH  13  22
HETATM   22  C   UNL     1     -11.768  10.760  68.473  1.00  0.00    -0.259 C  
BRANCH  22  23
HETATM   23  C   UNL     1     -10.778  10.088  69.391  1.00  0.00    -0.233 C  
HETATM   24  O   UNL     1      -9.613  10.450  69.542  1.00  0.00    -0.215 OA 
BRANCH  23  25
HETATM   25  O   UNL     1     -11.335   9.065  70.090  1.00  0.00    -0.222 OA 
BRANCH  25  26
HETATM   26  C   UNL     1     -11.467   9.304  71.490  1.00  0.00    -0.384 C  
HETATM   27  C   UNL     1     -12.879   9.642  71.962  1.00  0.00    -0.410 C  
HETATM   28  O   UNL     1     -13.688   8.564  72.102  1.00  0.00    -0.366 OA 
HETATM   29  O   UNL     1     -13.261  10.779  72.202  1.00  0.00    -0.473 OA 
ENDBRANCH  25  26
ENDBRANCH  23  25
ENDBRANCH  22  23
ENDBRANCH  13  22
ENDBRANCH   2   3
TORSDOF 6
ENDMDL
MODEL        9
REMARK 921   NORMALIZED FREE ENERGY PREDICTED BY IDOCK:   -7.15 KCAL/MOL
REMARK 922        TOTAL FREE ENERGY PREDICTED BY IDOCK:  -10.80 KCAL/MOL
REMARK 923 INTER-LIGAND FREE ENERGY PREDICTED BY IDOCK:   -9.52 KCAL/MOL
REMARK 924 INTRA-LIGAND FREE ENERGY PREDICTED BY IDOCK:   -1.28 KCAL/MOL
REMARK 927      BINDING AFFINITY PREDICTED BY RF-SCORE:    0.00 PKD
ROOT
HETATM    1  C   UNL     1     -13.301  15.546  72.639  1.00  0.00    -0.522 C  
HETATM    2  O   UNL     1     -12.252  14.701  72.183  1.00  0.00    -0.330 OA 
ENDROOT
BRANCH   2   3
HETATM    3  C   UNL     1     -12.008  14.679  70.837  1.00  0.00    -0.326 A  
HETATM    4  C   UNL     1     -11.845  13.536  70.051  1.00  0.00    -0.371 A  
HETATM    5  C   UNL     1     -11.557  13.655  68.668  1.00  0.00    -0.364 A  
HETATM    6  C   UNL     1     -11.403  14.927  68.109  1.00  0.00    -0.312 A  
HETATM    7  N   UNL     1     -10.977  14.774  66.777  1.00  0.00    -0.321 N  
HETATM    8  C   UNL     1     -11.690  16.077  68.873  1.00  0.00    -0.322 A  
HETATM    9  C   UNL     1     -10.494  15.811  65.922  1.00  0.00    -0.352 C  
HETATM   10  C   UNL     1     -11.963  15.931  70.237  1.00  0.00    -0.324 A  
HETATM   11  C   UNL     1     -11.142  13.414  66.447  1.00  0.00    -0.299 A  
HETATM   12  O   UNL     1     -10.605  15.648  64.708  1.00  0.00    -0.448 OA 
HETATM   13  C   UNL     1     -11.454  12.709  67.606  1.00  0.00    -0.390 A  
HETATM   14  C   UNL     1     -10.963  12.839  65.079  1.00  0.00    -0.319 C  
BRANCH   9  15
HETATM   15  C   UNL     1      -9.870  17.094  66.353  1.00  0.00    -0.312 A  
HETATM   16  C   UNL     1     -10.461  18.338  66.101  1.00  0.00    -0.403 A  
HETATM   17  C   UNL     1      -8.551  19.449  67.088  1.00  0.00    -0.294 A  
HETATM   18 CL   UNL     1      -7.695  20.896  67.445  1.00  0.00    -0.338 Cl 
HETATM   19  C   UNL     1      -9.785  19.514  66.440  1.00  0.00    -0.485 A  
HETATM   20  C   UNL     1      -8.006  18.217  67.440  1.00  0.00    -0.232 A  
HETATM   21  C   UNL     1      -8.665  17.041  67.073  1.00  0.00    -0.240 A  
ENDBRANCH   9  15
BRANCH  13  22
HETATM   22  C   UNL     1     -11.750  11.238  67.692  1.00  0.00    -0.215 C  
BRANCH  22  23
HETATM   23  C   UNL     1     -10.613  10.382  68.193  1.00  0.00    -0.211 C  
HETATM   24  O   UNL     1      -9.449  10.481  67.813  1.00  0.00    -0.147 OA 
BRANCH  23  25
HETATM   25  O   UNL     1     -11.008   9.520  69.166  1.00  0.00    -0.210 OA 
BRANCH  25  26
HETATM   26  C   UNL     1     -10.876  10.023  70.494  1.00  0.00    -0.314 C  
HETATM   27  C   UNL     1     -12.073   9.769  71.407  1.00  0.00    -0.400 C  
HETATM   28  O   UNL     1     -12.120   8.516  71.921  1.00  0.00    -0.304 OA 
HETATM   29  O   UNL     1     -12.920  10.612  71.668  1.00  0.00    -0.420 OA 
ENDBRANCH  25  26
ENDBRANCH  23  25
ENDBRANCH  22  23
ENDBRANCH  13  22
ENDBRANCH   2   3
TORSDOF 6
ENDMDL
MODEL       10
REMARK 921   NORMALIZED FREE ENERGY PREDICTED BY IDOCK:   -7.05 KCAL/MOL
REMARK 922        TOTAL FREE ENERGY PREDICTED BY IDOCK:  -10.68 KCAL/MOL
REMARK 923 INTER-LIGAND FREE ENERGY PREDICTED BY IDOCK:   -9.38 KCAL/MOL
REMARK 924 INTRA-LIGAND FREE ENERGY PREDICTED BY IDOCK:   -1.30 KCAL/MOL
REMARK 927      BINDING AFFINITY PREDICTED BY RF-SCORE:    0.00 PKD
ROOT
HETATM    1  C   UNL     1     -12.546  16.121  74.177  1.00  0.00    -0.542 C  
HETATM    2  O   UNL     1     -13.355  15.140  73.540  1.00  0.00    -0.467 OA 
ENDROOT
BRANCH   2   3
HETATM    3  C   UNL     1     -12.949  14.697  72.311  1.00  0.00    -0.355 A  
HETATM    4  C   UNL     1     -12.803  13.363  71.926  1.00  0.00    -0.354 A  
HETATM    5  C   UNL     1     -12.335  13.040  70.628  1.00  0.00    -0.391 A  
HETATM    6  C   UNL     1     -11.988  14.072  69.751  1.00  0.00    -0.334 A  
HETATM    7  N   UNL     1     -11.417  13.499  68.601  1.00  0.00    -0.285 N  
HETATM    8  C   UNL     1     -12.253  15.414  70.094  1.00  0.00    -0.407 A  
HETATM    9  C   UNL     1     -10.731  14.198  67.561  1.00  0.00    -0.269 C  
HETATM   10  C   UNL     1     -12.707  15.704  71.385  1.00  0.00    -0.535 A  
HETATM   11  C   UNL     1     -11.673  12.114  68.661  1.00  0.00    -0.330 A  
HETATM   12  O   UNL     1     -10.706  13.682  66.445  1.00  0.00    -0.279 OA 
HETATM   13  C   UNL     1     -12.194  11.813  69.916  1.00  0.00    -0.293 A  
HETATM   14  C   UNL     1     -11.382  11.142  67.563  1.00  0.00    -0.351 C  
BRANCH   9  15
HETATM   15  C   UNL     1     -10.042  15.515  67.686  1.00  0.00    -0.243 A  
HETATM   16  C   UNL     1      -8.793  15.653  68.303  1.00  0.00    -0.180 A  
HETATM   17  C   UNL     1      -8.897  18.050  67.983  1.00  0.00    -0.275 A  
HETATM   18 CL   UNL     1      -8.243  19.615  68.258  1.00  0.00    -0.365 Cl 
HETATM   19  C   UNL     1      -8.238  16.924  68.480  1.00  0.00    -0.249 A  
HETATM   20  C   UNL     1     -10.086  17.912  67.272  1.00  0.00    -0.344 A  
HETATM   21  C   UNL     1     -10.658  16.645  67.123  1.00  0.00    -0.264 A  
ENDBRANCH   9  15
BRANCH  13  22
HETATM   22  C   UNL     1     -12.642  10.457  70.383  1.00  0.00    -0.329 C  
BRANCH  22  23
HETATM   23  C   UNL     1     -11.662   9.725  71.266  1.00  0.00    -0.394 C  
HETATM   24  O   UNL     1     -11.954   9.183  72.330  1.00  0.00    -0.321 OA 
BRANCH  23  25
HETATM   25  O   UNL     1     -10.417   9.678  70.724  1.00  0.00    -0.290 OA 
BRANCH  25  26
HETATM   26  C   UNL     1      -9.872   8.365  70.605  1.00  0.00    -0.181 C  
HETATM   27  C   UNL     1     -10.570   7.460  69.593  1.00  0.00    -0.236 C  
HETATM   28  O   UNL     1     -10.212   7.691  68.306  1.00  0.00    -0.184 OA 
HETATM   29  O   UNL     1     -11.378   6.595  69.898  1.00  0.00    -0.335 OA 
ENDBRANCH  25  26
ENDBRANCH  23  25
ENDBRANCH  22  23
ENDBRANCH  13  22
ENDBRANCH   2   3
TORSDOF 6
ENDMDL
MODEL       11
REMARK 921   NORMALIZED FREE ENERGY PREDICTED BY IDOCK:   -7.05 KCAL/MOL
REMARK 922        TOTAL FREE ENERGY PREDICTED BY IDOCK:  -10.67 KCAL/MOL
REMARK 923 INTER-LIGAND FREE ENERGY PREDICTED BY IDOCK:   -9.50 KCAL/MOL
REMARK 924 INTRA-LIGAND FREE ENERGY PREDICTED BY IDOCK:   -1.18 KCAL/MOL
REMARK 927      BINDING AFFINITY PREDICTED BY RF-SCORE:    0.00 PKD
ROOT
HETATM    1  C   UNL     1     -13.668   9.195  72.301  1.00  0.00    -0.487 C  
HETATM    2  O   UNL     1     -12.700  10.209  72.060  1.00  0.00    -0.397 OA 
ENDROOT
BRANCH   2   3
HETATM    3  C   UNL     1     -12.046  10.176  70.859  1.00  0.00    -0.356 A  
HETATM    4  C   UNL     1     -12.247  11.052  69.791  1.00  0.00    -0.388 A  
HETATM    5  C   UNL     1     -11.526  10.882  68.581  1.00  0.00    -0.380 A  
HETATM    6  C   UNL     1     -10.641   9.807  68.460  1.00  0.00    -0.221 A  
HETATM    7  N   UNL     1     -10.173   9.771  67.134  1.00  0.00    -0.213 N  
HETATM    8  C   UNL     1     -10.346   9.000  69.578  1.00  0.00    -0.211 A  
HETATM    9  C   UNL     1      -9.428   8.711  66.531  1.00  0.00    -0.216 C  
HETATM   10  C   UNL     1     -11.078   9.185  70.755  1.00  0.00    -0.336 A  
HETATM   11  C   UNL     1     -10.557  10.984  66.529  1.00  0.00    -0.254 A  
HETATM   12  O   UNL     1      -8.706   8.991  65.576  1.00  0.00    -0.159 OA 
HETATM   13  C   UNL     1     -11.423  11.655  67.387  1.00  0.00    -0.357 A  
HETATM   14  C   UNL     1     -10.128  11.435  65.170  1.00  0.00    -0.319 C  
BRANCH   9  15
HETATM   15  C   UNL     1      -9.425   7.281  66.952  1.00  0.00    -0.208 A  
HETATM   16  C   UNL     1      -8.291   6.658  67.487  1.00  0.00    -0.121 A  
HETATM   17  C   UNL     1      -9.489   4.557  67.588  1.00  0.00    -0.160 A  
HETATM   18 CL   UNL     1      -9.495   2.864  67.881  1.00  0.00    -0.250 Cl 
HETATM   19  C   UNL     1      -8.315   5.289  67.773  1.00  0.00    -0.098 A  
HETATM   20  C   UNL     1     -10.652   5.190  67.159  1.00  0.00    -0.169 A  
HETATM   21  C   UNL     1     -10.621   6.551  66.843  1.00  0.00    -0.376 A  
ENDBRANCH   9  15
BRANCH  13  22
HETATM   22  C   UNL     1     -12.036  13.005  67.146  1.00  0.00    -0.389 C  
BRANCH  22  23
HETATM   23  C   UNL     1     -11.221  14.177  67.635  1.00  0.00    -0.297 C  
HETATM   24  O   UNL     1     -10.536  14.170  68.655  1.00  0.00    -0.240 OA 
BRANCH  23  25
HETATM   25  O   UNL     1     -11.277  15.234  66.784  1.00  0.00    -0.317 OA 
BRANCH  25  26
HETATM   26  C   UNL     1     -10.855  14.948  65.452  1.00  0.00    -0.369 C  
HETATM   27  C   UNL     1     -11.726  15.544  64.351  1.00  0.00    -0.242 C  
HETATM   28  O   UNL     1     -11.490  16.856  64.109  1.00  0.00    -1.174 OA 
HETATM   29  O   UNL     1     -12.564  14.908  63.727  1.00  0.00    -0.791 OA 
ENDBRANCH  25  26
ENDBRANCH  23  25
ENDBRANCH  22  23
ENDBRANCH  13  22
ENDBRANCH   2   3
TORSDOF 6
ENDMDL
MODEL       12
REMARK 921   NORMALIZED FREE ENERGY PREDICTED BY IDOCK:   -6.98 KCAL/MOL
REMARK 922        TOTAL FREE ENERGY PREDICTED BY IDOCK:  -10.58 KCAL/MOL
REMARK 923 INTER-LIGAND FREE ENERGY PREDICTED BY IDOCK:   -9.63 KCAL/MOL
REMARK 924 INTRA-LIGAND FREE ENERGY PREDICTED BY IDOCK:   -0.95 KCAL/MOL
REMARK 927      BINDING AFFINITY PREDICTED BY RF-SCORE:    0.00 PKD
ROOT
HETATM    1  C   UNL     1      -8.297   8.598  65.116  1.00  0.00    -0.168 C  
HETATM    2  O   UNL     1      -9.153   9.678  64.764  1.00  0.00    -0.211 OA 
ENDROOT
BRANCH   2   3
HETATM    3  C   UNL     1      -9.746  10.364  65.788  1.00  0.00    -0.228 A  
HETATM    4  C   UNL     1      -9.609  11.728  66.051  1.00  0.00    -0.248 A  
HETATM    5  C   UNL     1     -10.252  12.309  67.174  1.00  0.00    -0.224 A  
HETATM    6  C   UNL     1     -10.994  11.493  68.032  1.00  0.00    -0.231 A  
HETATM    7  N   UNL     1     -11.398  12.267  69.135  1.00  0.00    -0.263 N  
HETATM    8  C   UNL     1     -11.235  10.144  67.698  1.00  0.00    -0.169 A  
HETATM    9  C   UNL     1     -11.982  11.775  70.342  1.00  0.00    -0.332 C  
HETATM   10  C   UNL     1     -10.581   9.596  66.590  1.00  0.00    -0.173 A  
HETATM   11  C   UNL     1     -11.139  13.614  68.809  1.00  0.00    -0.270 A  
HETATM   12  O   UNL     1     -12.692  12.544  70.988  1.00  0.00    -0.326 OA 
HETATM   13  C   UNL     1     -10.398  13.651  67.631  1.00  0.00    -0.239 A  
HETATM   14  C   UNL     1     -11.561  14.789  69.630  1.00  0.00    -0.342 C  
BRANCH   9  15
HETATM   15  C   UNL     1     -11.829  10.403  70.904  1.00  0.00    -0.475 A  
HETATM   16  C   UNL     1     -12.919   9.651  71.357  1.00  0.00    -0.474 A  
HETATM   17  C   UNL     1     -11.416   7.890  72.062  1.00  0.00    -0.300 A  
HETATM   18 CL   UNL     1     -11.154   6.394  72.868  1.00  0.00    -0.272 Cl 
HETATM   19  C   UNL     1     -12.708   8.410  71.965  1.00  0.00    -0.399 A  
HETATM   20  C   UNL     1     -10.337   8.582  71.519  1.00  0.00    -0.321 A  
HETATM   21  C   UNL     1     -10.543   9.837  70.939  1.00  0.00    -0.344 A  
ENDBRANCH   9  15
BRANCH  13  22
HETATM   22  C   UNL     1      -9.945  14.891  66.912  1.00  0.00    -0.245 C  
BRANCH  22  23
HETATM   23  C   UNL     1     -10.806  15.308  65.747  1.00  0.00    -0.358 C  
HETATM   24  O   UNL     1     -10.541  16.233  64.982  1.00  0.00    -0.620 OA 
BRANCH  23  25
HETATM   25  O   UNL     1     -11.890  14.503  65.593  1.00  0.00    -0.356 OA 
BRANCH  25  26
HETATM   26  C   UNL     1     -12.262  14.261  64.237  1.00  0.00    -0.423 C  
HETATM   27  C   UNL     1     -12.266  12.794  63.816  1.00  0.00    -0.489 C  
HETATM   28  O   UNL     1     -13.369  12.110  64.207  1.00  0.00    -0.761 OA 
HETATM   29  O   UNL     1     -11.366  12.267  63.177  1.00  0.00    -0.366 OA 
ENDBRANCH  25  26
ENDBRANCH  23  25
ENDBRANCH  22  23
ENDBRANCH  13  22
ENDBRANCH   2   3
TORSDOF 6
ENDMDL
MODEL       13
REMARK 921   NORMALIZED FREE ENERGY PREDICTED BY IDOCK:   -6.90 KCAL/MOL
REMARK 922        TOTAL FREE ENERGY PREDICTED BY IDOCK:  -10.48 KCAL/MOL
REMARK 923 INTER-LIGAND FREE ENERGY PREDICTED BY IDOCK:   -9.37 KCAL/MOL
REMARK 924 INTRA-LIGAND FREE ENERGY PREDICTED BY IDOCK:   -1.10 KCAL/MOL
REMARK 927      BINDING AFFINITY PREDICTED BY RF-SCORE:    0.00 PKD
ROOT
HETATM    1  C   UNL     1     -13.549   9.235  72.257  1.00  0.00    -0.480 C  
HETATM    2  O   UNL     1     -12.810  10.401  71.916  1.00  0.00    -0.433 OA 
ENDROOT
BRANCH   2   3
HETATM    3  C   UNL     1     -12.080  10.362  70.761  1.00  0.00    -0.364 A  
HETATM    4  C   UNL     1     -12.212  11.231  69.676  1.00  0.00    -0.340 A  
HETATM    5  C   UNL     1     -11.415  11.055  68.517  1.00  0.00    -0.379 A  
HETATM    6  C   UNL     1     -10.521   9.982  68.460  1.00  0.00    -0.202 A  
HETATM    7  N   UNL     1      -9.968   9.938  67.168  1.00  0.00    -0.189 N  
HETATM    8  C   UNL     1     -10.298   9.183  69.600  1.00  0.00    -0.226 A  
HETATM    9  C   UNL     1      -9.183   8.876  66.621  1.00  0.00    -0.170 C  
HETATM   10  C   UNL     1     -11.105   9.373  70.726  1.00  0.00    -0.365 A  
HETATM   11  C   UNL     1     -10.314  11.147  66.531  1.00  0.00    -0.243 A  
HETATM   12  O   UNL     1      -8.401   9.152  65.713  1.00  0.00    -0.116 OA 
HETATM   13  C   UNL     1     -11.236  11.820  67.327  1.00  0.00    -0.364 A  
HETATM   14  C   UNL     1      -9.799  11.590  65.199  1.00  0.00    -0.294 C  
BRANCH   9  15
HETATM   15  C   UNL     1      -9.205   7.449  67.051  1.00  0.00    -0.169 A  
HETATM   16  C   UNL     1     -10.352   6.652  66.953  1.00  0.00    -0.324 A  
HETATM   17  C   UNL     1      -9.174   4.820  68.007  1.00  0.00    -0.123 A  
HETATM   18 CL   UNL     1      -9.185   3.242  68.689  1.00  0.00    -0.215 Cl 
HETATM   19  C   UNL     1     -10.344   5.350  67.462  1.00  0.00    -0.246 A  
HETATM   20  C   UNL     1      -7.998   5.567  68.011  1.00  0.00    -0.096 A  
HETATM   21  C   UNL     1      -8.014   6.880  67.532  1.00  0.00    -0.112 A  
ENDBRANCH   9  15
BRANCH  13  22
HETATM   22  C   UNL     1     -11.834  13.168  67.038  1.00  0.00    -0.435 C  
BRANCH  22  23
HETATM   23  C   UNL     1     -11.042  14.345  67.549  1.00  0.00    -0.302 C  
HETATM   24  O   UNL     1     -10.471  14.380  68.637  1.00  0.00    -0.234 OA 
BRANCH  23  25
HETATM   25  O   UNL     1     -10.975  15.355  66.642  1.00  0.00    -0.313 OA 
BRANCH  25  26
HETATM   26  C   UNL     1     -10.729  14.932  65.302  1.00  0.00    -0.393 C  
HETATM   27  C   UNL     1     -11.774  15.370  64.279  1.00  0.00    -0.206 C  
HETATM   28  O   UNL     1     -11.639  16.653  63.865  1.00  0.00    -1.204 OA 
HETATM   29  O   UNL     1     -12.658  14.638  63.855  1.00  0.00    -0.834 OA 
ENDBRANCH  25  26
ENDBRANCH  23  25
ENDBRANCH  22  23
ENDBRANCH  13  22
ENDBRANCH   2   3
TORSDOF 6
ENDMDL
MODEL       14
REMARK 921   NORMALIZED FREE ENERGY PREDICTED BY IDOCK:   -6.89 KCAL/MOL
REMARK 922        TOTAL FREE ENERGY PREDICTED BY IDOCK:  -10.46 KCAL/MOL
REMARK 923 INTER-LIGAND FREE ENERGY PREDICTED BY IDOCK:   -9.20 KCAL/MOL
REMARK 924 INTRA-LIGAND FREE ENERGY PREDICTED BY IDOCK:   -1.25 KCAL/MOL
REMARK 927      BINDING AFFINITY PREDICTED BY RF-SCORE:    0.00 PKD
ROOT
HETATM    1  C   UNL     1     -13.436  13.612  72.280  1.00  0.00    -0.555 C  
HETATM    2  O   UNL     1     -12.335  14.509  72.200  1.00  0.00    -0.322 OA 
ENDROOT
BRANCH   2   3
HETATM    3  C   UNL     1     -11.913  14.869  70.949  1.00  0.00    -0.316 A  
HETATM    4  C   UNL     1     -11.964  14.071  69.805  1.00  0.00    -0.393 A  
HETATM    5  C   UNL     1     -11.454  14.554  68.573  1.00  0.00    -0.327 A  
HETATM    6  C   UNL     1     -10.869  15.823  68.527  1.00  0.00    -0.290 A  
HETATM    7  N   UNL     1     -10.313  16.005  67.248  1.00  0.00    -0.290 N  
HETATM    8  C   UNL     1     -10.932  16.674  69.649  1.00  0.00    -0.222 A  
HETATM    9  C   UNL     1      -9.439  17.062  66.851  1.00  0.00    -0.257 C  
HETATM   10  C   UNL     1     -11.432  16.168  70.853  1.00  0.00    -0.421 A  
HETATM   11  C   UNL     1     -10.803  14.963  66.435  1.00  0.00    -0.325 A  
HETATM   12  O   UNL     1      -9.412  17.365  65.659  1.00  0.00    -0.509 OA 
HETATM   13  C   UNL     1     -11.466  14.043  67.242  1.00  0.00    -0.372 A  
HETATM   14  C   UNL     1     -10.594  14.860  64.958  1.00  0.00    -0.446 C  
BRANCH   9  15
HETATM   15  C   UNL     1      -8.551  17.858  67.745  1.00  0.00    -0.242 A  
HETATM   16  C   UNL     1      -8.799  19.202  68.047  1.00  0.00    -0.353 A  
HETATM   17  C   UNL     1      -6.748  19.297  69.328  1.00  0.00    -0.321 A  
HETATM   18 CL   UNL     1      -5.590  20.208  70.212  1.00  0.00    -0.310 Cl 
HETATM   19  C   UNL     1      -7.880  19.929  68.811  1.00  0.00    -0.176 A  
HETATM   20  C   UNL     1      -6.547  17.935  69.123  1.00  0.00    -0.240 A  
HETATM   21  C   UNL     1      -7.449  17.216  68.333  1.00  0.00    -0.227 A  
ENDBRANCH   9  15
BRANCH  13  22
HETATM   22  C   UNL     1     -12.172  12.803  66.771  1.00  0.00    -0.134 C  
BRANCH  22  23
HETATM   23  C   UNL     1     -11.394  11.520  66.932  1.00  0.00    -0.253 C  
HETATM   24  O   UNL     1     -11.650  10.651  67.761  1.00  0.00    -0.501 OA 
BRANCH  23  25
HETATM   25  O   UNL     1     -10.403  11.400  66.010  1.00  0.00    -0.235 OA 
BRANCH  25  26
HETATM   26  C   UNL     1     -10.856  11.155  64.680  1.00  0.00    -0.225 C  
HETATM   27  C   UNL     1      -9.754  10.997  63.636  1.00  0.00    -0.324 C  
HETATM   28  O   UNL     1      -9.171   9.774  63.629  1.00  0.00    -0.259 OA 
HETATM   29  O   UNL     1      -9.418  11.883  62.862  1.00  0.00    -0.358 OA 
ENDBRANCH  25  26
ENDBRANCH  23  25
ENDBRANCH  22  23
ENDBRANCH  13  22
ENDBRANCH   2   3
TORSDOF 6
ENDMDL
MODEL       15
REMARK 921   NORMALIZED FREE ENERGY PREDICTED BY IDOCK:   -6.88 KCAL/MOL
REMARK 922        TOTAL FREE ENERGY PREDICTED BY IDOCK:  -10.45 KCAL/MOL
REMARK 923 INTER-LIGAND FREE ENERGY PREDICTED BY IDOCK:   -9.36 KCAL/MOL
REMARK 924 INTRA-LIGAND FREE ENERGY PREDICTED BY IDOCK:   -1.09 KCAL/MOL
REMARK 927      BINDING AFFINITY PREDICTED BY RF-SCORE:    0.00 PKD
ROOT
HETATM    1  C   UNL     1     -13.872  15.417  72.486  1.00  0.00    -0.553 C  
HETATM    2  O   UNL     1     -12.773  14.550  72.238  1.00  0.00    -0.321 OA 
ENDROOT
BRANCH   2   3
HETATM    3  C   UNL     1     -12.410  14.361  70.933  1.00  0.00    -0.349 A  
HETATM    4  C   UNL     1     -12.089  13.139  70.339  1.00  0.00    -0.392 A  
HETATM    5  C   UNL     1     -11.689  13.087  68.979  1.00  0.00    -0.376 A  
HETATM    6  C   UNL     1     -11.586  14.277  68.253  1.00  0.00    -0.324 A  
HETATM    7  N   UNL     1     -11.033  13.977  66.994  1.00  0.00    -0.294 N  
HETATM    8  C   UNL     1     -12.029  15.492  68.814  1.00  0.00    -0.265 A  
HETATM    9  C   UNL     1     -10.558  14.922  66.035  1.00  0.00    -0.315 C  
HETATM   10  C   UNL     1     -12.409  15.515  70.160  1.00  0.00    -0.384 A  
HETATM   11  C   UNL     1     -11.061  12.575  66.856  1.00  0.00    -0.278 A  
HETATM   12  O   UNL     1     -10.548  14.582  64.853  1.00  0.00    -0.409 OA 
HETATM   13  C   UNL     1     -11.419  12.014  68.080  1.00  0.00    -0.392 A  
HETATM   14  C   UNL     1     -10.717  11.832  65.606  1.00  0.00    -0.328 C  
BRANCH   9  15
HETATM   15  C   UNL     1     -10.077  16.305  66.318  1.00  0.00    -0.340 A  
HETATM   16  C   UNL     1      -8.929  16.560  67.078  1.00  0.00    -0.224 A  
HETATM   17  C   UNL     1      -9.335  18.939  66.900  1.00  0.00    -0.309 A  
HETATM   18 CL   UNL     1      -8.939  20.551  67.345  1.00  0.00    -0.454 Cl 
HETATM   19  C   UNL     1      -8.579  17.875  67.396  1.00  0.00    -0.239 A  
HETATM   20  C   UNL     1     -10.416  18.700  66.055  1.00  0.00    -0.456 A  
HETATM   21  C   UNL     1     -10.786  17.384  65.763  1.00  0.00    -0.120 A  
ENDBRANCH   9  15
BRANCH  13  22
HETATM   22  C   UNL     1     -11.606  10.550  68.359  1.00  0.00    -0.205 C  
BRANCH  22  23
HETATM   23  C   UNL     1     -10.753   9.994  69.472  1.00  0.00    -0.244 C  
HETATM   24  O   UNL     1      -9.528  10.081  69.519  1.00  0.00    -0.204 OA 
BRANCH  23  25
HETATM   25  O   UNL     1     -11.498   9.434  70.461  1.00  0.00    -0.263 OA 
BRANCH  25  26
HETATM   26  C   UNL     1     -10.957   8.230  71.002  1.00  0.00    -0.245 C  
HETATM   27  C   UNL     1     -11.825   6.988  70.820  1.00  0.00    -0.355 C  
HETATM   28  O   UNL     1     -11.743   6.433  69.586  1.00  0.00    -0.389 OA 
HETATM   29  O   UNL     1     -12.533   6.518  71.700  1.00  0.00    -0.336 OA 
ENDBRANCH  25  26
ENDBRANCH  23  25
ENDBRANCH  22  23
ENDBRANCH  13  22
ENDBRANCH   2   3
TORSDOF 6
ENDMDL
MODEL       16
REMARK 921   NORMALIZED FREE ENERGY PREDICTED BY IDOCK:   -6.83 KCAL/MOL
REMARK 922        TOTAL FREE ENERGY PREDICTED BY IDOCK:  -10.38 KCAL/MOL
REMARK 923 INTER-LIGAND FREE ENERGY PREDICTED BY IDOCK:   -8.78 KCAL/MOL
REMARK 924 INTRA-LIGAND FREE ENERGY PREDICTED BY IDOCK:   -1.60 KCAL/MOL
REMARK 927      BINDING AFFINITY PREDICTED BY RF-SCORE:    0.00 PKD
ROOT
HETATM    1  C   UNL     1     -12.220  16.013  72.921  1.00  0.00    -0.517 C  
HETATM    2  O   UNL     1     -11.447  15.009  72.276  1.00  0.00    -0.374 OA 
ENDROOT
BRANCH   2   3
HETATM    3  C   UNL     1     -11.396  15.042  70.909  1.00  0.00    -0.265 A  
HETATM    4  C   UNL     1     -11.413  13.933  70.060  1.00  0.00    -0.208 A  
HETATM    5  C   UNL     1     -11.315  14.106  68.656  1.00  0.00    -0.306 A  
HETATM    6  C   UNL     1     -11.164  15.395  68.136  1.00  0.00    -0.325 A  
HETATM    7  N   UNL     1     -10.939  15.286  66.752  1.00  0.00    -0.318 N  
HETATM    8  C   UNL     1     -11.272  16.518  68.981  1.00  0.00    -0.238 A  
HETATM    9  C   UNL     1     -10.519  16.338  65.881  1.00  0.00    -0.345 C  
HETATM   10  C   UNL     1     -11.360  16.318  70.363  1.00  0.00    -0.313 A  
HETATM   11  C   UNL     1     -11.230  13.956  66.391  1.00  0.00    -0.315 A  
HETATM   12  O   UNL     1     -10.809  16.244  64.690  1.00  0.00    -0.687 OA 
HETATM   13  C   UNL     1     -11.418  13.211  67.551  1.00  0.00    -0.371 A  
HETATM   14  C   UNL     1     -11.279  13.442  64.988  1.00  0.00    -0.332 C  
BRANCH   9  15
HETATM   15  C   UNL     1      -9.765  17.563  66.273  1.00  0.00    -0.271 A  
HETATM   16  C   UNL     1     -10.343  18.838  66.257  1.00  0.00    -0.497 A  
HETATM   17  C   UNL     1      -8.223  19.812  66.901  1.00  0.00    -0.307 A  
HETATM   18 CL   UNL     1      -7.251  21.200  67.184  1.00  0.00    -0.356 Cl 
HETATM   19  C   UNL     1      -9.563  19.963  66.539  1.00  0.00    -0.534 A  
HETATM   20  C   UNL     1      -7.668  18.541  67.024  1.00  0.00    -0.235 A  
HETATM   21  C   UNL     1      -8.439  17.417  66.712  1.00  0.00    -0.280 A  
ENDBRANCH   9  15
BRANCH  13  22
HETATM   22  C   UNL     1     -11.787  11.756  67.616  1.00  0.00    -0.241 C  
BRANCH  22  23
HETATM   23  C   UNL     1     -10.628  10.795  67.531  1.00  0.00    -0.237 C  
HETATM   24  O   UNL     1     -10.587   9.818  66.786  1.00  0.00    -0.206 OA 
BRANCH  23  25
HETATM   25  O   UNL     1      -9.593  11.163  68.331  1.00  0.00    -0.178 OA 
BRANCH  25  26
HETATM   26  C   UNL     1      -8.385  11.467  67.637  1.00  0.00    -0.129 C  
HETATM   27  C   UNL     1      -7.742  12.802  68.004  1.00  0.00    -0.137 C  
HETATM   28  O   UNL     1      -7.034  12.775  69.159  1.00  0.00    -0.090 OA 
HETATM   29  O   UNL     1      -7.841  13.814  67.325  1.00  0.00    -0.162 OA 
ENDBRANCH  25  26
ENDBRANCH  23  25
ENDBRANCH  22  23
ENDBRANCH  13  22
ENDBRANCH   2   3
TORSDOF 6
ENDMDL
MODEL       17
REMARK 921   NORMALIZED FREE ENERGY PREDICTED BY IDOCK:   -6.82 KCAL/MOL
REMARK 922        TOTAL FREE ENERGY PREDICTED BY IDOCK:  -10.37 KCAL/MOL
REMARK 923 INTER-LIGAND FREE ENERGY PREDICTED BY IDOCK:   -9.14 KCAL/MOL
REMARK 924 INTRA-LIGAND FREE ENERGY PREDICTED BY IDOCK:   -1.23 KCAL/MOL
REMARK 927      BINDING AFFINITY PREDICTED BY RF-SCORE:    0.00 PKD
ROOT
HETATM    1  C   UNL     1      -9.986  11.446  63.896  1.00  0.00    -0.315 C  
HETATM    2  O   UNL     1      -9.921  10.375  64.829  1.00  0.00    -0.314 OA 
ENDROOT
BRANCH   2   3
HETATM    3  C   UNL     1     -10.457  10.592  66.069  1.00  0.00    -0.183 A  
HETATM    4  C   UNL     1     -10.772  11.836  66.620  1.00  0.00    -0.300 A  
HETATM    5  C   UNL     1     -11.289  11.924  67.937  1.00  0.00    -0.358 A  
HETATM    6  C   UNL     1     -11.447  10.755  68.688  1.00  0.00    -0.295 A  
HETATM    7  N   UNL     1     -11.827  11.119  69.993  1.00  0.00    -0.329 N  
HETATM    8  C   UNL     1     -11.249   9.494  68.089  1.00  0.00     0.067 A  
HETATM    9  C   UNL     1     -11.877  10.254  71.128  1.00  0.00    -0.362 C  
HETATM   10  C   UNL     1     -10.729   9.438  66.792  1.00  0.00    -0.129 A  
HETATM   11  C   UNL     1     -12.169  12.486  69.956  1.00  0.00    -0.192 A  
HETATM   12  O   UNL     1     -12.640  10.556  72.044  1.00  0.00    -0.326 OA 
HETATM   13  C   UNL     1     -11.803  13.002  68.716  1.00  0.00    -0.355 A  
HETATM   14  C   UNL     1     -12.781  13.244  71.089  1.00  0.00    -0.404 C  
BRANCH   9  15
HETATM   15  C   UNL     1     -11.098   8.997  71.318  1.00  0.00    -0.382 A  
HETATM   16  C   UNL     1     -11.686   7.729  71.234  1.00  0.00    -0.311 A  
HETATM   17  C   UNL     1      -9.573   6.706  71.821  1.00  0.00    -0.158 A  
HETATM   18 CL   UNL     1      -8.663   5.307  72.231  1.00  0.00    -0.129 Cl 
HETATM   19  C   UNL     1     -10.931   6.588  71.518  1.00  0.00    -0.298 A  
HETATM   20  C   UNL     1      -8.954   7.953  71.801  1.00  0.00    -0.172 A  
HETATM   21  C   UNL     1      -9.716   9.097  71.549  1.00  0.00    -0.313 A  
ENDBRANCH   9  15
BRANCH  13  22
HETATM   22  C   UNL     1     -12.027  14.412  68.246  1.00  0.00    -0.323 C  
BRANCH  22  23
HETATM   23  C   UNL     1     -10.773  15.218  68.014  1.00  0.00    -0.268 C  
HETATM   24  O   UNL     1      -9.763  15.150  68.711  1.00  0.00    -0.205 OA 
BRANCH  23  25
HETATM   25  O   UNL     1     -10.858  15.993  66.901  1.00  0.00    -0.296 OA 
BRANCH  25  26
HETATM   26  C   UNL     1     -10.608  15.305  65.678  1.00  0.00    -0.362 C  
HETATM   27  C   UNL     1     -11.639  15.538  64.577  1.00  0.00    -0.283 C  
HETATM   28  O   UNL     1     -11.484  16.709  63.913  1.00  0.00    -1.186 OA 
HETATM   29  O   UNL     1     -12.530  14.746  64.302  1.00  0.00    -0.661 OA 
ENDBRANCH  25  26
ENDBRANCH  23  25
ENDBRANCH  22  23
ENDBRANCH  13  22
ENDBRANCH   2   3
TORSDOF 6
ENDMDL
MODEL       18
REMARK 921   NORMALIZED FREE ENERGY PREDICTED BY IDOCK:   -6.80 KCAL/MOL
REMARK 922        TOTAL FREE ENERGY PREDICTED BY IDOCK:  -10.34 KCAL/MOL
REMARK 923 INTER-LIGAND FREE ENERGY PREDICTED BY IDOCK:   -9.16 KCAL/MOL
REMARK 924 INTRA-LIGAND FREE ENERGY PREDICTED BY IDOCK:   -1.18 KCAL/MOL
REMARK 927      BINDING AFFINITY PREDICTED BY RF-SCORE:    0.00 PKD
ROOT
HETATM    1  C   UNL     1     -14.354   8.531  72.305  1.00  0.00    -0.390 C  
HETATM    2  O   UNL     1     -13.649   9.758  72.453  1.00  0.00    -0.407 OA 
ENDROOT
BRANCH   2   3
HETATM    3  C   UNL     1     -12.758  10.089  71.470  1.00  0.00    -0.429 A  
HETATM    4  C   UNL     1     -12.735  11.286  70.752  1.00  0.00    -0.360 A  
HETATM    5  C   UNL     1     -11.777  11.487  69.727  1.00  0.00    -0.426 A  
HETATM    6  C   UNL     1     -10.879  10.460  69.421  1.00  0.00    -0.248 A  
HETATM    7  N   UNL     1     -10.143  10.843  68.285  1.00  0.00    -0.168 N  
HETATM    8  C   UNL     1     -10.820   9.305  70.228  1.00  0.00    -0.286 A  
HETATM    9  C   UNL     1      -9.282  10.002  67.515  1.00  0.00    -0.137 C  
HETATM   10  C   UNL     1     -11.784   9.129  71.226  1.00  0.00    -0.396 A  
HETATM   11  C   UNL     1     -10.399  12.212  68.071  1.00  0.00    -0.205 A  
HETATM   12  O   UNL     1      -8.378  10.540  66.879  1.00  0.00    -0.123 OA 
HETATM   13  C   UNL     1     -11.431  12.609  68.918  1.00  0.00    -0.354 A  
HETATM   14  C   UNL     1      -9.698  13.066  67.065  1.00  0.00    -0.235 C  
BRANCH   9  15
HETATM   15  C   UNL     1      -9.359   8.517  67.409  1.00  0.00    -0.178 A  
HETATM   16  C   UNL     1     -10.483   7.858  66.899  1.00  0.00    -0.388 A  
HETATM   17  C   UNL     1      -9.451   5.721  67.377  1.00  0.00    -0.112 A  
HETATM   18 CL   UNL     1      -9.551   4.007  67.453  1.00  0.00    -0.228 Cl 
HETATM   19  C   UNL     1     -10.541   6.461  66.914  1.00  0.00    -0.379 A  
HETATM   20  C   UNL     1      -8.287   6.366  67.786  1.00  0.00    -0.118 A  
HETATM   21  C   UNL     1      -8.240   7.763  67.801  1.00  0.00    -0.126 A  
ENDBRANCH   9  15
BRANCH  13  22
HETATM   22  C   UNL     1     -11.987  14.000  69.040  1.00  0.00    -0.392 C  
BRANCH  22  23
HETATM   23  C   UNL     1     -11.287  14.886  70.040  1.00  0.00    -0.274 C  
HETATM   24  O   UNL     1     -10.413  15.701  69.755  1.00  0.00    -0.267 OA 
BRANCH  23  25
HETATM   25  O   UNL     1     -11.775  14.728  71.299  1.00  0.00    -0.322 OA 
BRANCH  25  26
HETATM   26  C   UNL     1     -11.912  15.940  72.038  1.00  0.00    -0.513 C  
HETATM   27  C   UNL     1     -12.851  15.866  73.239  1.00  0.00    -0.556 C  
HETATM   28  O   UNL     1     -12.300  15.295  74.338  1.00  0.00    -0.633 OA 
HETATM   29  O   UNL     1     -14.000  16.286  73.230  1.00  0.00    -0.511 OA 
ENDBRANCH  25  26
ENDBRANCH  23  25
ENDBRANCH  22  23
ENDBRANCH  13  22
ENDBRANCH   2   3
TORSDOF 6
ENDMDL
MODEL       19
REMARK 921   NORMALIZED FREE ENERGY PREDICTED BY IDOCK:   -6.78 KCAL/MOL
REMARK 922        TOTAL FREE ENERGY PREDICTED BY IDOCK:  -10.31 KCAL/MOL
REMARK 923 INTER-LIGAND FREE ENERGY PREDICTED BY IDOCK:   -9.15 KCAL/MOL
REMARK 924 INTRA-LIGAND FREE ENERGY PREDICTED BY IDOCK:   -1.16 KCAL/MOL
REMARK 927      BINDING AFFINITY PREDICTED BY RF-SCORE:    0.00 PKD
ROOT
HETATM    1  C   UNL     1      -8.364   7.694  65.481  1.00  0.00    -0.135 C  
HETATM    2  O   UNL     1      -7.996   8.750  66.360  1.00  0.00    -0.100 OA 
ENDROOT
BRANCH   2   3
HETATM    3  C   UNL     1      -8.930   9.155  67.273  1.00  0.00    -0.123 A  
HETATM    4  C   UNL     1      -9.278  10.477  67.560  1.00  0.00    -0.152 A  
HETATM    5  C   UNL     1     -10.239  10.762  68.562  1.00  0.00    -0.192 A  
HETATM    6  C   UNL     1     -10.808   9.708  69.283  1.00  0.00    -0.205 A  
HETATM    7  N   UNL     1     -11.605  10.253  70.305  1.00  0.00    -0.294 N  
HETATM    8  C   UNL     1     -10.551   8.373  68.908  1.00  0.00    -0.162 A  
HETATM    9  C   UNL     1     -12.183   9.536  71.397  1.00  0.00    -0.371 C  
HETATM   10  C   UNL     1      -9.591   8.121  67.923  1.00  0.00    -0.179 A  
HETATM   11  C   UNL     1     -11.741  11.629  70.032  1.00  0.00    -0.321 A  
HETATM   12  O   UNL     1     -13.193  10.006  71.919  1.00  0.00    -0.414 OA 
HETATM   13  C   UNL     1     -10.875  11.963  68.994  1.00  0.00    -0.235 A  
HETATM   14  C   UNL     1     -12.639  12.564  70.775  1.00  0.00    -0.299 C  
BRANCH   9  15
HETATM   15  C   UNL     1     -11.691   8.252  71.972  1.00  0.00    -0.407 A  
HETATM   16  C   UNL     1     -12.333   7.030  71.740  1.00  0.00    -0.391 A  
HETATM   17  C   UNL     1     -10.759   5.920  73.206  1.00  0.00    -0.265 A  
HETATM   18 CL   UNL     1     -10.252   4.508  74.045  1.00  0.00    -0.224 Cl 
HETATM   19  C   UNL     1     -11.886   5.872  72.384  1.00  0.00    -0.263 A  
HETATM   20  C   UNL     1     -10.050   7.108  73.358  1.00  0.00    -0.345 A  
HETATM   21  C   UNL     1     -10.515   8.273  72.740  1.00  0.00    -0.329 A  
ENDBRANCH   9  15
BRANCH  13  22
HETATM   22  C   UNL     1     -10.734  13.321  68.365  1.00  0.00    -0.273 C  
BRANCH  22  23
HETATM   23  C   UNL     1     -11.514  13.522  67.089  1.00  0.00    -0.338 C  
HETATM   24  O   UNL     1     -12.416  12.783  66.702  1.00  0.00    -0.373 OA 
BRANCH  23  25
HETATM   25  O   UNL     1     -11.148  14.655  66.435  1.00  0.00    -0.323 OA 
BRANCH  25  26
HETATM   26  C   UNL     1     -10.841  14.471  65.055  1.00  0.00    -0.412 C  
HETATM   27  C   UNL     1     -11.919  14.938  64.080  1.00  0.00    -0.235 C  
HETATM   28  O   UNL     1     -11.928  16.276  63.867  1.00  0.00    -1.003 OA 
HETATM   29  O   UNL     1     -12.708  14.185  63.528  1.00  0.00    -0.794 OA 
ENDBRANCH  25  26
ENDBRANCH  23  25
ENDBRANCH  22  23
ENDBRANCH  13  22
ENDBRANCH   2   3
TORSDOF 6
ENDMDL
MODEL       20
REMARK 921   NORMALIZED FREE ENERGY PREDICTED BY IDOCK:   -6.76 KCAL/MOL
REMARK 922        TOTAL FREE ENERGY PREDICTED BY IDOCK:  -10.28 KCAL/MOL
REMARK 923 INTER-LIGAND FREE ENERGY PREDICTED BY IDOCK:   -9.42 KCAL/MOL
REMARK 924 INTRA-LIGAND FREE ENERGY PREDICTED BY IDOCK:   -0.87 KCAL/MOL
REMARK 927      BINDING AFFINITY PREDICTED BY RF-SCORE:    0.00 PKD
ROOT
HETATM    1  C   UNL     1      -8.651   5.569  65.671  1.00  0.00    -0.148 C  
HETATM    2  O   UNL     1      -8.452   6.940  65.351  1.00  0.00    -0.138 OA 
ENDROOT
BRANCH   2   3
HETATM    3  C   UNL     1      -9.161   7.859  66.075  1.00  0.00    -0.132 A  
HETATM    4  C   UNL     1      -9.234   9.229  65.815  1.00  0.00    -0.283 A  
HETATM    5  C   UNL     1      -9.977  10.081  66.672  1.00  0.00    -0.274 A  
HETATM    6  C   UNL     1     -10.605   9.538  67.797  1.00  0.00    -0.261 A  
HETATM    7  N   UNL     1     -11.140  10.596  68.554  1.00  0.00    -0.244 N  
HETATM    8  C   UNL     1     -10.635   8.142  67.988  1.00  0.00    -0.188 A  
HETATM    9  C   UNL     1     -11.666  10.502  69.879  1.00  0.00    -0.294 C  
HETATM   10  C   UNL     1      -9.886   7.327  67.134  1.00  0.00    -0.242 A  
HETATM   11  C   UNL     1     -11.079  11.751  67.749  1.00  0.00    -0.243 A  
HETATM   12  O   UNL     1     -12.495  11.343  70.225  1.00  0.00    -0.282 OA 
HETATM   13  C   UNL     1     -10.330  11.461  66.612  1.00  0.00    -0.272 A  
HETATM   14  C   UNL     1     -11.688  13.070  68.099  1.00  0.00    -0.391 C  
BRANCH   9  15
HETATM   15  C   UNL     1     -11.320   9.471  70.898  1.00  0.00    -0.410 A  
HETATM   16  C   UNL     1     -12.275   8.607  71.447  1.00  0.00    -0.348 A  
HETATM   17  C   UNL     1     -10.588   7.658  72.899  1.00  0.00    -0.354 A  
HETATM   18 CL   UNL     1     -10.161   6.619  74.200  1.00  0.00    -0.385 Cl 
HETATM   19  C   UNL     1     -11.914   7.725  72.470  1.00  0.00    -0.304 A  
HETATM   20  C   UNL     1      -9.610   8.436  72.285  1.00  0.00    -0.374 A  
HETATM   21  C   UNL     1      -9.975   9.340  71.284  1.00  0.00    -0.341 A  
ENDBRANCH   9  15
BRANCH  13  22
HETATM   22  C   UNL     1     -10.054  12.401  65.473  1.00  0.00    -0.287 C  
BRANCH  22  23
HETATM   23  C   UNL     1     -10.884  12.171  64.234  1.00  0.00    -0.341 C  
HETATM   24  O   UNL     1     -11.050  11.076  63.702  1.00  0.00    -0.216 OA 
BRANCH  23  25
HETATM   25  O   UNL     1     -11.485  13.309  63.798  1.00  0.00    -0.390 OA 
BRANCH  25  26
HETATM   26  C   UNL     1     -11.775  14.257  64.823  1.00  0.00    -0.415 C  
HETATM   27  C   UNL     1     -11.164  15.641  64.621  1.00  0.00    -0.369 C  
HETATM   28  O   UNL     1     -11.845  16.423  63.748  1.00  0.00    -1.002 OA 
HETATM   29  O   UNL     1     -10.154  16.028  65.191  1.00  0.00    -0.485 OA 
ENDBRANCH  25  26
ENDBRANCH  23  25
ENDBRANCH  22  23
ENDBRANCH  13  22
ENDBRANCH   2   3
TORSDOF 6
ENDMDL
MODEL       21
REMARK 921   NORMALIZED FREE ENERGY PREDICTED BY IDOCK:   -6.72 KCAL/MOL
REMARK 922        TOTAL FREE ENERGY PREDICTED BY IDOCK:  -10.22 KCAL/MOL
REMARK 923 INTER-LIGAND FREE ENERGY PREDICTED BY IDOCK:   -9.05 KCAL/MOL
REMARK 924 INTRA-LIGAND FREE ENERGY PREDICTED BY IDOCK:   -1.17 KCAL/MOL
REMARK 927      BINDING AFFINITY PREDICTED BY RF-SCORE:    0.00 PKD
ROOT
HETATM    1  C   UNL     1      -8.470   6.629  65.648  1.00  0.00    -0.144 C  
HETATM    2  O   UNL     1      -8.929   7.962  65.466  1.00  0.00    -0.098 OA 
ENDROOT
BRANCH   2   3
HETATM    3  C   UNL     1      -9.600   8.540  66.508  1.00  0.00    -0.236 A  
HETATM    4  C   UNL     1      -9.969   9.883  66.603  1.00  0.00    -0.277 A  
HETATM    5  C   UNL     1     -10.631  10.363  67.761  1.00  0.00    -0.294 A  
HETATM    6  C   UNL     1     -10.877   9.484  68.820  1.00  0.00    -0.142 A  
HETATM    7  N   UNL     1     -11.399  10.226  69.895  1.00  0.00    -0.271 N  
HETATM    8  C   UNL     1     -10.618   8.105  68.673  1.00  0.00    -0.144 A  
HETATM    9  C   UNL     1     -11.580   9.758  71.233  1.00  0.00    -0.390 C  
HETATM   10  C   UNL     1      -9.957   7.662  67.523  1.00  0.00    -0.233 A  
HETATM   11  C   UNL     1     -11.729  11.501  69.393  1.00  0.00    -0.346 A  
HETATM   12  O   UNL     1     -12.440  10.308  71.919  1.00  0.00    -0.374 OA 
HETATM   13  C   UNL     1     -11.224  11.614  68.101  1.00  0.00    -0.325 A  
HETATM   14  C   UNL     1     -12.461  12.556  70.157  1.00  0.00    -0.092 C  
BRANCH   9  15
HETATM   15  C   UNL     1     -10.833   8.649  71.891  1.00  0.00    -0.419 A  
HETATM   16  C   UNL     1      -9.449   8.692  72.093  1.00  0.00    -0.373 A  
HETATM   17  C   UNL     1      -9.511   6.457  73.019  1.00  0.00    -0.141 A  
HETATM   18 CL   UNL     1      -8.685   5.072  73.614  1.00  0.00    -0.107 Cl 
HETATM   19  C   UNL     1      -8.785   7.582  72.626  1.00  0.00    -0.165 A  
HETATM   20  C   UNL     1     -10.900   6.446  72.922  1.00  0.00    -0.286 A  
HETATM   21  C   UNL     1     -11.561   7.542  72.360  1.00  0.00    -0.356 A  
ENDBRANCH   9  15
BRANCH  13  22
HETATM   22  C   UNL     1     -11.388  12.798  67.191  1.00  0.00    -0.365 C  
BRANCH  22  23
HETATM   23  C   UNL     1     -10.366  13.893  67.371  1.00  0.00    -0.252 C  
HETATM   24  O   UNL     1      -9.384  13.814  68.106  1.00  0.00    -0.199 OA 
BRANCH  23  25
HETATM   25  O   UNL     1     -10.617  14.968  66.578  1.00  0.00    -0.292 OA 
BRANCH  25  26
HETATM   26  C   UNL     1     -10.558  14.699  65.179  1.00  0.00    -0.421 C  
HETATM   27  C   UNL     1     -11.668  15.336  64.347  1.00  0.00    -0.285 C  
HETATM   28  O   UNL     1     -11.469  16.648  64.071  1.00  0.00    -1.192 OA 
HETATM   29  O   UNL     1     -12.654  14.730  63.950  1.00  0.00    -0.834 OA 
ENDBRANCH  25  26
ENDBRANCH  23  25
ENDBRANCH  22  23
ENDBRANCH  13  22
ENDBRANCH   2   3
TORSDOF 6
ENDMDL
MODEL       22
REMARK 921   NORMALIZED FREE ENERGY PREDICTED BY IDOCK:   -6.68 KCAL/MOL
REMARK 922        TOTAL FREE ENERGY PREDICTED BY IDOCK:  -10.18 KCAL/MOL
REMARK 923 INTER-LIGAND FREE ENERGY PREDICTED BY IDOCK:   -9.13 KCAL/MOL
REMARK 924 INTRA-LIGAND FREE ENERGY PREDICTED BY IDOCK:   -1.05 KCAL/MOL
REMARK 927      BINDING AFFINITY PREDICTED BY RF-SCORE:    0.00 PKD
ROOT
HETATM    1  C   UNL     1     -12.013  15.840  72.946  1.00  0.00    -0.493 C  
HETATM    2  O   UNL     1     -12.599  14.722  72.290  1.00  0.00    -0.317 OA 
ENDROOT
BRANCH   2   3
HETATM    3  C   UNL     1     -12.291  14.540  70.970  1.00  0.00    -0.347 A  
HETATM    4  C   UNL     1     -12.057  13.314  70.344  1.00  0.00    -0.401 A  
HETATM    5  C   UNL     1     -11.706  13.268  68.971  1.00  0.00    -0.368 A  
HETATM    6  C   UNL     1     -11.563  14.465  68.262  1.00  0.00    -0.328 A  
HETATM    7  N   UNL     1     -11.070  14.161  66.980  1.00  0.00    -0.300 N  
HETATM    8  C   UNL     1     -11.921  15.690  68.860  1.00  0.00    -0.298 A  
HETATM    9  C   UNL     1     -10.577  15.098  66.022  1.00  0.00    -0.322 C  
HETATM   10  C   UNL     1     -12.254  15.707  70.218  1.00  0.00    -0.416 A  
HETATM   11  C   UNL     1     -11.179  12.765  66.818  1.00  0.00    -0.295 A  
HETATM   12  O   UNL     1     -10.625  14.781  64.835  1.00  0.00    -0.414 OA 
HETATM   13  C   UNL     1     -11.524  12.200  68.043  1.00  0.00    -0.380 A  
HETATM   14  C   UNL     1     -10.917  12.030  65.544  1.00  0.00    -0.345 C  
BRANCH   9  15
HETATM   15  C   UNL     1     -10.013  16.447  66.313  1.00  0.00    -0.341 A  
HETATM   16  C   UNL     1      -8.760  16.624  66.912  1.00  0.00    -0.241 A  
HETATM   17  C   UNL     1      -9.105  19.019  66.935  1.00  0.00    -0.303 A  
HETATM   18 CL   UNL     1      -8.593  20.589  67.412  1.00  0.00    -0.403 Cl 
HETATM   19  C   UNL     1      -8.323  17.908  67.252  1.00  0.00    -0.232 A  
HETATM   20  C   UNL     1     -10.303  18.862  66.243  1.00  0.00    -0.512 A  
HETATM   21  C   UNL     1     -10.756  17.577  65.931  1.00  0.00    -0.119 A  
ENDBRANCH   9  15
BRANCH  13  22
HETATM   22  C   UNL     1     -11.781  10.743  68.302  1.00  0.00    -0.205 C  
BRANCH  22  23
HETATM   23  C   UNL     1     -10.792  10.071  69.223  1.00  0.00    -0.230 C  
HETATM   24  O   UNL     1     -10.773  10.209  70.443  1.00  0.00    -0.291 OA 
BRANCH  23  25
HETATM   25  O   UNL     1      -9.951   9.237  68.555  1.00  0.00    -0.165 OA 
BRANCH  25  26
HETATM   26  C   UNL     1     -10.332   8.965  67.208  1.00  0.00    -0.280 C  
HETATM   27  C   UNL     1     -10.143   7.518  66.759  1.00  0.00    -0.243 C  
HETATM   28  O   UNL     1     -11.124   6.679  67.172  1.00  0.00    -0.392 OA 
HETATM   29  O   UNL     1      -9.201   7.134  66.081  1.00  0.00    -0.155 OA 
ENDBRANCH  25  26
ENDBRANCH  23  25
ENDBRANCH  22  23
ENDBRANCH  13  22
ENDBRANCH   2   3
TORSDOF 6
ENDMDL
MODEL       23
REMARK 921   NORMALIZED FREE ENERGY PREDICTED BY IDOCK:   -6.66 KCAL/MOL
REMARK 922        TOTAL FREE ENERGY PREDICTED BY IDOCK:  -10.15 KCAL/MOL
REMARK 923 INTER-LIGAND FREE ENERGY PREDICTED BY IDOCK:   -9.07 KCAL/MOL
REMARK 924 INTRA-LIGAND FREE ENERGY PREDICTED BY IDOCK:   -1.08 KCAL/MOL
REMARK 927      BINDING AFFINITY PREDICTED BY RF-SCORE:    0.00 PKD
ROOT
HETATM    1  C   UNL     1     -12.895  13.208  71.334  1.00  0.00    -0.311 C  
HETATM    2  O   UNL     1     -12.556  14.033  70.226  1.00  0.00    -0.342 OA 
ENDROOT
BRANCH   2   3
HETATM    3  C   UNL     1     -11.991  13.420  69.141  1.00  0.00    -0.317 A  
HETATM    4  C   UNL     1     -12.243  13.726  67.802  1.00  0.00    -0.208 A  
HETATM    5  C   UNL     1     -11.616  12.984  66.769  1.00  0.00    -0.420 A  
HETATM    6  C   UNL     1     -10.772  11.923  67.107  1.00  0.00    -0.240 A  
HETATM    7  N   UNL     1     -10.401  11.261  65.922  1.00  0.00    -0.246 N  
HETATM    8  C   UNL     1     -10.421  11.696  68.453  1.00  0.00    -0.230 A  
HETATM    9  C   UNL     1      -9.732  10.003  65.833  1.00  0.00    -0.247 C  
HETATM   10  C   UNL     1     -11.061  12.436  69.452  1.00  0.00    -0.149 A  
HETATM   11  C   UNL     1     -10.794  12.088  64.850  1.00  0.00    -0.301 A  
HETATM   12  O   UNL     1      -9.072   9.777  64.819  1.00  0.00    -0.210 OA 
HETATM   13  C   UNL     1     -11.578  13.124  65.350  1.00  0.00    -0.362 A  
HETATM   14  C   UNL     1     -10.451  11.847  63.415  1.00  0.00    -0.487 C  
BRANCH   9  15
HETATM   15  C   UNL     1      -9.738   8.922  66.859  1.00  0.00    -0.263 A  
HETATM   16  C   UNL     1     -10.779   7.992  66.964  1.00  0.00    -0.263 A  
HETATM   17  C   UNL     1      -9.716   7.015  68.906  1.00  0.00    -0.144 A  
HETATM   18 CL   UNL     1      -9.755   5.912  70.224  1.00  0.00    -0.201 Cl 
HETATM   19  C   UNL     1     -10.783   7.061  68.007  1.00  0.00    -0.252 A  
HETATM   20  C   UNL     1      -8.625   7.865  68.746  1.00  0.00    -0.128 A  
HETATM   21  C   UNL     1      -8.635   8.817  67.723  1.00  0.00    -0.129 A  
ENDBRANCH   9  15
BRANCH  13  22
HETATM   22  C   UNL     1     -12.168  14.250  64.550  1.00  0.00    -0.476 C  
BRANCH  22  23
HETATM   23  C   UNL     1     -11.340  15.511  64.509  1.00  0.00    -0.314 C  
HETATM   24  O   UNL     1     -11.642  16.521  63.877  1.00  0.00    -1.175 OA 
BRANCH  23  25
HETATM   25  O   UNL     1     -10.241  15.432  65.304  1.00  0.00    -0.360 OA 
BRANCH  25  26
HETATM   26  C   UNL     1     -10.133  16.474  66.272  1.00  0.00    -0.333 C  
HETATM   27  C   UNL     1      -8.707  16.887  66.627  1.00  0.00    -0.247 C  
HETATM   28  O   UNL     1      -8.129  17.712  65.721  1.00  0.00    -0.550 OA 
HETATM   29  O   UNL     1      -8.124  16.519  67.637  1.00  0.00    -0.159 OA 
ENDBRANCH  25  26
ENDBRANCH  23  25
ENDBRANCH  22  23
ENDBRANCH  13  22
ENDBRANCH   2   3
TORSDOF 6
ENDMDL
MODEL       24
REMARK 921   NORMALIZED FREE ENERGY PREDICTED BY IDOCK:   -6.58 KCAL/MOL
REMARK 922        TOTAL FREE ENERGY PREDICTED BY IDOCK:  -10.04 KCAL/MOL
REMARK 923 INTER-LIGAND FREE ENERGY PREDICTED BY IDOCK:   -8.87 KCAL/MOL
REMARK 924 INTRA-LIGAND FREE ENERGY PREDICTED BY IDOCK:   -1.17 KCAL/MOL
REMARK 927      BINDING AFFINITY PREDICTED BY RF-SCORE:    0.00 PKD
ROOT
HETATM    1  C   UNL     1      -8.486   8.052  65.381  1.00  0.00    -0.139 C  
HETATM    2  O   UNL     1      -9.076   9.332  65.191  1.00  0.00    -0.214 OA 
ENDROOT
BRANCH   2   3
HETATM    3  C   UNL     1      -9.770   9.862  66.245  1.00  0.00    -0.222 A  
HETATM    4  C   UNL     1      -9.860  11.216  66.571  1.00  0.00    -0.242 A  
HETATM    5  C   UNL     1     -10.584  11.629  67.718  1.00  0.00    -0.227 A  
HETATM    6  C   UNL     1     -11.176  10.663  68.536  1.00  0.00    -0.282 A  
HETATM    7  N   UNL     1     -11.697  11.308  69.672  1.00  0.00    -0.317 N  
HETATM    8  C   UNL     1     -11.192   9.310  68.138  1.00  0.00     0.218 A  
HETATM    9  C   UNL     1     -12.185  10.671  70.854  1.00  0.00    -0.395 C  
HETATM   10  C   UNL     1     -10.462   8.930  67.008  1.00  0.00    -0.326 A  
HETATM   11  C   UNL     1     -11.666  12.692  69.410  1.00  0.00    -0.325 A  
HETATM   12  O   UNL     1     -13.009  11.281  71.533  1.00  0.00    -0.428 OA 
HETATM   13  C   UNL     1     -10.947  12.907  68.237  1.00  0.00    -0.282 A  
HETATM   14  C   UNL     1     -12.273  13.742  70.284  1.00  0.00    -0.429 C  
BRANCH   9  15
HETATM   15  C   UNL     1     -11.804   9.318  71.352  1.00  0.00    -0.428 A  
HETATM   16  C   UNL     1     -10.494   8.998  71.728  1.00  0.00    -0.418 A  
HETATM   17  C   UNL     1     -11.169   6.713  72.149  1.00  0.00    -0.264 A  
HETATM   18 CL   UNL     1     -10.758   5.090  72.537  1.00  0.00    -0.271 Cl 
HETATM   19  C   UNL     1     -10.172   7.688  72.093  1.00  0.00    -0.256 A  
HETATM   20  C   UNL     1     -12.494   7.047  71.881  1.00  0.00    -0.346 A  
HETATM   21  C   UNL     1     -12.812   8.349  71.484  1.00  0.00    -0.322 A  
ENDBRANCH   9  15
BRANCH  13  22
HETATM   22  C   UNL     1     -10.709  14.236  67.578  1.00  0.00    -0.270 C  
BRANCH  22  23
HETATM   23  C   UNL     1     -11.529  14.494  66.338  1.00  0.00    -0.360 C  
HETATM   24  O   UNL     1     -12.565  13.897  66.053  1.00  0.00    -0.467 OA 
BRANCH  23  25
HETATM   25  O   UNL     1     -11.027  15.512  65.591  1.00  0.00    -0.333 OA 
BRANCH  25  26
HETATM   26  C   UNL     1      -9.914  16.185  66.177  1.00  0.00    -0.335 C  
HETATM   27  C   UNL     1     -10.122  17.673  66.447  1.00  0.00    -0.356 C  
HETATM   28  O   UNL     1     -10.832  17.937  67.570  1.00  0.00    -0.364 OA 
HETATM   29  O   UNL     1      -9.688  18.561  65.727  1.00  0.00    -0.468 OA 
ENDBRANCH  25  26
ENDBRANCH  23  25
ENDBRANCH  22  23
ENDBRANCH  13  22
ENDBRANCH   2   3
TORSDOF 6
ENDMDL
MODEL       25
REMARK 921   NORMALIZED FREE ENERGY PREDICTED BY IDOCK:   -6.55 KCAL/MOL
REMARK 922        TOTAL FREE ENERGY PREDICTED BY IDOCK:  -10.00 KCAL/MOL
REMARK 923 INTER-LIGAND FREE ENERGY PREDICTED BY IDOCK:   -9.12 KCAL/MOL
REMARK 924 INTRA-LIGAND FREE ENERGY PREDICTED BY IDOCK:   -0.88 KCAL/MOL
REMARK 927      BINDING AFFINITY PREDICTED BY RF-SCORE:    0.00 PKD
ROOT
HETATM    1  C   UNL     1     -11.991   6.827  71.661  1.00  0.00    -0.347 C  
HETATM    2  O   UNL     1     -11.539   8.103  72.097  1.00  0.00    -0.307 OA 
ENDROOT
BRANCH   2   3
HETATM    3  C   UNL     1     -11.676   9.146  71.223  1.00  0.00    -0.326 A  
HETATM    4  C   UNL     1     -11.147   9.211  69.933  1.00  0.00    -0.175 A  
HETATM    5  C   UNL     1     -11.331  10.374  69.142  1.00  0.00    -0.286 A  
HETATM    6  C   UNL     1     -12.018  11.465  69.682  1.00  0.00    -0.348 A  
HETATM    7  N   UNL     1     -11.935  12.532  68.769  1.00  0.00    -0.291 N  
HETATM    8  C   UNL     1     -12.658  11.352  70.933  1.00  0.00    -0.453 A  
HETATM    9  C   UNL     1     -12.308  13.888  69.021  1.00  0.00    -0.087 C  
HETATM   10  C   UNL     1     -12.451  10.198  71.696  1.00  0.00    -0.506 A  
HETATM   11  C   UNL     1     -11.440  12.002  67.560  1.00  0.00    -0.333 A  
HETATM   12  O   UNL     1     -12.625  14.582  68.056  1.00  0.00     0.106 OA 
HETATM   13  C   UNL     1     -11.025  10.693  67.786  1.00  0.00    -0.364 A  
HETATM   14  C   UNL     1     -11.346  12.754  66.273  1.00  0.00    -0.365 C  
BRANCH   9  15
HETATM   15  C   UNL     1     -12.364  14.557  70.352  1.00  0.00    -0.400 A  
HETATM   16  C   UNL     1     -11.231  15.101  70.967  1.00  0.00    -0.328 A  
HETATM   17  C   UNL     1     -12.556  15.676  72.909  1.00  0.00    -0.446 A  
HETATM   18 CL   UNL     1     -12.653  16.268  74.519  1.00  0.00    -0.544 Cl 
HETATM   19  C   UNL     1     -11.322  15.630  72.259  1.00  0.00    -0.337 A  
HETATM   20  C   UNL     1     -13.709  15.236  72.262  1.00  0.00    -0.614 A  
HETATM   21  C   UNL     1     -13.613  14.678  70.984  1.00  0.00    -0.331 A  
ENDBRANCH   9  15
BRANCH  13  22
HETATM   22  C   UNL     1     -10.471   9.752  66.754  1.00  0.00    -0.259 C  
BRANCH  22  23
HETATM   23  C   UNL     1      -8.981   9.843  66.535  1.00  0.00    -0.146 C  
HETATM   24  O   UNL     1      -8.137   9.352  67.280  1.00  0.00    -0.109 OA 
BRANCH  23  25
HETATM   25  O   UNL     1      -8.669  10.483  65.377  1.00  0.00    -0.172 OA 
BRANCH  25  26
HETATM   26  C   UNL     1      -9.649  10.358  64.348  1.00  0.00    -0.316 C  
HETATM   27  C   UNL     1      -9.651  11.481  63.313  1.00  0.00    -0.346 C  
HETATM   28  O   UNL     1      -8.688  11.362  62.367  1.00  0.00    -0.300 OA 
HETATM   29  O   UNL     1     -10.448  12.409  63.318  1.00  0.00    -0.395 OA 
ENDBRANCH  25  26
ENDBRANCH  23  25
ENDBRANCH  22  23
ENDBRANCH  13  22
ENDBRANCH   2   3
TORSDOF 6
ENDMDL
MODEL       26
REMARK 921   NORMALIZED FREE ENERGY PREDICTED BY IDOCK:   -6.50 KCAL/MOL
REMARK 922        TOTAL FREE ENERGY PREDICTED BY IDOCK:   -9.93 KCAL/MOL
REMARK 923 INTER-LIGAND FREE ENERGY PREDICTED BY IDOCK:   -8.72 KCAL/MOL
REMARK 924 INTRA-LIGAND FREE ENERGY PREDICTED BY IDOCK:   -1.21 KCAL/MOL
REMARK 927      BINDING AFFINITY PREDICTED BY RF-SCORE:    0.00 PKD
ROOT
HETATM    1  C   UNL     1      -8.701   9.783  65.053  1.00  0.00    -0.174 C  
HETATM    2  O   UNL     1      -9.197  10.974  65.653  1.00  0.00    -0.198 OA 
ENDROOT
BRANCH   2   3
HETATM    3  C   UNL     1      -9.896  10.840  66.821  1.00  0.00    -0.193 A  
HETATM    4  C   UNL     1     -10.436  11.882  67.578  1.00  0.00    -0.233 A  
HETATM    5  C   UNL     1     -11.107  11.608  68.796  1.00  0.00    -0.283 A  
HETATM    6  C   UNL     1     -11.191  10.287  69.246  1.00  0.00    -0.228 A  
HETATM    7  N   UNL     1     -11.763  10.296  70.531  1.00  0.00    -0.306 N  
HETATM    8  C   UNL     1     -10.758   9.227  68.423  1.00  0.00    -0.192 A  
HETATM    9  C   UNL     1     -11.826   9.191  71.434  1.00  0.00    -0.345 C  
HETATM   10  C   UNL     1     -10.091   9.528  67.231  1.00  0.00    -0.272 A  
HETATM   11  C   UNL     1     -12.279  11.591  70.743  1.00  0.00    -0.363 A  
HETATM   12  O   UNL     1     -12.722   9.191  72.276  1.00  0.00    -0.383 OA 
HETATM   13  C   UNL     1     -11.847  12.416  69.708  1.00  0.00    -0.387 A  
HETATM   14  C   UNL     1     -13.113  11.998  71.915  1.00  0.00    -0.475 C  
BRANCH   9  15
HETATM   15  C   UNL     1     -10.912   8.014  71.456  1.00  0.00    -0.279 A  
HETATM   16  C   UNL     1      -9.686   8.027  72.132  1.00  0.00    -0.283 A  
HETATM   17  C   UNL     1      -9.213   5.795  71.325  1.00  0.00    -0.146 A  
HETATM   18 CL   UNL     1      -8.125   4.475  71.159  1.00  0.00    -0.084 Cl 
HETATM   19  C   UNL     1      -8.824   6.930  72.038  1.00  0.00    -0.135 A  
HETATM   20  C   UNL     1     -10.475   5.730  70.740  1.00  0.00    -0.324 A  
HETATM   21  C   UNL     1     -11.324   6.838  70.807  1.00  0.00    -0.374 A  
ENDBRANCH   9  15
BRANCH  13  22
HETATM   22  C   UNL     1     -12.203  13.865  69.527  1.00  0.00    -0.356 C  
BRANCH  22  23
HETATM   23  C   UNL     1     -11.123  14.844  69.915  1.00  0.00    -0.259 C  
HETATM   24  O   UNL     1     -10.355  15.383  69.122  1.00  0.00    -0.217 OA 
BRANCH  23  25
HETATM   25  O   UNL     1     -11.131  15.119  71.246  1.00  0.00    -0.316 OA 
BRANCH  25  26
HETATM   26  C   UNL     1     -12.040  16.147  71.635  1.00  0.00    -0.418 C  
HETATM   27  C   UNL     1     -13.258  15.674  72.423  1.00  0.00    -0.474 C  
HETATM   28  O   UNL     1     -13.011  15.440  73.735  1.00  0.00    -0.515 OA 
HETATM   29  O   UNL     1     -14.368  15.520  71.932  1.00  0.00    -0.509 OA 
ENDBRANCH  25  26
ENDBRANCH  23  25
ENDBRANCH  22  23
ENDBRANCH  13  22
ENDBRANCH   2   3
TORSDOF 6
ENDMDL
MODEL       27
REMARK 921   NORMALIZED FREE ENERGY PREDICTED BY IDOCK:   -6.48 KCAL/MOL
REMARK 922        TOTAL FREE ENERGY PREDICTED BY IDOCK:   -9.90 KCAL/MOL
REMARK 923 INTER-LIGAND FREE ENERGY PREDICTED BY IDOCK:   -8.51 KCAL/MOL
REMARK 924 INTRA-LIGAND FREE ENERGY PREDICTED BY IDOCK:   -1.39 KCAL/MOL
REMARK 927      BINDING AFFINITY PREDICTED BY RF-SCORE:    0.00 PKD
ROOT
HETATM    1  C   UNL     1     -11.834   6.699  71.388  1.00  0.00    -0.337 C  
HETATM    2  O   UNL     1     -11.263   7.931  71.810  1.00  0.00    -0.245 OA 
ENDROOT
BRANCH   2   3
HETATM    3  C   UNL     1     -11.395   9.001  70.968  1.00  0.00    -0.297 A  
HETATM    4  C   UNL     1     -10.810   9.132  69.707  1.00  0.00    -0.224 A  
HETATM    5  C   UNL     1     -10.997  10.316  68.950  1.00  0.00    -0.279 A  
HETATM    6  C   UNL     1     -11.746  11.363  69.496  1.00  0.00    -0.348 A  
HETATM    7  N   UNL     1     -11.658  12.465  68.626  1.00  0.00    -0.296 N  
HETATM    8  C   UNL     1     -12.439  11.182  70.710  1.00  0.00    -0.479 A  
HETATM    9  C   UNL     1     -12.089  13.797  68.907  1.00  0.00    -0.313 C  
HETATM   10  C   UNL     1     -12.228  10.008  71.440  1.00  0.00    -0.510 A  
HETATM   11  C   UNL     1     -11.090  11.997  67.424  1.00  0.00    -0.281 A  
HETATM   12  O   UNL     1     -12.385  14.516  67.954  1.00  0.00    -0.188 OA 
HETATM   13  C   UNL     1     -10.640  10.694  67.623  1.00  0.00    -0.288 A  
HETATM   14  C   UNL     1     -10.962  12.799  66.170  1.00  0.00    -0.310 C  
BRANCH   9  15
HETATM   15  C   UNL     1     -12.230  14.415  70.257  1.00  0.00    -0.397 A  
HETATM   16  C   UNL     1     -11.146  14.970  70.946  1.00  0.00    -0.225 A  
HETATM   17  C   UNL     1     -12.580  15.432  72.840  1.00  0.00    -0.419 A  
HETATM   18 CL   UNL     1     -12.773  15.960  74.464  1.00  0.00    -0.556 Cl 
HETATM   19  C   UNL     1     -11.316  15.447  72.249  1.00  0.00    -0.421 A  
HETATM   20  C   UNL     1     -13.685  14.981  72.123  1.00  0.00    -0.559 A  
HETATM   21  C   UNL     1     -13.511  14.474  70.832  1.00  0.00    -0.266 A  
ENDBRANCH   9  15
BRANCH  13  22
HETATM   22  C   UNL     1     -10.006   9.811  66.585  1.00  0.00    -0.292 C  
BRANCH  22  23
HETATM   23  C   UNL     1      -8.499   9.770  66.610  1.00  0.00    -0.124 C  
HETATM   24  O   UNL     1      -7.834   8.774  66.886  1.00  0.00    -0.099 OA 
BRANCH  23  25
HETATM   25  O   UNL     1      -7.945  10.952  66.232  1.00  0.00    -0.155 OA 
BRANCH  25  26
HETATM   26  C   UNL     1      -6.893  11.413  67.078  1.00  0.00    -0.137 C  
HETATM   27  C   UNL     1      -7.048  12.844  67.587  1.00  0.00    -0.151 C  
HETATM   28  O   UNL     1      -7.901  12.970  68.632  1.00  0.00    -0.124 OA 
HETATM   29  O   UNL     1      -6.457  13.803  67.110  1.00  0.00    -0.193 OA 
ENDBRANCH  25  26
ENDBRANCH  23  25
ENDBRANCH  22  23
ENDBRANCH  13  22
ENDBRANCH   2   3
TORSDOF 6
ENDMDL
MODEL       28
REMARK 921   NORMALIZED FREE ENERGY PREDICTED BY IDOCK:   -6.44 KCAL/MOL
REMARK 922        TOTAL FREE ENERGY PREDICTED BY IDOCK:   -9.85 KCAL/MOL
REMARK 923 INTER-LIGAND FREE ENERGY PREDICTED BY IDOCK:   -8.60 KCAL/MOL
REMARK 924 INTRA-LIGAND FREE ENERGY PREDICTED BY IDOCK:   -1.25 KCAL/MOL
REMARK 927      BINDING AFFINITY PREDICTED BY RF-SCORE:    0.00 PKD
ROOT
HETATM    1  C   UNL     1      -7.254   8.395  66.160  1.00  0.00    -0.077 C  
HETATM    2  O   UNL     1      -8.183   9.391  65.752  1.00  0.00    -0.112 OA 
ENDROOT
BRANCH   2   3
HETATM    3  C   UNL     1      -9.034   9.880  66.705  1.00  0.00    -0.139 A  
HETATM    4  C   UNL     1      -9.203  11.224  67.044  1.00  0.00    -0.173 A  
HETATM    5  C   UNL     1     -10.094  11.593  68.083  1.00  0.00    -0.202 A  
HETATM    6  C   UNL     1     -10.775  10.594  68.786  1.00  0.00    -0.215 A  
HETATM    7  N   UNL     1     -11.469  11.200  69.849  1.00  0.00    -0.296 N  
HETATM    8  C   UNL     1     -10.700   9.252  68.361  1.00  0.00    -0.192 A  
HETATM    9  C   UNL     1     -12.106  10.524  70.933  1.00  0.00    -0.383 C  
HETATM   10  C   UNL     1      -9.806   8.915  67.340  1.00  0.00    -0.247 A  
HETATM   11  C   UNL     1     -11.435  12.591  69.623  1.00  0.00    -0.185 A  
HETATM   12  O   UNL     1     -13.034  11.099  71.499  1.00  0.00    -0.429 OA 
HETATM   13  C   UNL     1     -10.560  12.849  68.571  1.00  0.00    -0.270 A  
HETATM   14  C   UNL     1     -12.186  13.605  70.422  1.00  0.00    -0.434 C  
BRANCH   9  15
HETATM   15  C   UNL     1     -11.768   9.168  71.452  1.00  0.00    -0.413 A  
HETATM   16  C   UNL     1     -10.549   8.887  72.080  1.00  0.00    -0.388 A  
HETATM   17  C   UNL     1     -11.180   6.558  72.272  1.00  0.00    -0.273 A  
HETATM   18 CL   UNL     1     -10.776   4.938  72.680  1.00  0.00    -0.270 Cl 
HETATM   19  C   UNL     1     -10.243   7.576  72.459  1.00  0.00    -0.283 A  
HETATM   20  C   UNL     1     -12.437   6.848  71.747  1.00  0.00    -0.397 A  
HETATM   21  C   UNL     1     -12.731   8.151  71.339  1.00  0.00    -0.283 A  
ENDBRANCH   9  15
BRANCH  13  22
HETATM   22  C   UNL     1     -10.262  14.199  67.982  1.00  0.00    -0.232 C  
BRANCH  22  23
HETATM   23  C   UNL     1     -11.162  14.616  66.846  1.00  0.00    -0.343 C  
HETATM   24  O   UNL     1     -12.366  14.835  66.956  1.00  0.00    -0.132 OA 
BRANCH  23  25
HETATM   25  O   UNL     1     -10.479  14.786  65.683  1.00  0.00    -0.306 OA 
BRANCH  25  26
HETATM   26  C   UNL     1     -10.439  13.632  64.845  1.00  0.00    -0.409 C  
HETATM   27  C   UNL     1     -11.798  13.015  64.524  1.00  0.00    -0.377 C  
HETATM   28  O   UNL     1     -12.482  13.661  63.549  1.00  0.00    -0.736 OA 
HETATM   29  O   UNL     1     -12.243  12.022  65.083  1.00  0.00    -0.403 OA 
ENDBRANCH  25  26
ENDBRANCH  23  25
ENDBRANCH  22  23
ENDBRANCH  13  22
ENDBRANCH   2   3
TORSDOF 6
ENDMDL
MODEL       29
REMARK 921   NORMALIZED FREE ENERGY PREDICTED BY IDOCK:   -6.43 KCAL/MOL
REMARK 922        TOTAL FREE ENERGY PREDICTED BY IDOCK:   -9.84 KCAL/MOL
REMARK 923 INTER-LIGAND FREE ENERGY PREDICTED BY IDOCK:   -8.59 KCAL/MOL
REMARK 924 INTRA-LIGAND FREE ENERGY PREDICTED BY IDOCK:   -1.26 KCAL/MOL
REMARK 927      BINDING AFFINITY PREDICTED BY RF-SCORE:    0.00 PKD
ROOT
HETATM    1  C   UNL     1      -5.758  14.912  70.498  1.00  0.00    -0.147 C  
HETATM    2  O   UNL     1      -6.037  15.488  69.228  1.00  0.00    -0.107 OA 
ENDROOT
BRANCH   2   3
HETATM    3  C   UNL     1      -7.137  15.025  68.560  1.00  0.00    -0.110 A  
HETATM    4  C   UNL     1      -7.983  15.782  67.747  1.00  0.00    -0.155 A  
HETATM    5  C   UNL     1      -9.116  15.184  67.141  1.00  0.00    -0.226 A  
HETATM    6  C   UNL     1      -9.395  13.838  67.395  1.00  0.00    -0.226 A  
HETATM    7  N   UNL     1     -10.636  13.528  66.809  1.00  0.00    -0.271 N  
HETATM    8  C   UNL     1      -8.475  13.045  68.110  1.00  0.00    -0.176 A  
HETATM    9  C   UNL     1     -11.391  12.333  67.016  1.00  0.00    -0.334 C  
HETATM   10  C   UNL     1      -7.370  13.663  68.705  1.00  0.00    -0.093 A  
HETATM   11  C   UNL     1     -10.974  14.606  65.967  1.00  0.00    -0.325 A  
HETATM   12  O   UNL     1     -12.173  11.991  66.130  1.00  0.00    -0.552 OA 
HETATM   13  C   UNL     1     -10.077  15.646  66.193  1.00  0.00    -0.333 A  
HETATM   14  C   UNL     1     -12.136  14.625  65.027  1.00  0.00    -0.349 C  
BRANCH   9  15
HETATM   15  C   UNL     1     -11.322  11.437  68.205  1.00  0.00    -0.354 A  
HETATM   16  C   UNL     1     -10.702  10.182  68.165  1.00  0.00    -0.285 A  
HETATM   17  C   UNL     1     -11.362   9.779  70.458  1.00  0.00    -0.314 A  
HETATM   18 CL   UNL     1     -11.478   8.719  71.806  1.00  0.00    -0.388 Cl 
HETATM   19  C   UNL     1     -10.752   9.342  69.282  1.00  0.00    -0.228 A  
HETATM   20  C   UNL     1     -11.887  11.066  70.542  1.00  0.00    -0.464 A  
HETATM   21  C   UNL     1     -11.865  11.895  69.417  1.00  0.00    -0.389 A  
ENDBRANCH   9  15
BRANCH  13  22
HETATM   22  C   UNL     1     -10.054  16.965  65.475  1.00  0.00    -0.081 C  
BRANCH  22  23
HETATM   23  C   UNL     1     -10.209  18.179  66.357  1.00  0.00    -0.399 C  
HETATM   24  O   UNL     1     -10.856  18.202  67.402  1.00  0.00    -0.374 OA 
BRANCH  23  25
HETATM   25  O   UNL     1      -9.498  19.243  65.899  1.00  0.00    -0.429 OA 
BRANCH  25  26
HETATM   26  C   UNL     1      -8.116  19.228  66.251  1.00  0.00    -0.312 C  
HETATM   27  C   UNL     1      -7.736  20.117  67.433  1.00  0.00    -0.306 C  
HETATM   28  O   UNL     1      -8.018  19.576  68.643  1.00  0.00    -0.350 OA 
HETATM   29  O   UNL     1      -7.218  21.218  67.317  1.00  0.00    -0.508 OA 
ENDBRANCH  25  26
ENDBRANCH  23  25
ENDBRANCH  22  23
ENDBRANCH  13  22
ENDBRANCH   2   3
TORSDOF 6
ENDMDL
MODEL       30
REMARK 921   NORMALIZED FREE ENERGY PREDICTED BY IDOCK:   -6.42 KCAL/MOL
REMARK 922        TOTAL FREE ENERGY PREDICTED BY IDOCK:   -9.82 KCAL/MOL
REMARK 923 INTER-LIGAND FREE ENERGY PREDICTED BY IDOCK:   -8.46 KCAL/MOL
REMARK 924 INTRA-LIGAND FREE ENERGY PREDICTED BY IDOCK:   -1.35 KCAL/MOL
REMARK 927      BINDING AFFINITY PREDICTED BY RF-SCORE:    0.00 PKD
ROOT
HETATM    1  C   UNL     1     -13.537   9.286  72.539  1.00  0.00    -0.413 C  
HETATM    2  O   UNL     1     -13.082  10.551  72.078  1.00  0.00    -0.467 OA 
ENDROOT
BRANCH   2   3
HETATM    3  C   UNL     1     -12.369  10.571  70.910  1.00  0.00    -0.390 A  
HETATM    4  C   UNL     1     -12.512  11.499  69.877  1.00  0.00    -0.159 A  
HETATM    5  C   UNL     1     -11.734  11.382  68.697  1.00  0.00    -0.394 A  
HETATM    6  C   UNL     1     -10.849  10.308  68.568  1.00  0.00    -0.240 A  
HETATM    7  N   UNL     1     -10.316  10.332  67.266  1.00  0.00    -0.218 N  
HETATM    8  C   UNL     1     -10.614   9.446  69.659  1.00  0.00    -0.239 A  
HETATM    9  C   UNL     1      -9.548   9.297  66.650  1.00  0.00    -0.204 C  
HETATM   10  C   UNL     1     -11.403   9.579  70.806  1.00  0.00    -0.387 A  
HETATM   11  C   UNL     1     -10.664  11.576  66.702  1.00  0.00    -0.268 A  
HETATM   12  O   UNL     1      -8.779   9.617  65.746  1.00  0.00    -0.137 OA 
HETATM   13  C   UNL     1     -11.568  12.211  67.549  1.00  0.00    -0.413 A  
HETATM   14  C   UNL     1     -10.166  12.088  65.389  1.00  0.00    -0.295 C  
BRANCH   9  15
HETATM   15  C   UNL     1      -9.574   7.848  67.001  1.00  0.00    -0.247 A  
HETATM   16  C   UNL     1     -10.732   7.069  66.892  1.00  0.00    -0.376 A  
HETATM   17  C   UNL     1      -9.545   5.170  67.810  1.00  0.00    -0.138 A  
HETATM   18 CL   UNL     1      -9.556   3.557  68.404  1.00  0.00    -0.201 Cl 
HETATM   19  C   UNL     1     -10.724   5.740  67.328  1.00  0.00    -0.345 A  
HETATM   20  C   UNL     1      -8.362   5.904  67.821  1.00  0.00    -0.108 A  
HETATM   21  C   UNL     1      -8.376   7.242  67.416  1.00  0.00    -0.119 A  
ENDBRANCH   9  15
BRANCH  13  22
HETATM   22  C   UNL     1     -12.161  13.576  67.344  1.00  0.00    -0.360 C  
BRANCH  22  23
HETATM   23  C   UNL     1     -11.457  14.697  68.067  1.00  0.00    -0.324 C  
HETATM   24  O   UNL     1     -10.456  15.275  67.649  1.00  0.00    -0.254 OA 
BRANCH  23  25
HETATM   25  O   UNL     1     -12.090  15.045  69.218  1.00  0.00    -0.298 OA 
BRANCH  25  26
HETATM   26  C   UNL     1     -11.272  14.993  70.385  1.00  0.00    -0.254 C  
HETATM   27  C   UNL     1     -12.005  15.224  71.704  1.00  0.00    -0.372 C  
HETATM   28  O   UNL     1     -12.674  14.138  72.162  1.00  0.00    -0.332 OA 
HETATM   29  O   UNL     1     -11.996  16.287  72.309  1.00  0.00    -0.511 OA 
ENDBRANCH  25  26
ENDBRANCH  23  25
ENDBRANCH  22  23
ENDBRANCH  13  22
ENDBRANCH   2   3
TORSDOF 6
ENDMDL
MODEL       31
REMARK 921   NORMALIZED FREE ENERGY PREDICTED BY IDOCK:   -6.41 KCAL/MOL
REMARK 922        TOTAL FREE ENERGY PREDICTED BY IDOCK:   -9.82 KCAL/MOL
REMARK 923 INTER-LIGAND FREE ENERGY PREDICTED BY IDOCK:   -8.55 KCAL/MOL
REMARK 924 INTRA-LIGAND FREE ENERGY PREDICTED BY IDOCK:   -1.27 KCAL/MOL
REMARK 927      BINDING AFFINITY PREDICTED BY RF-SCORE:    0.00 PKD
ROOT
HETATM    1  C   UNL     1     -12.862  12.019  63.383  1.00  0.00    -0.291 C  
HETATM    2  O   UNL     1     -12.980  12.525  64.707  1.00  0.00    -0.827 OA 
ENDROOT
BRANCH   2   3
HETATM    3  C   UNL     1     -11.820  12.792  65.379  1.00  0.00    -0.415 A  
HETATM    4  C   UNL     1     -11.188  11.948  66.294  1.00  0.00    -0.392 A  
HETATM    5  C   UNL     1     -10.004  12.366  66.953  1.00  0.00    -0.223 A  
HETATM    6  C   UNL     1      -9.498  13.645  66.703  1.00  0.00    -0.277 A  
HETATM    7  N   UNL     1      -8.421  13.871  67.579  1.00  0.00    -0.183 N  
HETATM    8  C   UNL     1     -10.063  14.445  65.689  1.00  0.00    -0.377 A  
HETATM    9  C   UNL     1      -7.768  15.120  67.807  1.00  0.00    -0.149 C  
HETATM   10  C   UNL     1     -11.236  14.012  65.062  1.00  0.00    -0.352 A  
HETATM   11  C   UNL     1      -8.100  12.630  68.164  1.00  0.00    -0.164 A  
HETATM   12  O   UNL     1      -6.604  15.093  68.204  1.00  0.00    -0.103 OA 
HETATM   13  C   UNL     1      -9.087  11.709  67.825  1.00  0.00    -0.175 A  
HETATM   14  C   UNL     1      -6.913  12.379  69.038  1.00  0.00    -0.071 C  
BRANCH   9  15
HETATM   15  C   UNL     1      -8.354  16.476  67.601  1.00  0.00    -0.175 A  
HETATM   16  C   UNL     1      -7.965  17.310  66.546  1.00  0.00    -0.318 A  
HETATM   17  C   UNL     1      -9.422  19.052  67.381  1.00  0.00    -0.301 A  
HETATM   18 CL   UNL     1      -9.997  20.670  67.306  1.00  0.00    -0.547 Cl 
HETATM   19  C   UNL     1      -8.474  18.609  66.457  1.00  0.00    -0.302 A  
HETATM   20  C   UNL     1      -9.895  18.194  68.370  1.00  0.00    -0.380 A  
HETATM   21  C   UNL     1      -9.363  16.906  68.479  1.00  0.00    -0.259 A  
ENDBRANCH   9  15
BRANCH  13  22
HETATM   22  C   UNL     1      -9.108  10.256  68.209  1.00  0.00    -0.139 C  
BRANCH  22  23
HETATM   23  C   UNL     1      -9.729   9.955  69.550  1.00  0.00    -0.220 C  
HETATM   24  O   UNL     1      -9.093   9.692  70.568  1.00  0.00    -0.242 OA 
BRANCH  23  25
HETATM   25  O   UNL     1     -11.084  10.067  69.527  1.00  0.00    -0.233 OA 
BRANCH  25  26
HETATM   26  C   UNL     1     -11.658  10.564  70.734  1.00  0.00    -0.338 C  
HETATM   27  C   UNL     1     -12.514   9.563  71.507  1.00  0.00    -0.376 C  
HETATM   28  O   UNL     1     -11.799   8.682  72.248  1.00  0.00    -0.367 OA 
HETATM   29  O   UNL     1     -13.736   9.548  71.477  1.00  0.00    -0.353 OA 
ENDBRANCH  25  26
ENDBRANCH  23  25
ENDBRANCH  22  23
ENDBRANCH  13  22
ENDBRANCH   2   3
TORSDOF 6
ENDMDL
MODEL       32
REMARK 921   NORMALIZED FREE ENERGY PREDICTED BY IDOCK:   -6.39 KCAL/MOL
REMARK 922        TOTAL FREE ENERGY PREDICTED BY IDOCK:   -9.78 KCAL/MOL
REMARK 923 INTER-LIGAND FREE ENERGY PREDICTED BY IDOCK:   -8.75 KCAL/MOL
REMARK 924 INTRA-LIGAND FREE ENERGY PREDICTED BY IDOCK:   -1.04 KCAL/MOL
REMARK 927      BINDING AFFINITY PREDICTED BY RF-SCORE:    0.00 PKD
ROOT
HETATM    1  C   UNL     1      -9.278   9.773  65.043  1.00  0.00    -0.249 C  
HETATM    2  O   UNL     1      -9.793  11.089  65.206  1.00  0.00    -0.228 OA 
ENDROOT
BRANCH   2   3
HETATM    3  C   UNL     1     -10.416  11.374  66.389  1.00  0.00    -0.254 A  
HETATM    4  C   UNL     1     -10.522  12.635  66.978  1.00  0.00    -0.244 A  
HETATM    5  C   UNL     1     -11.163  12.787  68.234  1.00  0.00    -0.308 A  
HETATM    6  C   UNL     1     -11.656  11.655  68.890  1.00  0.00    -0.314 A  
HETATM    7  N   UNL     1     -12.103  12.047  70.165  1.00  0.00    -0.321 N  
HETATM    8  C   UNL     1     -11.661  10.404  68.239  1.00  0.00    -0.100 A  
HETATM    9  C   UNL     1     -12.473  11.173  71.233  1.00  0.00    -0.360 C  
HETATM   10  C   UNL     1     -11.013  10.282  67.006  1.00  0.00    -0.189 A  
HETATM   11  C   UNL     1     -12.138  13.455  70.174  1.00  0.00    -0.344 A  
HETATM   12  O   UNL     1     -13.259  11.603  72.076  1.00  0.00    -0.501 OA 
HETATM   13  C   UNL     1     -11.524  13.923  69.016  1.00  0.00    -0.341 A  
HETATM   14  C   UNL     1     -12.706  14.289  71.278  1.00  0.00    -0.427 C  
BRANCH   9  15
HETATM   15  C   UNL     1     -12.010   9.770  71.429  1.00  0.00    -0.493 A  
HETATM   16  C   UNL     1     -10.655   9.435  71.537  1.00  0.00    -0.331 A  
HETATM   17  C   UNL     1     -11.241   7.090  71.666  1.00  0.00    -0.245 A  
HETATM   18 CL   UNL     1     -10.764   5.440  71.705  1.00  0.00    -0.289 Cl 
HETATM   19  C   UNL     1     -10.271   8.093  71.622  1.00  0.00    -0.266 A  
HETATM   20  C   UNL     1     -12.594   7.420  71.667  1.00  0.00    -0.391 A  
HETATM   21  C   UNL     1     -12.978   8.759  71.551  1.00  0.00    -0.359 A  
ENDBRANCH   9  15
BRANCH  13  22
HETATM   22  C   UNL     1     -11.383  15.364  68.612  1.00  0.00    -0.337 C  
BRANCH  22  23
HETATM   23  C   UNL     1     -10.070  16.008  68.979  1.00  0.00    -0.239 C  
HETATM   24  O   UNL     1      -9.115  15.411  69.469  1.00  0.00    -0.260 OA 
BRANCH  23  25
HETATM   25  O   UNL     1     -10.033  17.326  68.649  1.00  0.00    -0.291 OA 
BRANCH  25  26
HETATM   26  C   UNL     1      -8.881  17.720  67.907  1.00  0.00    -0.251 C  
HETATM   27  C   UNL     1      -7.829  18.492  68.700  1.00  0.00    -0.314 C  
HETATM   28  O   UNL     1      -7.030  17.709  69.464  1.00  0.00    -0.152 OA 
HETATM   29  O   UNL     1      -7.701  19.707  68.656  1.00  0.00    -0.347 OA 
ENDBRANCH  25  26
ENDBRANCH  23  25
ENDBRANCH  22  23
ENDBRANCH  13  22
ENDBRANCH   2   3
TORSDOF 6
ENDMDL
MODEL       33
REMARK 921   NORMALIZED FREE ENERGY PREDICTED BY IDOCK:   -6.35 KCAL/MOL
REMARK 922        TOTAL FREE ENERGY PREDICTED BY IDOCK:   -9.73 KCAL/MOL
REMARK 923 INTER-LIGAND FREE ENERGY PREDICTED BY IDOCK:   -8.53 KCAL/MOL
REMARK 924 INTRA-LIGAND FREE ENERGY PREDICTED BY IDOCK:   -1.20 KCAL/MOL
REMARK 927      BINDING AFFINITY PREDICTED BY RF-SCORE:    0.00 PKD
ROOT
HETATM    1  C   UNL     1     -10.177  11.159  64.106  1.00  0.00    -0.347 C  
HETATM    2  O   UNL     1      -9.441  11.485  65.278  1.00  0.00    -0.226 OA 
ENDROOT
BRANCH   2   3
HETATM    3  C   UNL     1     -10.154  11.686  66.428  1.00  0.00    -0.214 A  
HETATM    4  C   UNL     1     -10.386  12.917  67.045  1.00  0.00    -0.245 A  
HETATM    5  C   UNL     1     -11.112  12.982  68.261  1.00  0.00    -0.293 A  
HETATM    6  C   UNL     1     -11.562  11.797  68.851  1.00  0.00    -0.309 A  
HETATM    7  N   UNL     1     -12.113  12.113  70.106  1.00  0.00    -0.319 N  
HETATM    8  C   UNL     1     -11.437  10.571  68.166  1.00  0.00    -0.255 A  
HETATM    9  C   UNL     1     -12.484  11.181  71.123  1.00  0.00    -0.393 C  
HETATM   10  C   UNL     1     -10.708  10.535  66.973  1.00  0.00    -0.310 A  
HETATM   11  C   UNL     1     -12.250  13.515  70.154  1.00  0.00    -0.330 A  
HETATM   12  O   UNL     1     -13.349  11.526  71.927  1.00  0.00    -0.443 OA 
HETATM   13  C   UNL     1     -11.601  14.063  69.051  1.00  0.00    -0.345 A  
HETATM   14  C   UNL     1     -12.942  14.269  71.243  1.00  0.00    -0.422 C  
BRANCH   9  15
HETATM   15  C   UNL     1     -11.934   9.808  71.308  1.00  0.00    -0.471 A  
HETATM   16  C   UNL     1     -10.564   9.560  71.451  1.00  0.00    -0.307 A  
HETATM   17  C   UNL     1     -10.996   7.180  71.519  1.00  0.00    -0.235 A  
HETATM   18 CL   UNL     1     -10.411   5.564  71.542  1.00  0.00    -0.272 Cl 
HETATM   19  C   UNL     1     -10.094   8.246  71.522  1.00  0.00    -0.270 A  
HETATM   20  C   UNL     1     -12.367   7.420  71.486  1.00  0.00    -0.385 A  
HETATM   21  C   UNL     1     -12.836   8.733  71.382  1.00  0.00    -0.319 A  
ENDBRANCH   9  15
BRANCH  13  22
HETATM   22  C   UNL     1     -11.540  15.522  68.699  1.00  0.00    -0.379 C  
BRANCH  22  23
HETATM   23  C   UNL     1     -10.315  16.251  69.192  1.00  0.00    -0.272 C  
HETATM   24  O   UNL     1     -10.162  17.469  69.140  1.00  0.00    -0.333 OA 
BRANCH  23  25
HETATM   25  O   UNL     1      -9.412  15.412  69.765  1.00  0.00    -0.260 OA 
BRANCH  25  26
HETATM   26  C   UNL     1      -8.084  15.534  69.258  1.00  0.00    -0.248 C  
HETATM   27  C   UNL     1      -7.217  14.286  69.401  1.00  0.00    -0.051 C  
HETATM   28  O   UNL     1      -7.454  13.338  68.463  1.00  0.00    -0.109 OA 
HETATM   29  O   UNL     1      -6.373  14.141  70.275  1.00  0.00    -0.162 OA 
ENDBRANCH  25  26
ENDBRANCH  23  25
ENDBRANCH  22  23
ENDBRANCH  13  22
ENDBRANCH   2   3
TORSDOF 6
ENDMDL
MODEL       34
REMARK 921   NORMALIZED FREE ENERGY PREDICTED BY IDOCK:   -6.32 KCAL/MOL
REMARK 922        TOTAL FREE ENERGY PREDICTED BY IDOCK:   -9.69 KCAL/MOL
REMARK 923 INTER-LIGAND FREE ENERGY PREDICTED BY IDOCK:   -8.64 KCAL/MOL
REMARK 924 INTRA-LIGAND FREE ENERGY PREDICTED BY IDOCK:   -1.05 KCAL/MOL
REMARK 927      BINDING AFFINITY PREDICTED BY RF-SCORE:    0.00 PKD
ROOT
HETATM    1  C   UNL     1     -13.267  10.332  71.990  1.00  0.00    -0.411 C  
HETATM    2  O   UNL     1     -12.527  11.387  71.390  1.00  0.00    -0.335 OA 
ENDROOT
BRANCH   2   3
HETATM    3  C   UNL     1     -11.928  11.126  70.189  1.00  0.00    -0.365 A  
HETATM    4  C   UNL     1     -12.158  11.805  68.991  1.00  0.00    -0.276 A  
HETATM    5  C   UNL     1     -11.495  11.405  67.803  1.00  0.00    -0.353 A  
HETATM    6  C   UNL     1     -10.636  10.302  67.839  1.00  0.00    -0.239 A  
HETATM    7  N   UNL     1     -10.228  10.021  66.523  1.00  0.00    -0.233 N  
HETATM    8  C   UNL     1     -10.309   9.697  69.070  1.00  0.00    -0.218 A  
HETATM    9  C   UNL     1      -9.532   8.852  66.088  1.00  0.00    -0.251 C  
HETATM   10  C   UNL     1     -10.985  10.106  70.224  1.00  0.00    -0.380 A  
HETATM   11  C   UNL     1     -10.615  11.118  65.728  1.00  0.00    -0.227 A  
HETATM   12  O   UNL     1      -8.847   8.940  65.070  1.00  0.00    -0.190 OA 
HETATM   13  C   UNL     1     -11.429  11.953  66.488  1.00  0.00    -0.381 A  
HETATM   14  C   UNL     1     -10.238  11.311  64.295  1.00  0.00    -0.383 C  
BRANCH   9  15
HETATM   15  C   UNL     1      -9.538   7.518  66.755  1.00  0.00    -0.265 A  
HETATM   16  C   UNL     1     -10.717   6.799  66.984  1.00  0.00    -0.435 A  
HETATM   17  C   UNL     1      -9.452   5.085  68.133  1.00  0.00    -0.132 A  
HETATM   18 CL   UNL     1      -9.412   3.644  69.069  1.00  0.00    -0.241 Cl 
HETATM   19  C   UNL     1     -10.676   5.599  67.701  1.00  0.00    -0.260 A  
HETATM   20  C   UNL     1      -8.264   5.738  67.817  1.00  0.00    -0.101 A  
HETATM   21  C   UNL     1      -8.307   6.954  67.127  1.00  0.00    -0.121 A  
ENDBRANCH   9  15
BRANCH  13  22
HETATM   22  C   UNL     1     -12.025  13.256  66.036  1.00  0.00    -0.473 C  
BRANCH  22  23
HETATM   23  C   UNL     1     -11.063  14.416  65.977  1.00  0.00    -0.324 C  
HETATM   24  O   UNL     1     -10.301  14.640  65.040  1.00  0.00    -0.403 OA 
BRANCH  23  25
HETATM   25  O   UNL     1     -11.173  15.232  67.058  1.00  0.00    -0.330 OA 
BRANCH  25  26
HETATM   26  C   UNL     1     -10.186  16.259  67.129  1.00  0.00    -0.276 C  
HETATM   27  C   UNL     1     -10.544  17.445  68.021  1.00  0.00    -0.389 C  
HETATM   28  O   UNL     1     -10.356  17.218  69.344  1.00  0.00    -0.287 OA 
HETATM   29  O   UNL     1     -10.959  18.514  67.597  1.00  0.00    -0.355 OA 
ENDBRANCH  25  26
ENDBRANCH  23  25
ENDBRANCH  22  23
ENDBRANCH  13  22
ENDBRANCH   2   3
TORSDOF 6
ENDMDL
MODEL       35
REMARK 921   NORMALIZED FREE ENERGY PREDICTED BY IDOCK:   -6.31 KCAL/MOL
REMARK 922        TOTAL FREE ENERGY PREDICTED BY IDOCK:   -9.67 KCAL/MOL
REMARK 923 INTER-LIGAND FREE ENERGY PREDICTED BY IDOCK:   -8.64 KCAL/MOL
REMARK 924 INTRA-LIGAND FREE ENERGY PREDICTED BY IDOCK:   -1.03 KCAL/MOL
REMARK 927      BINDING AFFINITY PREDICTED BY RF-SCORE:    0.00 PKD
ROOT
HETATM    1  C   UNL     1     -12.010   6.620  71.813  1.00  0.00    -0.345 C  
HETATM    2  O   UNL     1     -11.439   7.869  72.184  1.00  0.00    -0.283 OA 
ENDROOT
BRANCH   2   3
HETATM    3  C   UNL     1     -11.520   8.887  71.274  1.00  0.00    -0.299 A  
HETATM    4  C   UNL     1     -10.900   8.923  70.024  1.00  0.00    -0.239 A  
HETATM    5  C   UNL     1     -11.036  10.062  69.191  1.00  0.00    -0.256 A  
HETATM    6  C   UNL     1     -11.768  11.161  69.650  1.00  0.00    -0.339 A  
HETATM    7  N   UNL     1     -11.628  12.204  68.717  1.00  0.00    -0.302 N  
HETATM    8  C   UNL     1     -12.496  11.075  70.855  1.00  0.00    -0.509 A  
HETATM    9  C   UNL     1     -12.029  13.562  68.904  1.00  0.00    -0.341 C  
HETATM   10  C   UNL     1     -12.336   9.943  71.661  1.00  0.00    -0.496 A  
HETATM   11  C   UNL     1     -11.044  11.647  67.562  1.00  0.00    -0.276 A  
HETATM   12  O   UNL     1     -12.282  14.227  67.901  1.00  0.00    -0.311 OA 
HETATM   13  C   UNL     1     -10.635  10.348  67.852  1.00  0.00    -0.273 A  
HETATM   14  C   UNL     1     -10.862  12.365  66.264  1.00  0.00    -0.299 C  
BRANCH   9  15
HETATM   15  C   UNL     1     -12.186  14.266  70.209  1.00  0.00    -0.407 A  
HETATM   16  C   UNL     1     -11.116  14.894  70.857  1.00  0.00    -0.144 A  
HETATM   17  C   UNL     1     -12.563  15.447  72.717  1.00  0.00    -0.400 A  
HETATM   18 CL   UNL     1     -12.769  16.079  74.302  1.00  0.00    -0.629 Cl 
HETATM   19  C   UNL     1     -11.299  15.454  72.125  1.00  0.00    -0.447 A  
HETATM   20  C   UNL     1     -13.656  14.921  72.033  1.00  0.00    -0.508 A  
HETATM   21  C   UNL     1     -13.468  14.332  70.780  1.00  0.00    -0.079 A  
ENDBRANCH   9  15
BRANCH  13  22
HETATM   22  C   UNL     1     -10.001   9.385  66.888  1.00  0.00    -0.293 C  
BRANCH  22  23
HETATM   23  C   UNL     1      -8.586   8.983  67.220  1.00  0.00    -0.114 C  
HETATM   24  O   UNL     1      -7.675   9.773  67.458  1.00  0.00    -0.094 OA 
BRANCH  23  25
HETATM   25  O   UNL     1      -8.437   7.634  67.289  1.00  0.00    -0.120 OA 
BRANCH  25  26
HETATM   26  C   UNL     1      -9.234   6.901  66.361  1.00  0.00    -0.152 C  
HETATM   27  C   UNL     1     -10.163   5.860  66.981  1.00  0.00    -0.209 C  
HETATM   28  O   UNL     1     -11.302   6.377  67.502  1.00  0.00    -0.274 OA 
HETATM   29  O   UNL     1      -9.920   4.662  67.009  1.00  0.00    -0.197 OA 
ENDBRANCH  25  26
ENDBRANCH  23  25
ENDBRANCH  22  23
ENDBRANCH  13  22
ENDBRANCH   2   3
TORSDOF 6
ENDMDL
MODEL       36
REMARK 921   NORMALIZED FREE ENERGY PREDICTED BY IDOCK:   -6.27 KCAL/MOL
REMARK 922        TOTAL FREE ENERGY PREDICTED BY IDOCK:   -9.62 KCAL/MOL
REMARK 923 INTER-LIGAND FREE ENERGY PREDICTED BY IDOCK:   -8.52 KCAL/MOL
REMARK 924 INTRA-LIGAND FREE ENERGY PREDICTED BY IDOCK:   -1.10 KCAL/MOL
REMARK 927      BINDING AFFINITY PREDICTED BY RF-SCORE:    0.00 PKD
ROOT
HETATM    1  C   UNL     1     -12.806  10.565  71.533  1.00  0.00    -0.463 C  
HETATM    2  O   UNL     1     -12.167  11.739  71.048  1.00  0.00    -0.325 OA 
ENDROOT
BRANCH   2   3
HETATM    3  C   UNL     1     -11.800  11.751  69.731  1.00  0.00    -0.349 A  
HETATM    4  C   UNL     1     -11.162  10.715  69.046  1.00  0.00    -0.324 A  
HETATM    5  C   UNL     1     -10.800  10.873  67.684  1.00  0.00    -0.317 A  
HETATM    6  C   UNL     1     -11.058  12.090  67.047  1.00  0.00    -0.298 A  
HETATM    7  N   UNL     1     -10.477  12.047  65.766  1.00  0.00    -0.245 N  
HETATM    8  C   UNL     1     -11.813  13.087  67.699  1.00  0.00    -0.401 A  
HETATM    9  C   UNL     1     -10.316  13.153  64.876  1.00  0.00    -0.334 C  
HETATM   10  C   UNL     1     -12.148  12.908  69.045  1.00  0.00    -0.198 A  
HETATM   11  C   UNL     1     -10.110  10.708  65.526  1.00  0.00    -0.280 A  
HETATM   12  O   UNL     1     -10.242  12.911  63.672  1.00  0.00    -0.361 OA 
HETATM   13  C   UNL     1     -10.261   9.986  66.707  1.00  0.00    -0.295 A  
HETATM   14  C   UNL     1      -9.603  10.182  64.222  1.00  0.00    -0.354 C  
BRANCH   9  15
HETATM   15  C   UNL     1     -10.240  14.592  65.257  1.00  0.00    -0.431 A  
HETATM   16  C   UNL     1      -9.301  15.077  66.176  1.00  0.00    -0.327 A  
HETATM   17  C   UNL     1     -10.267  17.289  66.001  1.00  0.00    -0.304 A  
HETATM   18 CL   UNL     1     -10.350  18.920  66.536  1.00  0.00    -0.457 Cl 
HETATM   19  C   UNL     1      -9.337  16.417  66.571  1.00  0.00    -0.300 A  
HETATM   20  C   UNL     1     -11.134  16.841  65.008  1.00  0.00    -0.063 A  
HETATM   21  C   UNL     1     -11.119  15.494  64.635  1.00  0.00    -0.373 A  
ENDBRANCH   9  15
BRANCH  13  22
HETATM   22  C   UNL     1     -10.017   8.514  66.879  1.00  0.00    -0.335 C  
BRANCH  22  23
HETATM   23  C   UNL     1      -8.873   8.155  67.794  1.00  0.00    -0.130 C  
HETATM   24  O   UNL     1      -7.691   8.384  67.551  1.00  0.00    -0.096 OA 
BRANCH  23  25
HETATM   25  O   UNL     1      -9.300   7.598  68.958  1.00  0.00    -0.147 OA 
BRANCH  25  26
HETATM   26  C   UNL     1     -10.350   6.645  68.810  1.00  0.00    -0.194 C  
HETATM   27  C   UNL     1     -10.521   5.679  69.979  1.00  0.00    -0.297 C  
HETATM   28  O   UNL     1     -11.188   6.202  71.036  1.00  0.00    -0.296 OA 
HETATM   29  O   UNL     1     -10.104   4.529  69.978  1.00  0.00    -0.227 OA 
ENDBRANCH  25  26
ENDBRANCH  23  25
ENDBRANCH  22  23
ENDBRANCH  13  22
ENDBRANCH   2   3
TORSDOF 6
ENDMDL
MODEL       37
REMARK 921   NORMALIZED FREE ENERGY PREDICTED BY IDOCK:   -6.24 KCAL/MOL
REMARK 922        TOTAL FREE ENERGY PREDICTED BY IDOCK:   -9.58 KCAL/MOL
REMARK 923 INTER-LIGAND FREE ENERGY PREDICTED BY IDOCK:   -8.44 KCAL/MOL
REMARK 924 INTRA-LIGAND FREE ENERGY PREDICTED BY IDOCK:   -1.14 KCAL/MOL
REMARK 927      BINDING AFFINITY PREDICTED BY RF-SCORE:    0.00 PKD
ROOT
HETATM    1  C   UNL     1      -6.110  17.076  69.422  1.00  0.00    -0.225 C  
HETATM    2  O   UNL     1      -6.214  15.663  69.299  1.00  0.00    -0.114 OA 
ENDROOT
BRANCH   2   3
HETATM    3  C   UNL     1      -7.295  15.173  68.620  1.00  0.00    -0.121 A  
HETATM    4  C   UNL     1      -8.143  15.905  67.787  1.00  0.00    -0.155 A  
HETATM    5  C   UNL     1      -9.257  15.280  67.172  1.00  0.00    -0.223 A  
HETATM    6  C   UNL     1      -9.516  13.932  67.438  1.00  0.00    -0.226 A  
HETATM    7  N   UNL     1     -10.743  13.594  66.838  1.00  0.00    -0.274 N  
HETATM    8  C   UNL     1      -8.592  13.164  68.176  1.00  0.00    -0.181 A  
HETATM    9  C   UNL     1     -11.480  12.388  67.049  1.00  0.00    -0.358 C  
HETATM   10  C   UNL     1      -7.507  13.809  68.779  1.00  0.00    -0.098 A  
HETATM   11  C   UNL     1     -11.087  14.656  65.978  1.00  0.00    -0.332 A  
HETATM   12  O   UNL     1     -12.242  12.022  66.156  1.00  0.00    -0.552 OA 
HETATM   13  C   UNL     1     -10.211  15.714  66.205  1.00  0.00    -0.327 A  
HETATM   14  C   UNL     1     -12.236  14.643  65.022  1.00  0.00    -0.323 C  
BRANCH   9  15
HETATM   15  C   UNL     1     -11.412  11.508  68.250  1.00  0.00    -0.368 A  
HETATM   16  C   UNL     1     -12.007  11.854  69.469  1.00  0.00    -0.355 A  
HETATM   17  C   UNL     1     -11.114   9.845  70.480  1.00  0.00    -0.332 A  
HETATM   18 CL   UNL     1     -10.843   8.877  71.874  1.00  0.00    -0.426 Cl 
HETATM   19  C   UNL     1     -11.829  11.038  70.590  1.00  0.00    -0.434 A  
HETATM   20  C   UNL     1     -10.610   9.439  69.247  1.00  0.00    -0.239 A  
HETATM   21  C   UNL     1     -10.760  10.269  68.133  1.00  0.00    -0.287 A  
ENDBRANCH   9  15
BRANCH  13  22
HETATM   22  C   UNL     1     -10.202  17.025  65.471  1.00  0.00    -0.111 C  
BRANCH  22  23
HETATM   23  C   UNL     1     -10.390  18.246  66.335  1.00  0.00    -0.400 C  
HETATM   24  O   UNL     1     -11.021  18.262  67.390  1.00  0.00    -0.328 OA 
BRANCH  23  25
HETATM   25  O   UNL     1      -9.727  19.328  65.849  1.00  0.00    -0.435 OA 
BRANCH  25  26
HETATM   26  C   UNL     1      -9.469  20.348  66.812  1.00  0.00    -0.341 C  
HETATM   27  C   UNL     1      -8.072  20.324  67.427  1.00  0.00    -0.336 C  
HETATM   28  O   UNL     1      -7.113  20.869  66.640  1.00  0.00    -0.247 OA 
HETATM   29  O   UNL     1      -7.824  19.864  68.533  1.00  0.00    -0.292 OA 
ENDBRANCH  25  26
ENDBRANCH  23  25
ENDBRANCH  22  23
ENDBRANCH  13  22
ENDBRANCH   2   3
TORSDOF 6
ENDMDL
MODEL       38
REMARK 921   NORMALIZED FREE ENERGY PREDICTED BY IDOCK:   -6.21 KCAL/MOL
REMARK 922        TOTAL FREE ENERGY PREDICTED BY IDOCK:   -9.53 KCAL/MOL
REMARK 923 INTER-LIGAND FREE ENERGY PREDICTED BY IDOCK:   -8.25 KCAL/MOL
REMARK 924 INTRA-LIGAND FREE ENERGY PREDICTED BY IDOCK:   -1.28 KCAL/MOL
REMARK 927      BINDING AFFINITY PREDICTED BY RF-SCORE:    0.00 PKD
ROOT
HETATM    1  C   UNL     1      -8.552   6.788  65.691  1.00  0.00    -0.117 C  
HETATM    2  O   UNL     1      -8.250   8.080  66.204  1.00  0.00    -0.105 OA 
ENDROOT
BRANCH   2   3
HETATM    3  C   UNL     1      -9.094   8.588  67.153  1.00  0.00    -0.140 A  
HETATM    4  C   UNL     1      -9.372   9.940  67.365  1.00  0.00    -0.158 A  
HETATM    5  C   UNL     1     -10.241  10.336  68.413  1.00  0.00    -0.189 A  
HETATM    6  C   UNL     1     -10.788   9.360  69.251  1.00  0.00    -0.172 A  
HETATM    7  N   UNL     1     -11.482  10.010  70.288  1.00  0.00    -0.283 N  
HETATM    8  C   UNL     1     -10.608   7.992  68.960  1.00  0.00    -0.169 A  
HETATM    9  C   UNL     1     -11.997   9.398  71.471  1.00  0.00    -0.382 C  
HETATM   10  C   UNL     1      -9.738   7.631  67.926  1.00  0.00    -0.174 A  
HETATM   11  C   UNL     1     -11.591  11.367  69.922  1.00  0.00    -0.323 A  
HETATM   12  O   UNL     1     -12.946   9.945  72.031  1.00  0.00    -0.413 OA 
HETATM   13  C   UNL     1     -10.798  11.590  68.800  1.00  0.00    -0.258 A  
HETATM   14  C   UNL     1     -12.394  12.389  70.660  1.00  0.00    -0.367 C  
BRANCH   9  15
HETATM   15  C   UNL     1     -11.506   8.139  72.102  1.00  0.00    -0.412 A  
HETATM   16  C   UNL     1     -10.360   8.099  72.904  1.00  0.00    -0.333 A  
HETATM   17  C   UNL     1     -10.598   5.701  73.130  1.00  0.00    -0.247 A  
HETATM   18 CL   UNL     1      -9.982   4.192  73.675  1.00  0.00    -0.157 Cl 
HETATM   19  C   UNL     1      -9.889   6.875  73.389  1.00  0.00    -0.247 A  
HETATM   20  C   UNL     1     -11.797   5.746  72.425  1.00  0.00    -0.227 A  
HETATM   21  C   UNL     1     -12.252   6.964  71.912  1.00  0.00    -0.370 A  
ENDBRANCH   9  15
BRANCH  13  22
HETATM   22  C   UNL     1     -10.659  12.892  68.062  1.00  0.00    -0.238 C  
BRANCH  22  23
HETATM   23  C   UNL     1     -11.856  13.291  67.235  1.00  0.00    -0.372 C  
HETATM   24  O   UNL     1     -12.328  14.425  67.197  1.00  0.00    -0.335 OA 
BRANCH  23  25
HETATM   25  O   UNL     1     -12.326  12.265  66.478  1.00  0.00    -0.504 OA 
BRANCH  25  26
HETATM   26  C   UNL     1     -12.374  12.533  65.078  1.00  0.00    -0.453 C  
HETATM   27  C   UNL     1     -11.071  12.284  64.323  1.00  0.00    -0.348 C  
HETATM   28  O   UNL     1     -10.840  10.980  64.034  1.00  0.00    -0.361 OA 
HETATM   29  O   UNL     1     -10.295  13.171  63.996  1.00  0.00    -0.396 OA 
ENDBRANCH  25  26
ENDBRANCH  23  25
ENDBRANCH  22  23
ENDBRANCH  13  22
ENDBRANCH   2   3
TORSDOF 6
ENDMDL
MODEL       39
REMARK 921   NORMALIZED FREE ENERGY PREDICTED BY IDOCK:   -6.20 KCAL/MOL
REMARK 922        TOTAL FREE ENERGY PREDICTED BY IDOCK:   -9.52 KCAL/MOL
REMARK 923 INTER-LIGAND FREE ENERGY PREDICTED BY IDOCK:   -8.27 KCAL/MOL
REMARK 924 INTRA-LIGAND FREE ENERGY PREDICTED BY IDOCK:   -1.25 KCAL/MOL
REMARK 927      BINDING AFFINITY PREDICTED BY RF-SCORE:    0.00 PKD
ROOT
HETATM    1  C   UNL     1     -13.436  13.379  72.052  1.00  0.00    -0.494 C  
HETATM    2  O   UNL     1     -12.706  12.178  71.836  1.00  0.00    -0.230 OA 
ENDROOT
BRANCH   2   3
HETATM    3  C   UNL     1     -12.214  11.963  70.578  1.00  0.00    -0.336 A  
HETATM    4  C   UNL     1     -11.624  10.785  70.118  1.00  0.00    -0.424 A  
HETATM    5  C   UNL     1     -11.117  10.707  68.795  1.00  0.00    -0.316 A  
HETATM    6  C   UNL     1     -11.185  11.835  67.972  1.00  0.00    -0.263 A  
HETATM    7  N   UNL     1     -10.490  11.552  66.782  1.00  0.00    -0.230 N  
HETATM    8  C   UNL     1     -11.891  12.980  68.393  1.00  0.00    -0.370 A  
HETATM    9  C   UNL     1     -10.130  12.496  65.772  1.00  0.00    -0.262 C  
HETATM   10  C   UNL     1     -12.372  13.032  69.705  1.00  0.00    -0.141 A  
HETATM   11  C   UNL     1     -10.243  10.165  66.770  1.00  0.00    -0.228 A  
HETATM   12  O   UNL     1      -9.965  12.074  64.628  1.00  0.00    -0.257 OA 
HETATM   13  C   UNL     1     -10.581   9.642  68.014  1.00  0.00    -0.292 A  
HETATM   14  C   UNL     1      -9.669   9.409  65.615  1.00  0.00    -0.336 C  
BRANCH   9  15
HETATM   15  C   UNL     1      -9.942  13.963  65.958  1.00  0.00    -0.325 A  
HETATM   16  C   UNL     1      -9.001  14.493  66.849  1.00  0.00    -0.267 A  
HETATM   17  C   UNL     1      -9.760  16.730  66.327  1.00  0.00    -0.297 A  
HETATM   18 CL   UNL     1      -9.720  18.421  66.631  1.00  0.00    -0.321 Cl 
HETATM   19  C   UNL     1      -8.935  15.874  67.057  1.00  0.00    -0.239 A  
HETATM   20  C   UNL     1     -10.623  16.221  65.360  1.00  0.00    -0.371 A  
HETATM   21  C   UNL     1     -10.713  14.838  65.175  1.00  0.00    -0.433 A  
ENDBRANCH   9  15
BRANCH  13  22
HETATM   22  C   UNL     1     -10.509   8.195  68.413  1.00  0.00    -0.205 C  
BRANCH  22  23
HETATM   23  C   UNL     1      -9.488   7.871  69.474  1.00  0.00    -0.160 C  
HETATM   24  O   UNL     1      -8.378   8.392  69.553  1.00  0.00    -0.116 OA 
BRANCH  23  25
HETATM   25  O   UNL     1      -9.955   6.974  70.382  1.00  0.00    -0.180 OA 
BRANCH  25  26
HETATM   26  C   UNL     1     -10.608   7.556  71.509  1.00  0.00    -0.212 C  
HETATM   27  C   UNL     1     -11.970   6.957  71.852  1.00  0.00    -0.327 C  
HETATM   28  O   UNL     1     -11.904   5.788  72.534  1.00  0.00    -0.297 OA 
HETATM   29  O   UNL     1     -13.036   7.476  71.551  1.00  0.00    -0.345 OA 
ENDBRANCH  25  26
ENDBRANCH  23  25
ENDBRANCH  22  23
ENDBRANCH  13  22
ENDBRANCH   2   3
TORSDOF 6
ENDMDL
MODEL       40
REMARK 921   NORMALIZED FREE ENERGY PREDICTED BY IDOCK:   -6.18 KCAL/MOL
REMARK 922        TOTAL FREE ENERGY PREDICTED BY IDOCK:   -9.51 KCAL/MOL
REMARK 923 INTER-LIGAND FREE ENERGY PREDICTED BY IDOCK:   -8.37 KCAL/MOL
REMARK 924 INTRA-LIGAND FREE ENERGY PREDICTED BY IDOCK:   -1.14 KCAL/MOL
REMARK 927      BINDING AFFINITY PREDICTED BY RF-SCORE:    0.00 PKD
ROOT
HETATM    1  C   UNL     1     -14.129   8.780  72.292  1.00  0.00    -0.441 C  
HETATM    2  O   UNL     1     -13.671  10.094  71.998  1.00  0.00    -0.284 OA 
ENDROOT
BRANCH   2   3
HETATM    3  C   UNL     1     -12.562  10.205  71.205  1.00  0.00    -0.386 A  
HETATM    4  C   UNL     1     -12.391  11.109  70.154  1.00  0.00    -0.373 A  
HETATM    5  C   UNL     1     -11.201  11.093  69.383  1.00  0.00    -0.334 A  
HETATM    6  C   UNL     1     -10.218  10.140  69.664  1.00  0.00    -0.242 A  
HETATM    7  N   UNL     1      -9.221  10.233  68.677  1.00  0.00    -0.151 N  
HETATM    8  C   UNL     1     -10.336   9.313  70.800  1.00  0.00    -0.348 A  
HETATM    9  C   UNL     1      -8.157   9.304  68.464  1.00  0.00    -0.106 C  
HETATM   10  C   UNL     1     -11.524   9.343  71.537  1.00  0.00    -0.467 A  
HETATM   11  C   UNL     1      -9.459  11.424  67.962  1.00  0.00    -0.181 A  
HETATM   12  O   UNL     1      -7.135   9.721  67.920  1.00  0.00    -0.081 OA 
HETATM   13  C   UNL     1     -10.692  11.938  68.353  1.00  0.00    -0.248 A  
HETATM   14  C   UNL     1      -8.546  11.997  66.927  1.00  0.00    -0.189 C  
BRANCH   9  15
HETATM   15  C   UNL     1      -8.149   7.863  68.846  1.00  0.00    -0.125 A  
HETATM   16  C   UNL     1      -8.943   6.910  68.198  1.00  0.00    -0.123 A  
HETATM   17  C   UNL     1      -8.158   5.209  69.730  1.00  0.00    -0.082 A  
HETATM   18 CL   UNL     1      -8.243   3.603  70.338  1.00  0.00    -0.067 Cl 
HETATM   19  C   UNL     1      -8.971   5.591  68.662  1.00  0.00    -0.118 A  
HETATM   20  C   UNL     1      -7.286   6.124  70.312  1.00  0.00    -0.083 A  
HETATM   21  C   UNL     1      -7.280   7.450  69.870  1.00  0.00    -0.081 A  
ENDBRANCH   9  15
BRANCH  13  22
HETATM   22  C   UNL     1     -11.310  13.218  67.865  1.00  0.00    -0.317 C  
BRANCH  22  23
HETATM   23  C   UNL     1     -11.935  13.147  66.494  1.00  0.00    -0.398 C  
HETATM   24  O   UNL     1     -12.087  12.111  65.851  1.00  0.00    -0.594 OA 
BRANCH  23  25
HETATM   25  O   UNL     1     -12.372  14.360  66.064  1.00  0.00    -0.394 OA 
BRANCH  25  26
HETATM   26  C   UNL     1     -11.851  14.765  64.800  1.00  0.00    -0.423 C  
HETATM   27  C   UNL     1     -10.867  15.931  64.846  1.00  0.00    -0.400 C  
HETATM   28  O   UNL     1      -9.612  15.581  65.215  1.00  0.00    -0.244 OA 
HETATM   29  O   UNL     1     -11.167  17.085  64.571  1.00  0.00    -1.091 OA 
ENDBRANCH  25  26
ENDBRANCH  23  25
ENDBRANCH  22  23
ENDBRANCH  13  22
ENDBRANCH   2   3
TORSDOF 6
ENDMDL
MODEL       41
REMARK 921   NORMALIZED FREE ENERGY PREDICTED BY IDOCK:   -6.16 KCAL/MOL
REMARK 922        TOTAL FREE ENERGY PREDICTED BY IDOCK:   -9.47 KCAL/MOL
REMARK 923 INTER-LIGAND FREE ENERGY PREDICTED BY IDOCK:   -7.95 KCAL/MOL
REMARK 924 INTRA-LIGAND FREE ENERGY PREDICTED BY IDOCK:   -1.52 KCAL/MOL
REMARK 927      BINDING AFFINITY PREDICTED BY RF-SCORE:    0.00 PKD
ROOT
HETATM    1  C   UNL     1      -5.349  14.137  70.833  1.00  0.00    -0.144 C  
HETATM    2  O   UNL     1      -5.303  13.909  69.430  1.00  0.00    -0.082 OA 
ENDROOT
BRANCH   2   3
HETATM    3  C   UNL     1      -6.494  13.694  68.793  1.00  0.00    -0.097 A  
HETATM    4  C   UNL     1      -7.201  14.630  68.036  1.00  0.00    -0.147 A  
HETATM    5  C   UNL     1      -8.450  14.288  67.459  1.00  0.00    -0.195 A  
HETATM    6  C   UNL     1      -8.980  13.014  67.686  1.00  0.00    -0.192 A  
HETATM    7  N   UNL     1     -10.277  12.975  67.141  1.00  0.00    -0.241 N  
HETATM    8  C   UNL     1      -8.211  12.032  68.342  1.00  0.00    -0.151 A  
HETATM    9  C   UNL     1     -11.245  11.945  67.344  1.00  0.00    -0.305 C  
HETATM   10  C   UNL     1      -6.987  12.400  68.910  1.00  0.00    -0.091 A  
HETATM   11  C   UNL     1     -10.423  14.128  66.343  1.00  0.00    -0.283 A  
HETATM   12  O   UNL     1     -12.108  11.794  66.481  1.00  0.00    -0.498 OA 
HETATM   13  C   UNL     1      -9.331  14.962  66.563  1.00  0.00    -0.308 A  
HETATM   14  C   UNL     1     -11.589  14.407  65.451  1.00  0.00    -0.347 C  
BRANCH   9  15
HETATM   15  C   UNL     1     -11.315  11.012  68.505  1.00  0.00    -0.355 A  
HETATM   16  C   UNL     1     -11.997  11.331  69.685  1.00  0.00    -0.423 A  
HETATM   17  C   UNL     1     -11.273   9.243  70.672  1.00  0.00    -0.276 A  
HETATM   18 CL   UNL     1     -11.160   8.206  72.037  1.00  0.00    -0.344 Cl 
HETATM   19  C   UNL     1     -11.947  10.460  70.778  1.00  0.00    -0.462 A  
HETATM   20  C   UNL     1     -10.683   8.869  69.467  1.00  0.00    -0.206 A  
HETATM   21  C   UNL     1     -10.705   9.752  68.384  1.00  0.00    -0.262 A  
ENDBRANCH   9  15
BRANCH  13  22
HETATM   22  C   UNL     1      -9.072  16.276  65.881  1.00  0.00    -0.246 C  
BRANCH  22  23
HETATM   23  C   UNL     1      -9.693  17.478  66.548  1.00  0.00    -0.295 C  
HETATM   24  O   UNL     1     -10.490  18.240  66.006  1.00  0.00    -0.450 OA 
BRANCH  23  25
HETATM   25  O   UNL     1      -9.318  17.597  67.848  1.00  0.00    -0.258 OA 
BRANCH  25  26
HETATM   26  C   UNL     1     -10.400  17.713  68.770  1.00  0.00    -0.348 C  
HETATM   27  C   UNL     1     -10.951  16.391  69.296  1.00  0.00    -0.322 C  
HETATM   28  O   UNL     1     -10.210  15.838  70.287  1.00  0.00    -0.256 OA 
HETATM   29  O   UNL     1     -11.973  15.865  68.878  1.00  0.00    -0.370 OA 
ENDBRANCH  25  26
ENDBRANCH  23  25
ENDBRANCH  22  23
ENDBRANCH  13  22
ENDBRANCH   2   3
TORSDOF 6
ENDMDL
MODEL       42
REMARK 921   NORMALIZED FREE ENERGY PREDICTED BY IDOCK:   -6.13 KCAL/MOL
REMARK 922        TOTAL FREE ENERGY PREDICTED BY IDOCK:   -9.43 KCAL/MOL
REMARK 923 INTER-LIGAND FREE ENERGY PREDICTED BY IDOCK:   -8.37 KCAL/MOL
REMARK 924 INTRA-LIGAND FREE ENERGY PREDICTED BY IDOCK:   -1.06 KCAL/MOL
REMARK 927      BINDING AFFINITY PREDICTED BY RF-SCORE:    0.00 PKD
ROOT
HETATM    1  C   UNL     1      -7.283  11.204  68.878  1.00  0.00    -0.106 C  
HETATM    2  O   UNL     1      -6.910  12.575  68.945  1.00  0.00    -0.092 OA 
ENDROOT
BRANCH   2   3
HETATM    3  C   UNL     1      -7.694  13.469  68.268  1.00  0.00    -0.137 A  
HETATM    4  C   UNL     1      -8.475  13.190  67.145  1.00  0.00    -0.173 A  
HETATM    5  C   UNL     1      -9.213  14.223  66.513  1.00  0.00    -0.259 A  
HETATM    6  C   UNL     1      -9.123  15.527  67.008  1.00  0.00    -0.230 A  
HETATM    7  N   UNL     1      -9.818  16.379  66.130  1.00  0.00    -0.318 N  
HETATM    8  C   UNL     1      -8.437  15.783  68.213  1.00  0.00    -0.164 A  
HETATM    9  C   UNL     1      -9.789  17.807  66.142  1.00  0.00    -0.244 C  
HETATM   10  C   UNL     1      -7.710  14.748  68.809  1.00  0.00    -0.136 A  
HETATM   11  C   UNL     1     -10.561  15.556  65.260  1.00  0.00    -0.424 A  
HETATM   12  O   UNL     1     -10.755  18.402  65.668  1.00  0.00    -0.548 OA 
HETATM   13  C   UNL     1     -10.167  14.235  65.453  1.00  0.00    -0.395 A  
HETATM   14  C   UNL     1     -11.567  16.047  64.270  1.00  0.00    -0.139 C  
BRANCH   9  15
HETATM   15  C   UNL     1      -8.700  18.666  66.689  1.00  0.00    -0.307 A  
HETATM   16  C   UNL     1      -7.591  19.049  65.925  1.00  0.00    -0.222 A  
HETATM   17  C   UNL     1      -6.647  20.170  67.850  1.00  0.00    -0.263 A  
HETATM   18 CL   UNL     1      -5.339  21.003  68.591  1.00  0.00    -0.363 Cl 
HETATM   19  C   UNL     1      -6.550  19.772  66.516  1.00  0.00    -0.203 A  
HETATM   20  C   UNL     1      -7.794  19.887  68.588  1.00  0.00    -0.204 A  
HETATM   21  C   UNL     1      -8.820  19.136  68.007  1.00  0.00    -0.353 A  
ENDBRANCH   9  15
BRANCH  13  22
HETATM   22  C   UNL     1     -10.738  13.032  64.756  1.00  0.00    -0.370 C  
BRANCH  22  23
HETATM   23  C   UNL     1     -12.107  12.607  65.226  1.00  0.00    -0.467 C  
HETATM   24  O   UNL     1     -13.045  12.336  64.480  1.00  0.00    -0.791 OA 
BRANCH  23  25
HETATM   25  O   UNL     1     -12.176  12.496  66.578  1.00  0.00    -0.569 OA 
BRANCH  25  26
HETATM   26  C   UNL     1     -11.523  11.347  67.113  1.00  0.00    -0.190 C  
HETATM   27  C   UNL     1     -11.509  11.257  68.637  1.00  0.00    -0.297 C  
HETATM   28  O   UNL     1     -12.669  10.808  69.174  1.00  0.00    -0.225 OA 
HETATM   29  O   UNL     1     -10.544  11.553  69.327  1.00  0.00    -0.181 OA 
ENDBRANCH  25  26
ENDBRANCH  23  25
ENDBRANCH  22  23
ENDBRANCH  13  22
ENDBRANCH   2   3
TORSDOF 6
ENDMDL
MODEL       43
REMARK 921   NORMALIZED FREE ENERGY PREDICTED BY IDOCK:   -6.10 KCAL/MOL
REMARK 922        TOTAL FREE ENERGY PREDICTED BY IDOCK:   -9.39 KCAL/MOL
REMARK 923 INTER-LIGAND FREE ENERGY PREDICTED BY IDOCK:   -8.15 KCAL/MOL
REMARK 924 INTRA-LIGAND FREE ENERGY PREDICTED BY IDOCK:   -1.25 KCAL/MOL
REMARK 927      BINDING AFFINITY PREDICTED BY RF-SCORE:    0.00 PKD
ROOT
HETATM    1  C   UNL     1     -13.726  15.579  72.798  1.00  0.00    -0.553 C  
HETATM    2  O   UNL     1     -12.704  14.627  72.532  1.00  0.00    -0.343 OA 
ENDROOT
BRANCH   2   3
HETATM    3  C   UNL     1     -12.163  14.626  71.276  1.00  0.00    -0.348 A  
HETATM    4  C   UNL     1     -12.066  13.524  70.424  1.00  0.00    -0.415 A  
HETATM    5  C   UNL     1     -11.444  13.653  69.156  1.00  0.00    -0.346 A  
HETATM    6  C   UNL     1     -10.899  14.886  68.785  1.00  0.00    -0.252 A  
HETATM    7  N   UNL     1     -10.217  14.715  67.567  1.00  0.00    -0.226 N  
HETATM    8  C   UNL     1     -11.108  16.025  69.589  1.00  0.00    -0.331 A  
HETATM    9  C   UNL     1      -9.340  15.661  66.952  1.00  0.00    -0.234 C  
HETATM   10  C   UNL     1     -11.716  15.867  70.838  1.00  0.00    -0.456 A  
HETATM   11  C   UNL     1     -10.583  13.451  67.063  1.00  0.00    -0.264 A  
HETATM   12  O   UNL     1      -9.197  15.599  65.732  1.00  0.00    -0.321 OA 
HETATM   13  C   UNL     1     -11.298  12.771  68.045  1.00  0.00    -0.335 A  
HETATM   14  C   UNL     1     -10.215  12.930  65.711  1.00  0.00    -0.298 C  
BRANCH   9  15
HETATM   15  C   UNL     1      -8.578  16.740  67.643  1.00  0.00    -0.211 A  
HETATM   16  C   UNL     1      -7.441  16.479  68.417  1.00  0.00    -0.186 A  
HETATM   17  C   UNL     1      -7.298  18.822  69.005  1.00  0.00    -0.256 A  
HETATM   18 CL   UNL     1      -6.575  20.082  69.924  1.00  0.00    -0.368 Cl 
HETATM   19  C   UNL     1      -6.822  17.515  69.123  1.00  0.00    -0.232 A  
HETATM   20  C   UNL     1      -8.362  19.109  68.153  1.00  0.00    -0.351 A  
HETATM   21  C   UNL     1      -9.001  18.069  67.472  1.00  0.00    -0.249 A  
ENDBRANCH   9  15
BRANCH  13  22
HETATM   22  C   UNL     1     -11.909  11.405  67.906  1.00  0.00    -0.239 C  
BRANCH  22  23
HETATM   23  C   UNL     1     -10.952  10.253  68.080  1.00  0.00    -0.289 C  
HETATM   24  O   UNL     1     -10.965   9.229  67.400  1.00  0.00    -0.188 OA 
BRANCH  23  25
HETATM   25  O   UNL     1     -10.022  10.496  69.040  1.00  0.00    -0.193 OA 
BRANCH  25  26
HETATM   26  C   UNL     1      -8.750   9.897  68.800  1.00  0.00    -0.132 C  
HETATM   27  C   UNL     1      -7.612  10.414  69.676  1.00  0.00    -0.153 C  
HETATM   28  O   UNL     1      -7.590   9.884  70.923  1.00  0.00    -0.293 OA 
HETATM   29  O   UNL     1      -6.781  11.229  69.301  1.00  0.00    -0.088 OA 
ENDBRANCH  25  26
ENDBRANCH  23  25
ENDBRANCH  22  23
ENDBRANCH  13  22
ENDBRANCH   2   3
TORSDOF 6
ENDMDL
MODEL       44
REMARK 921   NORMALIZED FREE ENERGY PREDICTED BY IDOCK:   -6.09 KCAL/MOL
REMARK 922        TOTAL FREE ENERGY PREDICTED BY IDOCK:   -9.38 KCAL/MOL
REMARK 923 INTER-LIGAND FREE ENERGY PREDICTED BY IDOCK:   -8.32 KCAL/MOL
REMARK 924 INTRA-LIGAND FREE ENERGY PREDICTED BY IDOCK:   -1.06 KCAL/MOL
REMARK 927      BINDING AFFINITY PREDICTED BY RF-SCORE:    0.00 PKD
ROOT
HETATM    1  C   UNL     1      -9.281  10.912  62.858  1.00  0.00    -0.332 C  
HETATM    2  O   UNL     1      -9.119  10.040  63.970  1.00  0.00    -0.220 OA 
ENDROOT
BRANCH   2   3
HETATM    3  C   UNL     1      -9.693  10.421  65.152  1.00  0.00    -0.291 A  
HETATM    4  C   UNL     1      -9.988  11.730  65.537  1.00  0.00    -0.273 A  
HETATM    5  C   UNL     1     -10.550  11.992  66.812  1.00  0.00    -0.260 A  
HETATM    6  C   UNL     1     -10.772  10.927  67.691  1.00  0.00    -0.242 A  
HETATM    7  N   UNL     1     -11.187  11.457  68.926  1.00  0.00    -0.224 N  
HETATM    8  C   UNL     1     -10.592   9.598  67.256  1.00  0.00    -0.315 A  
HETATM    9  C   UNL     1     -11.306  10.737  70.154  1.00  0.00    -0.309 C  
HETATM   10  C   UNL     1     -10.028   9.371  65.996  1.00  0.00    -0.352 A  
HETATM   11  C   UNL     1     -11.484  12.818  68.711  1.00  0.00    -0.304 A  
HETATM   12  O   UNL     1     -12.092  11.169  70.996  1.00  0.00    -0.335 OA 
HETATM   13  C   UNL     1     -11.057  13.170  67.434  1.00  0.00    -0.301 A  
HETATM   14  C   UNL     1     -12.113  13.725  69.720  1.00  0.00    -0.400 C  
BRANCH   9  15
HETATM   15  C   UNL     1     -10.575   9.492  70.525  1.00  0.00    -0.358 A  
HETATM   16  C   UNL     1     -11.219   8.257  70.665  1.00  0.00    -0.270 A  
HETATM   17  C   UNL     1      -9.131   7.243  71.352  1.00  0.00    -0.142 A  
HETATM   18 CL   UNL     1      -8.267   5.887  71.960  1.00  0.00    -0.111 Cl 
HETATM   19  C   UNL     1     -10.502   7.142  71.111  1.00  0.00    -0.225 A  
HETATM   20  C   UNL     1      -8.461   8.440  71.111  1.00  0.00    -0.178 A  
HETATM   21  C   UNL     1      -9.182   9.563  70.697  1.00  0.00    -0.243 A  
ENDBRANCH   9  15
BRANCH  13  22
HETATM   22  C   UNL     1     -11.219  14.518  66.790  1.00  0.00    -0.336 C  
BRANCH  22  23
HETATM   23  C   UNL     1     -10.001  15.406  66.843  1.00  0.00    -0.243 C  
HETATM   24  O   UNL     1      -8.851  15.001  67.000  1.00  0.00    -0.204 OA 
BRANCH  23  25
HETATM   25  O   UNL     1     -10.307  16.713  66.637  1.00  0.00    -0.296 OA 
BRANCH  25  26
HETATM   26  C   UNL     1     -10.613  17.446  67.822  1.00  0.00    -0.371 C  
HETATM   27  C   UNL     1     -10.043  18.860  67.877  1.00  0.00    -0.371 C  
HETATM   28  O   UNL     1     -10.754  19.771  67.169  1.00  0.00    -0.466 OA 
HETATM   29  O   UNL     1      -9.038  19.164  68.505  1.00  0.00    -0.344 OA 
ENDBRANCH  25  26
ENDBRANCH  23  25
ENDBRANCH  22  23
ENDBRANCH  13  22
ENDBRANCH   2   3
TORSDOF 6
ENDMDL
MODEL       45
REMARK 921   NORMALIZED FREE ENERGY PREDICTED BY IDOCK:   -6.05 KCAL/MOL
REMARK 922        TOTAL FREE ENERGY PREDICTED BY IDOCK:   -9.32 KCAL/MOL
REMARK 923 INTER-LIGAND FREE ENERGY PREDICTED BY IDOCK:   -8.14 KCAL/MOL
REMARK 924 INTRA-LIGAND FREE ENERGY PREDICTED BY IDOCK:   -1.18 KCAL/MOL
REMARK 927      BINDING AFFINITY PREDICTED BY RF-SCORE:    0.00 PKD
ROOT
HETATM    1  C   UNL     1     -13.677  14.873  72.610  1.00  0.00    -0.450 C  
HETATM    2  O   UNL     1     -13.048  13.647  72.261  1.00  0.00    -0.388 OA 
ENDROOT
BRANCH   2   3
HETATM    3  C   UNL     1     -12.573  13.529  70.984  1.00  0.00    -0.359 A  
HETATM    4  C   UNL     1     -12.115  12.355  70.383  1.00  0.00    -0.381 A  
HETATM    5  C   UNL     1     -11.610  12.379  69.058  1.00  0.00    -0.362 A  
HETATM    6  C   UNL     1     -11.543  13.597  68.376  1.00  0.00    -0.342 A  
HETATM    7  N   UNL     1     -10.875  13.382  67.157  1.00  0.00    -0.274 N  
HETATM    8  C   UNL     1     -12.119  14.756  68.935  1.00  0.00    -0.240 A  
HETATM    9  C   UNL     1     -10.402  14.392  66.265  1.00  0.00    -0.295 C  
HETATM   10  C   UNL     1     -12.602  14.706  70.246  1.00  0.00    -0.370 A  
HETATM   11  C   UNL     1     -10.785  11.987  66.978  1.00  0.00    -0.242 A  
HETATM   12  O   UNL     1     -10.276  14.093  65.078  1.00  0.00    -0.394 OA 
HETATM   13  C   UNL     1     -11.191  11.360  68.153  1.00  0.00    -0.343 A  
HETATM   14  C   UNL     1     -10.291  11.314  65.738  1.00  0.00    -0.310 C  
BRANCH   9  15
HETATM   15  C   UNL     1     -10.051  15.796  66.623  1.00  0.00    -0.287 A  
HETATM   16  C   UNL     1      -9.039  16.106  67.539  1.00  0.00    -0.207 A  
HETATM   17  C   UNL     1      -9.561  18.460  67.324  1.00  0.00    -0.288 A  
HETATM   18 CL   UNL     1      -9.330  20.085  67.833  1.00  0.00    -0.445 Cl 
HETATM   19  C   UNL     1      -8.818  17.435  67.913  1.00  0.00    -0.237 A  
HETATM   20  C   UNL     1     -10.495  18.170  66.333  1.00  0.00    -0.364 A  
HETATM   21  C   UNL     1     -10.739  16.839  65.982  1.00  0.00    -0.139 A  
ENDBRANCH   9  15
BRANCH  13  22
HETATM   22  C   UNL     1     -11.286   9.878  68.376  1.00  0.00    -0.134 C  
BRANCH  22  23
HETATM   23  C   UNL     1     -10.369   9.328  69.440  1.00  0.00    -0.215 C  
HETATM   24  O   UNL     1     -10.632   8.363  70.153  1.00  0.00    -0.224 OA 
BRANCH  23  25
HETATM   25  O   UNL     1      -9.180   9.984  69.484  1.00  0.00    -0.200 OA 
BRANCH  25  26
HETATM   26  C   UNL     1      -8.265   9.489  70.460  1.00  0.00    -0.167 C  
HETATM   27  C   UNL     1      -6.804   9.869  70.233  1.00  0.00    -0.138 C  
HETATM   28  O   UNL     1      -6.492  11.127  70.626  1.00  0.00    -0.309 OA 
HETATM   29  O   UNL     1      -5.973   9.114  69.746  1.00  0.00    -0.035 OA 
ENDBRANCH  25  26
ENDBRANCH  23  25
ENDBRANCH  22  23
ENDBRANCH  13  22
ENDBRANCH   2   3
TORSDOF 6
ENDMDL
MODEL       46
REMARK 921   NORMALIZED FREE ENERGY PREDICTED BY IDOCK:   -6.04 KCAL/MOL
REMARK 922        TOTAL FREE ENERGY PREDICTED BY IDOCK:   -9.31 KCAL/MOL
REMARK 923 INTER-LIGAND FREE ENERGY PREDICTED BY IDOCK:   -8.01 KCAL/MOL
REMARK 924 INTRA-LIGAND FREE ENERGY PREDICTED BY IDOCK:   -1.30 KCAL/MOL
REMARK 927      BINDING AFFINITY PREDICTED BY RF-SCORE:    0.00 PKD
ROOT
HETATM    1  C   UNL     1      -5.833  13.058  70.134  1.00  0.00    -0.153 C  
HETATM    2  O   UNL     1      -6.944  13.869  69.772  1.00  0.00    -0.008 OA 
ENDROOT
BRANCH   2   3
HETATM    3  C   UNL     1      -7.645  13.505  68.656  1.00  0.00    -0.108 A  
HETATM    4  C   UNL     1      -8.747  14.176  68.123  1.00  0.00    -0.181 A  
HETATM    5  C   UNL     1      -9.409  13.668  66.977  1.00  0.00    -0.249 A  
HETATM    6  C   UNL     1      -8.967  12.470  66.408  1.00  0.00    -0.073 A  
HETATM    7  N   UNL     1      -9.868  12.107  65.391  1.00  0.00    -0.239 N  
HETATM    8  C   UNL     1      -7.781  11.861  66.869  1.00  0.00    -0.106 A  
HETATM    9  C   UNL     1      -9.912  10.851  64.713  1.00  0.00    -0.307 C  
HETATM   10  C   UNL     1      -7.154  12.379  68.007  1.00  0.00    -0.099 A  
HETATM   11  C   UNL     1     -10.696  13.223  65.158  1.00  0.00    -0.322 A  
HETATM   12  O   UNL     1     -10.398  10.828  63.583  1.00  0.00    -0.327 OA 
HETATM   13  C   UNL     1     -10.457  14.170  66.150  1.00  0.00    -0.297 A  
HETATM   14  C   UNL     1     -11.692  13.331  64.049  1.00  0.00    -0.483 C  
BRANCH   9  15
HETATM   15  C   UNL     1      -9.413   9.546  65.233  1.00  0.00    -0.326 A  
HETATM   16  C   UNL     1      -8.315   8.884  64.672  1.00  0.00    -0.179 A  
HETATM   17  C   UNL     1      -8.640   7.038  66.203  1.00  0.00    -0.143 A  
HETATM   18 CL   UNL     1      -8.231   5.453  66.728  1.00  0.00    -0.108 Cl 
HETATM   19  C   UNL     1      -7.951   7.616  65.136  1.00  0.00    -0.130 A  
HETATM   20  C   UNL     1      -9.665   7.735  66.838  1.00  0.00    -0.282 A  
HETATM   21  C   UNL     1     -10.050   8.988  66.355  1.00  0.00    -0.351 A  
ENDBRANCH   9  15
BRANCH  13  22
HETATM   22  C   UNL     1     -11.099  15.524  66.251  1.00  0.00    -0.177 C  
BRANCH  22  23
HETATM   23  C   UNL     1     -10.576  16.558  65.285  1.00  0.00    -0.253 C  
HETATM   24  O   UNL     1     -11.201  16.986  64.318  1.00  0.00    -1.186 OA 
BRANCH  23  25
HETATM   25  O   UNL     1      -9.345  17.015  65.638  1.00  0.00    -0.523 OA 
BRANCH  25  26
HETATM   26  C   UNL     1      -9.346  17.944  66.721  1.00  0.00    -0.275 C  
HETATM   27  C   UNL     1      -9.106  19.399  66.330  1.00  0.00    -0.346 C  
HETATM   28  O   UNL     1     -10.200  20.026  65.834  1.00  0.00    -0.486 OA 
HETATM   29  O   UNL     1      -8.030  19.968  66.451  1.00  0.00    -0.298 OA 
ENDBRANCH  25  26
ENDBRANCH  23  25
ENDBRANCH  22  23
ENDBRANCH  13  22
ENDBRANCH   2   3
TORSDOF 6
ENDMDL
MODEL       47
REMARK 921   NORMALIZED FREE ENERGY PREDICTED BY IDOCK:   -6.03 KCAL/MOL
REMARK 922        TOTAL FREE ENERGY PREDICTED BY IDOCK:   -9.30 KCAL/MOL
REMARK 923 INTER-LIGAND FREE ENERGY PREDICTED BY IDOCK:   -8.02 KCAL/MOL
REMARK 924 INTRA-LIGAND FREE ENERGY PREDICTED BY IDOCK:   -1.28 KCAL/MOL
REMARK 927      BINDING AFFINITY PREDICTED BY RF-SCORE:    0.00 PKD
ROOT
HETATM    1  C   UNL     1      -6.711   8.648  67.453  1.00  0.00    -0.063 C  
HETATM    2  O   UNL     1      -7.713   7.792  67.988  1.00  0.00    -0.119 OA 
ENDROOT
BRANCH   2   3
HETATM    3  C   UNL     1      -8.707   8.378  68.722  1.00  0.00    -0.136 A  
HETATM    4  C   UNL     1      -9.726   7.710  69.405  1.00  0.00    -0.165 A  
HETATM    5  C   UNL     1     -10.722   8.443  70.099  1.00  0.00    -0.238 A  
HETATM    6  C   UNL     1     -10.691   9.840  70.062  1.00  0.00    -0.283 A  
HETATM    7  N   UNL     1     -11.854  10.321  70.690  1.00  0.00    -0.320 N  
HETATM    8  C   UNL     1      -9.596  10.511  69.480  1.00  0.00    -0.125 A  
HETATM    9  C   UNL     1     -12.323  11.671  70.676  1.00  0.00    -0.344 C  
HETATM   10  C   UNL     1      -8.634   9.763  68.794  1.00  0.00    -0.127 A  
HETATM   11  C   UNL     1     -12.448   9.227  71.351  1.00  0.00    -0.341 A  
HETATM   12  O   UNL     1     -13.041  12.036  71.605  1.00  0.00    -0.427 OA 
HETATM   13  C   UNL     1     -11.791   8.063  70.963  1.00  0.00    -0.280 A  
HETATM   14  C   UNL     1     -13.618   9.320  72.277  1.00  0.00    -0.544 C  
BRANCH   9  15
HETATM   15  C   UNL     1     -12.020  12.702  69.643  1.00  0.00    -0.352 A  
HETATM   16  C   UNL     1     -11.988  12.408  68.275  1.00  0.00    -0.270 A  
HETATM   17  C   UNL     1     -11.310  14.682  67.798  1.00  0.00    -0.322 A  
HETATM   18 CL   UNL     1     -10.774  15.868  66.676  1.00  0.00    -0.303 Cl 
HETATM   19  C   UNL     1     -11.601  13.390  67.357  1.00  0.00    -0.394 A  
HETATM   20  C   UNL     1     -11.444  15.012  69.144  1.00  0.00    -0.320 A  
HETATM   21  C   UNL     1     -11.799  14.024  70.066  1.00  0.00    -0.388 A  
ENDBRANCH   9  15
BRANCH  13  22
HETATM   22  C   UNL     1     -12.082   6.677  71.463  1.00  0.00    -0.406 C  
BRANCH  22  23
HETATM   23  C   UNL     1     -11.239   6.225  72.630  1.00  0.00    -0.267 C  
HETATM   24  O   UNL     1     -10.919   5.059  72.846  1.00  0.00    -0.242 OA 
BRANCH  23  25
HETATM   25  O   UNL     1     -10.815   7.267  73.392  1.00  0.00    -0.374 OA 
BRANCH  25  26
HETATM   26  C   UNL     1      -9.473   7.151  73.861  1.00  0.00    -0.257 C  
HETATM   27  C   UNL     1      -8.394   7.477  72.832  1.00  0.00    -0.120 C  
HETATM   28  O   UNL     1      -8.184   8.804  72.653  1.00  0.00    -0.403 OA 
HETATM   29  O   UNL     1      -7.762   6.629  72.218  1.00  0.00    -0.095 OA 
ENDBRANCH  25  26
ENDBRANCH  23  25
ENDBRANCH  22  23
ENDBRANCH  13  22
ENDBRANCH   2   3
TORSDOF 6
ENDMDL
MODEL       48
REMARK 921   NORMALIZED FREE ENERGY PREDICTED BY IDOCK:   -5.98 KCAL/MOL
REMARK 922        TOTAL FREE ENERGY PREDICTED BY IDOCK:   -9.24 KCAL/MOL
REMARK 923 INTER-LIGAND FREE ENERGY PREDICTED BY IDOCK:   -8.00 KCAL/MOL
REMARK 924 INTRA-LIGAND FREE ENERGY PREDICTED BY IDOCK:   -1.24 KCAL/MOL
REMARK 927      BINDING AFFINITY PREDICTED BY RF-SCORE:    0.00 PKD
ROOT
HETATM    1  C   UNL     1      -8.524   6.879  65.824  1.00  0.00    -0.146 C  
HETATM    2  O   UNL     1      -8.701   8.272  66.051  1.00  0.00    -0.138 OA 
ENDROOT
BRANCH   2   3
HETATM    3  C   UNL     1      -9.498   8.637  67.102  1.00  0.00    -0.160 A  
HETATM    4  C   UNL     1     -10.021   9.911  67.332  1.00  0.00    -0.235 A  
HETATM    5  C   UNL     1     -10.805  10.165  68.486  1.00  0.00    -0.278 A  
HETATM    6  C   UNL     1     -11.017   9.134  69.406  1.00  0.00    -0.092 A  
HETATM    7  N   UNL     1     -11.687   9.672  70.521  1.00  0.00    -0.260 N  
HETATM    8  C   UNL     1     -10.597   7.821  69.112  1.00  0.00    -0.193 A  
HETATM    9  C   UNL     1     -11.899   9.018  71.773  1.00  0.00    -0.372 C  
HETATM   10  C   UNL     1      -9.818   7.602  67.971  1.00  0.00    -0.188 A  
HETATM   11  C   UNL     1     -12.125  10.961  70.155  1.00  0.00    -0.349 A  
HETATM   12  O   UNL     1     -12.857   9.383  72.453  1.00  0.00    -0.376 OA 
HETATM   13  C   UNL     1     -11.555  11.293  68.930  1.00  0.00    -0.386 A  
HETATM   14  C   UNL     1     -13.017  11.827  70.984  1.00  0.00    -0.200 C  
BRANCH   9  15
HETATM   15  C   UNL     1     -11.076   7.916  72.346  1.00  0.00    -0.392 A  
HETATM   16  C   UNL     1     -11.543   6.599  72.438  1.00  0.00    -0.281 A  
HETATM   17  C   UNL     1      -9.499   5.948  73.559  1.00  0.00    -0.139 A  
HETATM   18 CL   UNL     1      -8.577   4.764  74.396  1.00  0.00    -0.109 Cl 
HETATM   19  C   UNL     1     -10.767   5.625  73.074  1.00  0.00    -0.290 A  
HETATM   20  C   UNL     1      -8.982   7.228  73.377  1.00  0.00    -0.203 A  
HETATM   21  C   UNL     1      -9.769   8.211  72.770  1.00  0.00    -0.351 A  
ENDBRANCH   9  15
BRANCH  13  22
HETATM   22  C   UNL     1     -11.791  12.563  68.161  1.00  0.00    -0.371 C  
BRANCH  22  23
HETATM   23  C   UNL     1     -10.753  13.638  68.362  1.00  0.00    -0.258 C  
HETATM   24  O   UNL     1      -9.925  13.972  67.518  1.00  0.00    -0.232 OA 
BRANCH  23  25
HETATM   25  O   UNL     1     -10.873  14.250  69.570  1.00  0.00    -0.210 OA 
BRANCH  25  26
HETATM   26  C   UNL     1     -11.605  15.474  69.545  1.00  0.00    -0.350 C  
HETATM   27  C   UNL     1     -12.364  15.803  70.828  1.00  0.00    -0.390 C  
HETATM   28  O   UNL     1     -11.589  16.323  71.811  1.00  0.00    -0.459 OA 
HETATM   29  O   UNL     1     -13.566  15.626  70.971  1.00  0.00    -0.588 OA 
ENDBRANCH  25  26
ENDBRANCH  23  25
ENDBRANCH  22  23
ENDBRANCH  13  22
ENDBRANCH   2   3
TORSDOF 6
ENDMDL
MODEL       49
REMARK 921   NORMALIZED FREE ENERGY PREDICTED BY IDOCK:   -5.98 KCAL/MOL
REMARK 922        TOTAL FREE ENERGY PREDICTED BY IDOCK:   -9.23 KCAL/MOL
REMARK 923 INTER-LIGAND FREE ENERGY PREDICTED BY IDOCK:   -8.13 KCAL/MOL
REMARK 924 INTRA-LIGAND FREE ENERGY PREDICTED BY IDOCK:   -1.10 KCAL/MOL
REMARK 927      BINDING AFFINITY PREDICTED BY RF-SCORE:    0.00 PKD
ROOT
HETATM    1  C   UNL     1     -11.595   6.577  71.399  1.00  0.00    -0.318 C  
HETATM    2  O   UNL     1     -11.097   7.840  71.823  1.00  0.00    -0.235 OA 
ENDROOT
BRANCH   2   3
HETATM    3  C   UNL     1     -11.283   8.900  70.979  1.00  0.00    -0.281 A  
HETATM    4  C   UNL     1     -10.745   9.035  69.698  1.00  0.00    -0.228 A  
HETATM    5  C   UNL     1     -10.987  10.209  68.941  1.00  0.00    -0.261 A  
HETATM    6  C   UNL     1     -11.740  11.243  69.505  1.00  0.00    -0.345 A  
HETATM    7  N   UNL     1     -11.708  12.340  68.626  1.00  0.00    -0.313 N  
HETATM    8  C   UNL     1     -12.386  11.055  70.745  1.00  0.00    -0.496 A  
HETATM    9  C   UNL     1     -12.160  13.664  68.914  1.00  0.00    -0.300 C  
HETATM   10  C   UNL     1     -12.122   9.891  71.474  1.00  0.00    -0.496 A  
HETATM   11  C   UNL     1     -11.172  11.876  67.408  1.00  0.00    -0.305 A  
HETATM   12  O   UNL     1     -12.506  14.369  67.967  1.00  0.00    -0.084 OA 
HETATM   13  C   UNL     1     -10.685  10.586  67.599  1.00  0.00    -0.324 A  
HETATM   14  C   UNL     1     -11.107  12.672  66.145  1.00  0.00    -0.327 C  
BRANCH   9  15
HETATM   15  C   UNL     1     -12.268  14.288  70.264  1.00  0.00    -0.407 A  
HETATM   16  C   UNL     1     -13.464  14.304  70.990  1.00  0.00    -0.274 A  
HETATM   17  C   UNL     1     -12.395  15.601  72.731  1.00  0.00    -0.435 A  
HETATM   18 CL   UNL     1     -12.501  16.496  74.195  1.00  0.00    -0.548 Cl 
HETATM   19  C   UNL     1     -13.535  14.989  72.207  1.00  0.00    -0.521 A  
HETATM   20  C   UNL     1     -11.175  15.500  72.068  1.00  0.00    -0.337 A  
HETATM   21  C   UNL     1     -11.111  14.843  70.836  1.00  0.00    -0.144 A  
ENDBRANCH   9  15
BRANCH  13  22
HETATM   22  C   UNL     1     -10.068   9.710  66.545  1.00  0.00    -0.314 C  
BRANCH  22  23
HETATM   23  C   UNL     1      -8.588   9.909  66.331  1.00  0.00    -0.128 C  
HETATM   24  O   UNL     1      -8.019  10.998  66.372  1.00  0.00    -0.156 OA 
BRANCH  23  25
HETATM   25  O   UNL     1      -7.933   8.734  66.144  1.00  0.00    -0.099 OA 
BRANCH  25  26
HETATM   26  C   UNL     1      -8.254   7.718  67.093  1.00  0.00    -0.118 C  
HETATM   27  C   UNL     1      -8.272   6.295  66.541  1.00  0.00    -0.112 C  
HETATM   28  O   UNL     1      -7.043   5.738  66.409  1.00  0.00    -0.069 OA 
HETATM   29  O   UNL     1      -9.294   5.693  66.245  1.00  0.00    -0.152 OA 
ENDBRANCH  25  26
ENDBRANCH  23  25
ENDBRANCH  22  23
ENDBRANCH  13  22
ENDBRANCH   2   3
TORSDOF 6
ENDMDL
MODEL       50
REMARK 921   NORMALIZED FREE ENERGY PREDICTED BY IDOCK:   -5.96 KCAL/MOL
REMARK 922        TOTAL FREE ENERGY PREDICTED BY IDOCK:   -9.20 KCAL/MOL
REMARK 923 INTER-LIGAND FREE ENERGY PREDICTED BY IDOCK:   -8.04 KCAL/MOL
REMARK 924 INTRA-LIGAND FREE ENERGY PREDICTED BY IDOCK:   -1.16 KCAL/MOL
REMARK 927      BINDING AFFINITY PREDICTED BY RF-SCORE:    0.00 PKD
ROOT
HETATM    1  C   UNL     1     -13.064  10.764  71.728  1.00  0.00    -0.468 C  
HETATM    2  O   UNL     1     -12.442  11.950  71.250  1.00  0.00    -0.312 OA 
ENDROOT
BRANCH   2   3
HETATM    3  C   UNL     1     -12.031  11.957  69.945  1.00  0.00    -0.325 A  
HETATM    4  C   UNL     1     -11.490  10.874  69.249  1.00  0.00    -0.372 A  
HETATM    5  C   UNL     1     -11.066  11.028  67.905  1.00  0.00    -0.347 A  
HETATM    6  C   UNL     1     -11.163  12.283  67.298  1.00  0.00    -0.300 A  
HETATM    7  N   UNL     1     -10.546  12.209  66.036  1.00  0.00    -0.249 N  
HETATM    8  C   UNL     1     -11.823  13.341  67.957  1.00  0.00    -0.392 A  
HETATM    9  C   UNL     1     -10.232  13.314  65.186  1.00  0.00    -0.287 C  
HETATM   10  C   UNL     1     -12.222  13.164  69.285  1.00  0.00    -0.165 A  
HETATM   11  C   UNL     1     -10.325  10.844  65.765  1.00  0.00    -0.241 A  
HETATM   12  O   UNL     1     -10.143  13.098  63.978  1.00  0.00    -0.356 OA 
HETATM   13  C   UNL     1     -10.596  10.112  66.917  1.00  0.00    -0.267 A  
HETATM   14  C   UNL     1      -9.835  10.300  64.462  1.00  0.00    -0.384 C  
BRANCH   9  15
HETATM   15  C   UNL     1     -10.007  14.724  65.614  1.00  0.00    -0.390 A  
HETATM   16  C   UNL     1      -9.009  15.081  66.529  1.00  0.00    -0.310 A  
HETATM   17  C   UNL     1      -9.755  17.382  66.449  1.00  0.00    -0.290 A  
HETATM   18 CL   UNL     1      -9.668  18.993  67.040  1.00  0.00    -0.343 Cl 
HETATM   19  C   UNL     1      -8.907  16.404  66.970  1.00  0.00    -0.222 A  
HETATM   20  C   UNL     1     -10.679  17.057  65.459  1.00  0.00    -0.146 A  
HETATM   21  C   UNL     1     -10.804  15.729  65.041  1.00  0.00    -0.461 A  
ENDBRANCH   9  15
BRANCH  13  22
HETATM   22  C   UNL     1     -10.526   8.618  67.051  1.00  0.00    -0.354 C  
BRANCH  22  23
HETATM   23  C   UNL     1      -9.210   8.079  67.556  1.00  0.00    -0.137 C  
HETATM   24  O   UNL     1      -8.564   8.573  68.477  1.00  0.00    -0.136 OA 
BRANCH  23  25
HETATM   25  O   UNL     1      -8.840   6.940  66.914  1.00  0.00    -0.114 OA 
BRANCH  25  26
HETATM   26  C   UNL     1      -9.884   5.981  66.758  1.00  0.00    -0.163 C  
HETATM   27  C   UNL     1      -9.810   4.780  67.697  1.00  0.00    -0.152 C  
HETATM   28  O   UNL     1     -10.268   5.027  68.948  1.00  0.00    -0.178 OA 
HETATM   29  O   UNL     1      -9.384   3.682  67.365  1.00  0.00    -0.176 OA 
ENDBRANCH  25  26
ENDBRANCH  23  25
ENDBRANCH  22  23
ENDBRANCH  13  22
ENDBRANCH   2   3
TORSDOF 6
ENDMDL
MODEL       51
REMARK 921   NORMALIZED FREE ENERGY PREDICTED BY IDOCK:   -5.93 KCAL/MOL
REMARK 922        TOTAL FREE ENERGY PREDICTED BY IDOCK:   -9.16 KCAL/MOL
REMARK 923 INTER-LIGAND FREE ENERGY PREDICTED BY IDOCK:   -7.99 KCAL/MOL
REMARK 924 INTRA-LIGAND FREE ENERGY PREDICTED BY IDOCK:   -1.17 KCAL/MOL
REMARK 927      BINDING AFFINITY PREDICTED BY RF-SCORE:    0.00 PKD
ROOT
HETATM    1  C   UNL     1      -7.206  10.039  66.781  1.00  0.00    -0.091 C  
HETATM    2  O   UNL     1      -8.088  10.975  66.174  1.00  0.00    -0.164 OA 
ENDROOT
BRANCH   2   3
HETATM    3  C   UNL     1      -8.775  11.815  67.006  1.00  0.00    -0.181 A  
HETATM    4  C   UNL     1      -9.994  11.538  67.629  1.00  0.00    -0.199 A  
HETATM    5  C   UNL     1     -10.622  12.517  68.440  1.00  0.00    -0.256 A  
HETATM    6  C   UNL     1     -10.024  13.774  68.579  1.00  0.00    -0.217 A  
HETATM    7  N   UNL     1     -10.905  14.602  69.297  1.00  0.00    -0.254 N  
HETATM    8  C   UNL     1      -8.737  14.009  68.054  1.00  0.00    -0.180 A  
HETATM    9  C   UNL     1     -10.783  16.015  69.468  1.00  0.00    -0.298 C  
HETATM   10  C   UNL     1      -8.145  13.029  67.251  1.00  0.00    -0.164 A  
HETATM   11  C   UNL     1     -11.909  13.769  69.832  1.00  0.00    -0.327 A  
HETATM   12  O   UNL     1     -11.313  16.519  70.457  1.00  0.00    -0.311 OA 
HETATM   13  C   UNL     1     -11.774  12.499  69.279  1.00  0.00    -0.379 A  
HETATM   14  C   UNL     1     -12.961  14.211  70.797  1.00  0.00    -0.337 C  
BRANCH   9  15
HETATM   15  C   UNL     1     -10.061  16.956  68.566  1.00  0.00    -0.297 A  
HETATM   16  C   UNL     1      -8.874  17.596  68.943  1.00  0.00    -0.124 A  
HETATM   17  C   UNL     1      -8.856  18.805  66.846  1.00  0.00    -0.294 A  
HETATM   18 CL   UNL     1      -8.174  20.016  65.836  1.00  0.00    -0.294 Cl 
HETATM   19  C   UNL     1      -8.292  18.544  68.096  1.00  0.00    -0.316 A  
HETATM   20  C   UNL     1      -9.975  18.095  66.418  1.00  0.00    -0.376 A  
HETATM   21  C   UNL     1     -10.576  17.171  67.276  1.00  0.00    -0.270 A  
ENDBRANCH   9  15
BRANCH  13  22
HETATM   22  C   UNL     1     -12.616  11.299  69.609  1.00  0.00    -0.044 C  
BRANCH  22  23
HETATM   23  C   UNL     1     -12.392  10.714  70.981  1.00  0.00    -0.403 C  
HETATM   24  O   UNL     1     -13.087  10.960  71.964  1.00  0.00    -0.491 OA 
BRANCH  23  25
HETATM   25  O   UNL     1     -11.363   9.827  71.001  1.00  0.00    -0.329 OA 
BRANCH  25  26
HETATM   26  C   UNL     1     -11.558   8.711  71.868  1.00  0.00    -0.350 C  
HETATM   27  C   UNL     1     -12.337   7.546  71.264  1.00  0.00    -0.327 C  
HETATM   28  O   UNL     1     -11.599   6.748  70.456  1.00  0.00    -0.332 OA 
HETATM   29  O   UNL     1     -13.521   7.333  71.484  1.00  0.00    -0.385 OA 
ENDBRANCH  25  26
ENDBRANCH  23  25
ENDBRANCH  22  23
ENDBRANCH  13  22
ENDBRANCH   2   3
TORSDOF 6
ENDMDL
MODEL       52
REMARK 921   NORMALIZED FREE ENERGY PREDICTED BY IDOCK:   -5.90 KCAL/MOL
REMARK 922        TOTAL FREE ENERGY PREDICTED BY IDOCK:   -9.12 KCAL/MOL
REMARK 923 INTER-LIGAND FREE ENERGY PREDICTED BY IDOCK:   -7.92 KCAL/MOL
REMARK 924 INTRA-LIGAND FREE ENERGY PREDICTED BY IDOCK:   -1.20 KCAL/MOL
REMARK 927      BINDING AFFINITY PREDICTED BY RF-SCORE:    0.00 PKD
ROOT
HETATM    1  C   UNL     1     -12.742  11.981  63.530  1.00  0.00    -0.443 C  
HETATM    2  O   UNL     1     -13.113  12.685  64.709  1.00  0.00    -0.852 OA 
ENDROOT
BRANCH   2   3
HETATM    3  C   UNL     1     -12.110  13.033  65.571  1.00  0.00    -0.452 A  
HETATM    4  C   UNL     1     -11.702  14.333  65.874  1.00  0.00    -0.375 A  
HETATM    5  C   UNL     1     -10.617  14.554  66.759  1.00  0.00    -0.276 A  
HETATM    6  C   UNL     1      -9.940  13.456  67.297  1.00  0.00    -0.232 A  
HETATM    7  N   UNL     1      -8.827  13.933  68.013  1.00  0.00    -0.175 N  
HETATM    8  C   UNL     1     -10.430  12.150  67.091  1.00  0.00    -0.241 A  
HETATM    9  C   UNL     1      -7.755  13.142  68.529  1.00  0.00    -0.117 C  
HETATM   10  C   UNL     1     -11.496  11.961  66.206  1.00  0.00    -0.367 A  
HETATM   11  C   UNL     1      -8.987  15.327  68.141  1.00  0.00    -0.173 A  
HETATM   12  O   UNL     1      -7.131  13.585  69.492  1.00  0.00     0.030 OA 
HETATM   13  C   UNL     1     -10.054  15.728  67.342  1.00  0.00    -0.246 A  
HETATM   14  C   UNL     1      -8.115  16.215  68.969  1.00  0.00    -0.237 C  
BRANCH   9  15
HETATM   15  C   UNL     1      -7.313  11.812  68.022  1.00  0.00    -0.091 A  
HETATM   16  C   UNL     1      -6.634  11.658  66.808  1.00  0.00    -0.094 A  
HETATM   17  C   UNL     1      -6.644   9.256  67.102  1.00  0.00    -0.068 A  
HETATM   18 CL   UNL     1      -6.327   7.683  66.487  1.00  0.00    -0.045 Cl 
HETATM   19  C   UNL     1      -6.330  10.378  66.334  1.00  0.00    -0.092 A  
HETATM   20  C   UNL     1      -7.222   9.404  68.360  1.00  0.00    -0.076 A  
HETATM   21  C   UNL     1      -7.555  10.681  68.820  1.00  0.00    -0.109 A  
ENDBRANCH   9  15
BRANCH  13  22
HETATM   22  C   UNL     1     -10.588  17.127  67.219  1.00  0.00    -0.270 C  
BRANCH  22  23
HETATM   23  C   UNL     1     -10.347  17.791  65.886  1.00  0.00    -0.254 C  
HETATM   24  O   UNL     1     -10.945  17.509  64.850  1.00  0.00    -0.887 OA 
BRANCH  23  25
HETATM   25  O   UNL     1      -9.429  18.790  65.966  1.00  0.00    -0.480 OA 
BRANCH  25  26
HETATM   26  C   UNL     1      -9.666  19.730  67.013  1.00  0.00    -0.381 C  
HETATM   27  C   UNL     1      -8.435  20.120  67.827  1.00  0.00    -0.255 C  
HETATM   28  O   UNL     1      -7.642  21.039  67.224  1.00  0.00    -0.340 OA 
HETATM   29  O   UNL     1      -8.175  19.659  68.930  1.00  0.00    -0.327 OA 
ENDBRANCH  25  26
ENDBRANCH  23  25
ENDBRANCH  22  23
ENDBRANCH  13  22
ENDBRANCH   2   3
TORSDOF 6
ENDMDL
MODEL       53
REMARK 921   NORMALIZED FREE ENERGY PREDICTED BY IDOCK:   -5.88 KCAL/MOL
REMARK 922        TOTAL FREE ENERGY PREDICTED BY IDOCK:   -9.09 KCAL/MOL
REMARK 923 INTER-LIGAND FREE ENERGY PREDICTED BY IDOCK:   -8.11 KCAL/MOL
REMARK 924 INTRA-LIGAND FREE ENERGY PREDICTED BY IDOCK:   -0.98 KCAL/MOL
REMARK 927      BINDING AFFINITY PREDICTED BY RF-SCORE:    0.00 PKD
ROOT
HETATM    1  C   UNL     1      -6.016  13.068  70.291  1.00  0.00    -0.126 C  
HETATM    2  O   UNL     1      -6.709  14.117  69.626  1.00  0.00    -0.129 OA 
ENDROOT
BRANCH   2   3
HETATM    3  C   UNL     1      -7.554  13.762  68.611  1.00  0.00    -0.125 A  
HETATM    4  C   UNL     1      -8.667  14.486  68.178  1.00  0.00    -0.171 A  
HETATM    5  C   UNL     1      -9.485  13.984  67.135  1.00  0.00    -0.241 A  
HETATM    6  C   UNL     1      -9.185  12.741  66.570  1.00  0.00    -0.189 A  
HETATM    7  N   UNL     1     -10.218  12.404  65.676  1.00  0.00    -0.258 N  
HETATM    8  C   UNL     1      -7.994  12.073  66.918  1.00  0.00    -0.112 A  
HETATM    9  C   UNL     1     -10.415  11.131  65.058  1.00  0.00    -0.293 C  
HETATM   10  C   UNL     1      -7.210  12.586  67.957  1.00  0.00    -0.105 A  
HETATM   11  C   UNL     1     -10.998  13.563  65.492  1.00  0.00    -0.288 A  
HETATM   12  O   UNL     1     -11.028  11.103  63.992  1.00  0.00    -0.364 OA 
HETATM   13  C   UNL     1     -10.589  14.525  66.412  1.00  0.00    -0.302 A  
HETATM   14  C   UNL     1     -12.106  13.699  64.499  1.00  0.00    -0.459 C  
BRANCH   9  15
HETATM   15  C   UNL     1      -9.940   9.815  65.572  1.00  0.00    -0.329 A  
HETATM   16  C   UNL     1     -10.501   9.201  66.698  1.00  0.00    -0.237 A  
HETATM   17  C   UNL     1      -8.887   7.406  66.529  1.00  0.00    -0.148 A  
HETATM   18 CL   UNL     1      -8.174   5.983  67.177  1.00  0.00    -0.106 Cl 
HETATM   19  C   UNL     1      -9.952   8.015  67.194  1.00  0.00    -0.303 A  
HETATM   20  C   UNL     1      -8.393   7.952  65.347  1.00  0.00    -0.146 A  
HETATM   21  C   UNL     1      -8.920   9.154  64.868  1.00  0.00    -0.201 A  
ENDBRANCH   9  15
BRANCH  13  22
HETATM   22  C   UNL     1     -11.132  15.921  66.530  1.00  0.00    -0.028 C  
BRANCH  22  23
HETATM   23  C   UNL     1     -10.757  16.853  65.405  1.00  0.00    -0.150 C  
HETATM   24  O   UNL     1     -11.258  16.827  64.283  1.00  0.00    -1.163 OA 
BRANCH  23  25
HETATM   25  O   UNL     1      -9.838  17.778  65.787  1.00  0.00    -0.541 OA 
BRANCH  25  26
HETATM   26  C   UNL     1     -10.367  19.083  66.014  1.00  0.00    -0.446 C  
HETATM   27  C   UNL     1      -9.879  19.771  67.286  1.00  0.00    -0.384 C  
HETATM   28  O   UNL     1      -8.647  20.325  67.176  1.00  0.00    -0.331 OA 
HETATM   29  O   UNL     1     -10.530  19.832  68.320  1.00  0.00    -0.431 OA 
ENDBRANCH  25  26
ENDBRANCH  23  25
ENDBRANCH  22  23
ENDBRANCH  13  22
ENDBRANCH   2   3
TORSDOF 6
ENDMDL
MODEL       54
REMARK 921   NORMALIZED FREE ENERGY PREDICTED BY IDOCK:   -5.87 KCAL/MOL
REMARK 922        TOTAL FREE ENERGY PREDICTED BY IDOCK:   -9.09 KCAL/MOL
REMARK 923 INTER-LIGAND FREE ENERGY PREDICTED BY IDOCK:   -7.95 KCAL/MOL
REMARK 924 INTRA-LIGAND FREE ENERGY PREDICTED BY IDOCK:   -1.14 KCAL/MOL
REMARK 927      BINDING AFFINITY PREDICTED BY RF-SCORE:    0.00 PKD
ROOT
HETATM    1  C   UNL     1     -12.903  11.975  63.587  1.00  0.00    -0.346 C  
HETATM    2  O   UNL     1     -12.997  12.492  64.908  1.00  0.00    -0.821 OA 
ENDROOT
BRANCH   2   3
HETATM    3  C   UNL     1     -11.826  12.709  65.579  1.00  0.00    -0.431 A  
HETATM    4  C   UNL     1     -11.275  11.879  66.558  1.00  0.00    -0.383 A  
HETATM    5  C   UNL     1     -10.067  12.242  67.207  1.00  0.00    -0.212 A  
HETATM    6  C   UNL     1      -9.455  13.455  66.879  1.00  0.00    -0.253 A  
HETATM    7  N   UNL     1      -8.372  13.651  67.755  1.00  0.00    -0.166 N  
HETATM    8  C   UNL     1      -9.941  14.229  65.806  1.00  0.00    -0.346 A  
HETATM    9  C   UNL     1      -7.620  14.855  67.910  1.00  0.00    -0.136 C  
HETATM   10  C   UNL     1     -11.139  13.852  65.190  1.00  0.00    -0.334 A  
HETATM   11  C   UNL     1      -8.160  12.430  68.427  1.00  0.00    -0.143 A  
HETATM   12  O   UNL     1      -6.466  14.760  68.326  1.00  0.00    -0.099 OA 
HETATM   13  C   UNL     1      -9.216  11.572  68.135  1.00  0.00    -0.181 A  
HETATM   14  C   UNL     1      -7.007  12.143  69.334  1.00  0.00     0.043 C  
BRANCH   9  15
HETATM   15  C   UNL     1      -8.089  16.237  67.604  1.00  0.00    -0.161 A  
HETATM   16  C   UNL     1      -7.591  16.978  66.526  1.00  0.00    -0.326 A  
HETATM   17  C   UNL     1      -8.942  18.870  67.198  1.00  0.00    -0.284 A  
HETATM   18 CL   UNL     1      -9.387  20.520  67.010  1.00  0.00    -0.507 Cl 
HETATM   19  C   UNL     1      -7.993  18.305  66.345  1.00  0.00    -0.290 A  
HETATM   20  C   UNL     1      -9.524  18.107  68.207  1.00  0.00    -0.315 A  
HETATM   21  C   UNL     1      -9.098  16.791  68.410  1.00  0.00    -0.233 A  
ENDBRANCH   9  15
BRANCH  13  22
HETATM   22  C   UNL     1      -9.362  10.156  68.614  1.00  0.00    -0.161 C  
BRANCH  22  23
HETATM   23  C   UNL     1     -10.207   9.980  69.851  1.00  0.00    -0.260 C  
HETATM   24  O   UNL     1     -11.043  10.791  70.243  1.00  0.00    -0.276 OA 
BRANCH  23  25
HETATM   25  O   UNL     1      -9.985   8.786  70.461  1.00  0.00    -0.175 OA 
BRANCH  25  26
HETATM   26  C   UNL     1     -11.075   7.869  70.383  1.00  0.00    -0.245 C  
HETATM   27  C   UNL     1     -11.691   7.475  71.723  1.00  0.00    -0.284 C  
HETATM   28  O   UNL     1     -12.544   8.396  72.231  1.00  0.00    -0.348 OA 
HETATM   29  O   UNL     1     -11.451   6.422  72.298  1.00  0.00    -0.273 OA 
ENDBRANCH  25  26
ENDBRANCH  23  25
ENDBRANCH  22  23
ENDBRANCH  13  22
ENDBRANCH   2   3
TORSDOF 6
ENDMDL
MODEL       55
REMARK 921   NORMALIZED FREE ENERGY PREDICTED BY IDOCK:   -5.83 KCAL/MOL
REMARK 922        TOTAL FREE ENERGY PREDICTED BY IDOCK:   -9.02 KCAL/MOL
REMARK 923 INTER-LIGAND FREE ENERGY PREDICTED BY IDOCK:   -7.40 KCAL/MOL
REMARK 924 INTRA-LIGAND FREE ENERGY PREDICTED BY IDOCK:   -1.63 KCAL/MOL
REMARK 927      BINDING AFFINITY PREDICTED BY RF-SCORE:    0.00 PKD
ROOT
HETATM    1  C   UNL     1     -13.592   9.410  72.272  1.00  0.00    -0.462 C  
HETATM    2  O   UNL     1     -12.890  10.531  71.749  1.00  0.00    -0.429 OA 
ENDROOT
BRANCH   2   3
HETATM    3  C   UNL     1     -11.965  10.288  70.771  1.00  0.00    -0.360 A  
HETATM    4  C   UNL     1     -10.707   9.712  70.956  1.00  0.00    -0.393 A  
HETATM    5  C   UNL     1      -9.825   9.551  69.857  1.00  0.00    -0.254 A  
HETATM    6  C   UNL     1     -10.218  10.007  68.595  1.00  0.00    -0.180 A  
HETATM    7  N   UNL     1      -9.125   9.871  67.719  1.00  0.00    -0.131 N  
HETATM    8  C   UNL     1     -11.533  10.471  68.385  1.00  0.00    -0.285 A  
HETATM    9  C   UNL     1      -9.027  10.417  66.403  1.00  0.00    -0.149 C  
HETATM   10  C   UNL     1     -12.377  10.628  69.489  1.00  0.00    -0.154 A  
HETATM   11  C   UNL     1      -8.165   9.078  68.379  1.00  0.00    -0.116 A  
HETATM   12  O   UNL     1      -8.275   9.857  65.607  1.00  0.00    -0.128 OA 
HETATM   13  C   UNL     1      -8.560   8.912  69.704  1.00  0.00    -0.131 A  
HETATM   14  C   UNL     1      -6.914   8.552  67.752  1.00  0.00    -0.075 C  
BRANCH   9  15
HETATM   15  C   UNL     1      -9.761  11.605  65.880  1.00  0.00    -0.260 A  
HETATM   16  C   UNL     1      -9.601  12.885  66.423  1.00  0.00    -0.252 A  
HETATM   17  C   UNL     1     -11.284  13.741  64.910  1.00  0.00    -0.349 A  
HETATM   18 CL   UNL     1     -12.294  15.030  64.386  1.00  0.00    -0.408 Cl 
HETATM   19  C   UNL     1     -10.387  13.944  65.960  1.00  0.00    -0.310 A  
HETATM   20  C   UNL     1     -11.372  12.497  64.291  1.00  0.00    -0.417 A  
HETATM   21  C   UNL     1     -10.611  11.430  64.775  1.00  0.00    -0.377 A  
ENDBRANCH   9  15
BRANCH  13  22
HETATM   22  C   UNL     1      -7.841   8.100  70.744  1.00  0.00    -0.089 C  
BRANCH  22  23
HETATM   23  C   UNL     1      -8.366   6.700  70.941  1.00  0.00    -0.125 C  
HETATM   24  O   UNL     1      -8.555   6.176  72.037  1.00  0.00    -0.131 OA 
BRANCH  23  25
HETATM   25  O   UNL     1      -8.668   6.093  69.764  1.00  0.00    -0.132 OA 
BRANCH  25  26
HETATM   26  C   UNL     1      -9.895   5.365  69.770  1.00  0.00    -0.201 C  
HETATM   27  C   UNL     1     -11.130   6.169  69.373  1.00  0.00    -0.409 C  
HETATM   28  O   UNL     1     -11.274   6.337  68.036  1.00  0.00    -0.323 OA 
HETATM   29  O   UNL     1     -11.933   6.622  70.177  1.00  0.00    -0.367 OA 
ENDBRANCH  25  26
ENDBRANCH  23  25
ENDBRANCH  22  23
ENDBRANCH  13  22
ENDBRANCH   2   3
TORSDOF 6
ENDMDL
MODEL       56
REMARK 921   NORMALIZED FREE ENERGY PREDICTED BY IDOCK:   -5.82 KCAL/MOL
REMARK 922        TOTAL FREE ENERGY PREDICTED BY IDOCK:   -9.01 KCAL/MOL
REMARK 923 INTER-LIGAND FREE ENERGY PREDICTED BY IDOCK:   -7.66 KCAL/MOL
REMARK 924 INTRA-LIGAND FREE ENERGY PREDICTED BY IDOCK:   -1.35 KCAL/MOL
REMARK 927      BINDING AFFINITY PREDICTED BY RF-SCORE:    0.00 PKD
ROOT
HETATM    1  C   UNL     1     -12.094   9.885  71.667  1.00  0.00    -0.373 C  
HETATM    2  O   UNL     1     -12.206  11.173  71.075  1.00  0.00    -0.356 OA 
ENDROOT
BRANCH   2   3
HETATM    3  C   UNL     1     -11.835  11.293  69.764  1.00  0.00    -0.364 A  
HETATM    4  C   UNL     1     -11.263  10.291  68.978  1.00  0.00    -0.260 A  
HETATM    5  C   UNL     1     -10.887  10.561  67.638  1.00  0.00    -0.355 A  
HETATM    6  C   UNL     1     -11.064  11.849  67.125  1.00  0.00    -0.293 A  
HETATM    7  N   UNL     1     -10.483  11.897  65.845  1.00  0.00    -0.249 N  
HETATM    8  C   UNL     1     -11.755  12.823  67.876  1.00  0.00    -0.408 A  
HETATM    9  C   UNL     1     -10.248  13.073  65.069  1.00  0.00    -0.269 C  
HETATM   10  C   UNL     1     -12.105  12.532  69.198  1.00  0.00    -0.187 A  
HETATM   11  C   UNL     1     -10.203  10.567  65.471  1.00  0.00    -0.256 A  
HETATM   12  O   UNL     1     -10.185  12.948  63.847  1.00  0.00    -0.383 OA 
HETATM   13  C   UNL     1     -10.403   9.743  66.574  1.00  0.00    -0.262 A  
HETATM   14  C   UNL     1      -9.726  10.142  64.120  1.00  0.00    -0.301 C  
BRANCH   9  15
HETATM   15  C   UNL     1     -10.080  14.459  65.592  1.00  0.00    -0.377 A  
HETATM   16  C   UNL     1      -9.167  14.774  66.605  1.00  0.00    -0.300 A  
HETATM   17  C   UNL     1      -9.937  17.068  66.590  1.00  0.00    -0.302 A  
HETATM   18 CL   UNL     1      -9.922  18.644  67.275  1.00  0.00    -0.335 Cl 
HETATM   19  C   UNL     1      -9.120  16.071  67.125  1.00  0.00    -0.224 A  
HETATM   20  C   UNL     1     -10.771  16.790  65.511  1.00  0.00    -0.206 A  
HETATM   21  C   UNL     1     -10.841  15.487  65.011  1.00  0.00    -0.468 A  
ENDBRANCH   9  15
BRANCH  13  22
HETATM   22  C   UNL     1     -10.256   8.248  66.598  1.00  0.00    -0.333 C  
BRANCH  22  23
HETATM   23  C   UNL     1      -8.875   7.744  66.939  1.00  0.00    -0.131 C  
HETATM   24  O   UNL     1      -8.186   7.048  66.198  1.00  0.00    -0.112 OA 
BRANCH  23  25
HETATM   25  O   UNL     1      -8.445   8.198  68.146  1.00  0.00    -0.125 OA 
BRANCH  25  26
HETATM   26  C   UNL     1      -7.322   9.075  68.083  1.00  0.00    -0.083 C  
HETATM   27  C   UNL     1      -7.392  10.290  69.005  1.00  0.00    -0.092 C  
HETATM   28  O   UNL     1      -7.072  10.024  70.294  1.00  0.00    -0.137 OA 
HETATM   29  O   UNL     1      -7.703  11.412  68.629  1.00  0.00    -0.124 OA 
ENDBRANCH  25  26
ENDBRANCH  23  25
ENDBRANCH  22  23
ENDBRANCH  13  22
ENDBRANCH   2   3
TORSDOF 6
ENDMDL
MODEL       57
REMARK 921   NORMALIZED FREE ENERGY PREDICTED BY IDOCK:   -5.79 KCAL/MOL
REMARK 922        TOTAL FREE ENERGY PREDICTED BY IDOCK:   -8.97 KCAL/MOL
REMARK 923 INTER-LIGAND FREE ENERGY PREDICTED BY IDOCK:   -7.90 KCAL/MOL
REMARK 924 INTRA-LIGAND FREE ENERGY PREDICTED BY IDOCK:   -1.06 KCAL/MOL
REMARK 927      BINDING AFFINITY PREDICTED BY RF-SCORE:    0.00 PKD
ROOT
HETATM    1  C   UNL     1      -5.301  14.338  71.127  1.00  0.00    -0.164 C  
HETATM    2  O   UNL     1      -5.147  14.434  69.716  1.00  0.00    -0.092 OA 
ENDROOT
BRANCH   2   3
HETATM    3  C   UNL     1      -6.287  14.542  68.969  1.00  0.00    -0.095 A  
HETATM    4  C   UNL     1      -6.648  15.632  68.175  1.00  0.00    -0.135 A  
HETATM    5  C   UNL     1      -7.883  15.632  67.479  1.00  0.00    -0.184 A  
HETATM    6  C   UNL     1      -8.749  14.545  67.626  1.00  0.00    -0.183 A  
HETATM    7  N   UNL     1      -9.953  14.850  66.965  1.00  0.00    -0.237 N  
HETATM    8  C   UNL     1      -8.331  13.394  68.325  1.00  0.00    -0.160 A  
HETATM    9  C   UNL     1     -11.174  14.114  67.055  1.00  0.00    -0.318 C  
HETATM   10  C   UNL     1      -7.112  13.425  69.009  1.00  0.00    -0.053 A  
HETATM   11  C   UNL     1      -9.715  16.000  66.186  1.00  0.00    -0.324 A  
HETATM   12  O   UNL     1     -11.961  14.196  66.113  1.00  0.00    -0.387 OA 
HETATM   13  C   UNL     1      -8.467  16.516  66.524  1.00  0.00    -0.328 A  
HETATM   14  C   UNL     1     -10.678  16.578  65.199  1.00  0.00    -0.261 C  
BRANCH   9  15
HETATM   15  C   UNL     1     -11.595  13.232  68.181  1.00  0.00    -0.373 A  
HETATM   16  C   UNL     1     -12.022  13.741  69.413  1.00  0.00    -0.397 A  
HETATM   17  C   UNL     1     -12.240  11.489  70.272  1.00  0.00    -0.332 A  
HETATM   18 CL   UNL     1     -12.534  10.422  71.587  1.00  0.00    -0.493 Cl 
HETATM   19  C   UNL     1     -12.311  12.869  70.467  1.00  0.00    -0.362 A  
HETATM   20  C   UNL     1     -11.921  10.972  69.019  1.00  0.00    -0.364 A  
HETATM   21  C   UNL     1     -11.600  11.843  67.974  1.00  0.00    -0.401 A  
ENDBRANCH   9  15
BRANCH  13  22
HETATM   22  C   UNL     1      -7.809  17.714  65.901  1.00  0.00    -0.109 C  
BRANCH  22  23
HETATM   23  C   UNL     1      -6.925  18.514  66.825  1.00  0.00    -0.194 C  
HETATM   24  O   UNL     1      -5.742  18.768  66.608  1.00  0.00    -0.150 OA 
BRANCH  23  25
HETATM   25  O   UNL     1      -7.600  18.982  67.907  1.00  0.00    -0.254 OA 
BRANCH  25  26
HETATM   26  C   UNL     1      -8.624  19.928  67.604  1.00  0.00    -0.330 C  
HETATM   27  C   UNL     1     -10.002  19.600  68.174  1.00  0.00    -0.437 C  
HETATM   28  O   UNL     1     -10.145  19.913  69.485  1.00  0.00    -0.315 OA 
HETATM   29  O   UNL     1     -10.909  19.105  67.520  1.00  0.00    -0.473 OA 
ENDBRANCH  25  26
ENDBRANCH  23  25
ENDBRANCH  22  23
ENDBRANCH  13  22
ENDBRANCH   2   3
TORSDOF 6
ENDMDL
MODEL       58
REMARK 921   NORMALIZED FREE ENERGY PREDICTED BY IDOCK:   -5.76 KCAL/MOL
REMARK 922        TOTAL FREE ENERGY PREDICTED BY IDOCK:   -8.94 KCAL/MOL
REMARK 923 INTER-LIGAND FREE ENERGY PREDICTED BY IDOCK:   -7.58 KCAL/MOL
REMARK 924 INTRA-LIGAND FREE ENERGY PREDICTED BY IDOCK:   -1.35 KCAL/MOL
REMARK 927      BINDING AFFINITY PREDICTED BY RF-SCORE:    0.00 PKD
ROOT
HETATM    1  C   UNL     1      -9.731  10.216  64.741  1.00  0.00    -0.322 C  
HETATM    2  O   UNL     1      -9.661   9.747  66.082  1.00  0.00    -0.208 OA 
ENDROOT
BRANCH   2   3
HETATM    3  C   UNL     1     -10.060  10.608  67.066  1.00  0.00    -0.211 A  
HETATM    4  C   UNL     1     -11.138  10.422  67.934  1.00  0.00    -0.363 A  
HETATM    5  C   UNL     1     -11.468  11.417  68.889  1.00  0.00    -0.363 A  
HETATM    6  C   UNL     1     -10.723  12.599  68.928  1.00  0.00    -0.164 A  
HETATM    7  N   UNL     1     -11.334  13.474  69.844  1.00  0.00    -0.106 N  
HETATM    8  C   UNL     1      -9.561  12.732  68.140  1.00  0.00    -0.223 A  
HETATM    9  C   UNL     1     -11.028  14.857  70.022  1.00  0.00    -0.206 C  
HETATM   10  C   UNL     1      -9.265  11.740  67.200  1.00  0.00    -0.179 A  
HETATM   11  C   UNL     1     -12.283  12.719  70.563  1.00  0.00    -0.307 A  
HETATM   12  O   UNL     1     -11.275  15.361  71.117  1.00  0.00    -0.343 OA 
HETATM   13  C   UNL     1     -12.407  11.470  69.960  1.00  0.00    -0.287 A  
HETATM   14  C   UNL     1     -13.050  13.214  71.747  1.00  0.00    -0.478 C  
BRANCH   9  15
HETATM   15  C   UNL     1     -10.420  15.767  69.010  1.00  0.00    -0.225 A  
HETATM   16  C   UNL     1     -11.108  16.181  67.863  1.00  0.00    -0.293 A  
HETATM   17  C   UNL     1      -9.140  17.369  67.106  1.00  0.00    -0.237 A  
HETATM   18 CL   UNL     1      -8.321  18.264  65.889  1.00  0.00    -0.030 Cl 
HETATM   19  C   UNL     1     -10.456  16.954  66.898  1.00  0.00    -0.271 A  
HETATM   20  C   UNL     1      -8.482  17.052  68.292  1.00  0.00    -0.233 A  
HETATM   21  C   UNL     1      -9.122  16.252  69.244  1.00  0.00    -0.185 A  
ENDBRANCH   9  15
BRANCH  13  22
HETATM   22  C   UNL     1     -13.283  10.345  70.433  1.00  0.00     0.000 C  
BRANCH  22  23
HETATM   23  C   UNL     1     -12.827   9.665  71.700  1.00  0.00    -0.405 C  
HETATM   24  O   UNL     1     -13.581   9.253  72.578  1.00  0.00    -0.467 OA 
BRANCH  23  25
HETATM   25  O   UNL     1     -11.478   9.501  71.740  1.00  0.00    -0.384 OA 
BRANCH  25  26
HETATM   26  C   UNL     1     -11.050   8.149  71.893  1.00  0.00    -0.285 C  
HETATM   27  C   UNL     1     -11.143   7.290  70.635  1.00  0.00    -0.264 C  
HETATM   28  O   UNL     1     -10.125   7.480  69.760  1.00  0.00    -0.187 OA 
HETATM   29  O   UNL     1     -12.045   6.492  70.421  1.00  0.00    -0.360 OA 
ENDBRANCH  25  26
ENDBRANCH  23  25
ENDBRANCH  22  23
ENDBRANCH  13  22
ENDBRANCH   2   3
TORSDOF 6
ENDMDL
MODEL       59
REMARK 921   NORMALIZED FREE ENERGY PREDICTED BY IDOCK:   -5.75 KCAL/MOL
REMARK 922        TOTAL FREE ENERGY PREDICTED BY IDOCK:   -8.92 KCAL/MOL
REMARK 923 INTER-LIGAND FREE ENERGY PREDICTED BY IDOCK:   -7.77 KCAL/MOL
REMARK 924 INTRA-LIGAND FREE ENERGY PREDICTED BY IDOCK:   -1.16 KCAL/MOL
REMARK 927      BINDING AFFINITY PREDICTED BY RF-SCORE:    0.00 PKD
ROOT
HETATM    1  C   UNL     1      -7.051   8.157  67.362  1.00  0.00    -0.083 C  
HETATM    2  O   UNL     1      -8.459   8.118  67.170  1.00  0.00    -0.121 OA 
ENDROOT
BRANCH   2   3
HETATM    3  C   UNL     1      -9.209   9.029  67.862  1.00  0.00    -0.141 A  
HETATM    4  C   UNL     1     -10.142   8.737  68.858  1.00  0.00    -0.210 A  
HETATM    5  C   UNL     1     -10.884   9.778  69.472  1.00  0.00    -0.264 A  
HETATM    6  C   UNL     1     -10.695  11.095  69.042  1.00  0.00    -0.225 A  
HETATM    7  N   UNL     1     -11.642  11.909  69.690  1.00  0.00    -0.316 N  
HETATM    8  C   UNL     1      -9.666  11.403  68.128  1.00  0.00    -0.194 A  
HETATM    9  C   UNL     1     -11.939  13.270  69.376  1.00  0.00    -0.301 C  
HETATM   10  C   UNL     1      -8.957  10.355  67.532  1.00  0.00    -0.138 A  
HETATM   11  C   UNL     1     -12.218  11.133  70.716  1.00  0.00    -0.385 A  
HETATM   12  O   UNL     1     -12.407  13.974  70.269  1.00  0.00    -0.329 OA 
HETATM   13  C   UNL     1     -11.797   9.815  70.567  1.00  0.00    -0.316 A  
HETATM   14  C   UNL     1     -13.158  11.653  71.755  1.00  0.00    -0.487 C  
BRANCH   9  15
HETATM   15  C   UNL     1     -11.727  13.942  68.062  1.00  0.00    -0.387 A  
HETATM   16  C   UNL     1     -10.866  15.035  67.907  1.00  0.00    -0.280 A  
HETATM   17  C   UNL     1     -11.502  15.211  65.578  1.00  0.00    -0.213 A  
HETATM   18 CL   UNL     1     -11.443  16.054  64.082  1.00  0.00    -0.247 Cl 
HETATM   19  C   UNL     1     -10.781  15.688  66.674  1.00  0.00    -0.296 A  
HETATM   20  C   UNL     1     -12.277  14.060  65.695  1.00  0.00    -0.462 A  
HETATM   21  C   UNL     1     -12.389  13.425  66.935  1.00  0.00    -0.262 A  
ENDBRANCH   9  15
BRANCH  13  22
HETATM   22  C   UNL     1     -12.145   8.669  71.473  1.00  0.00    -0.369 C  
BRANCH  22  23
HETATM   23  C   UNL     1     -11.040   8.223  72.398  1.00  0.00    -0.377 C  
HETATM   24  O   UNL     1      -9.964   8.801  72.526  1.00  0.00    -0.245 OA 
BRANCH  23  25
HETATM   25  O   UNL     1     -11.390   7.132  73.130  1.00  0.00    -0.233 OA 
BRANCH  25  26
HETATM   26  C   UNL     1     -11.838   6.019  72.360  1.00  0.00    -0.231 C  
HETATM   27  C   UNL     1     -10.774   5.366  71.481  1.00  0.00    -0.192 C  
HETATM   28  O   UNL     1      -9.943   4.529  72.149  1.00  0.00    -0.169 OA 
HETATM   29  O   UNL     1     -10.669   5.564  70.279  1.00  0.00    -0.294 OA 
ENDBRANCH  25  26
ENDBRANCH  23  25
ENDBRANCH  22  23
ENDBRANCH  13  22
ENDBRANCH   2   3
TORSDOF 6
ENDMDL
MODEL       60
REMARK 921   NORMALIZED FREE ENERGY PREDICTED BY IDOCK:   -5.73 KCAL/MOL
REMARK 922        TOTAL FREE ENERGY PREDICTED BY IDOCK:   -8.90 KCAL/MOL
REMARK 923 INTER-LIGAND FREE ENERGY PREDICTED BY IDOCK:   -7.83 KCAL/MOL
REMARK 924 INTRA-LIGAND FREE ENERGY PREDICTED BY IDOCK:   -1.07 KCAL/MOL
REMARK 927      BINDING AFFINITY PREDICTED BY RF-SCORE:    0.00 PKD
ROOT
HETATM    1  C   UNL     1     -13.018  11.925  63.437  1.00  0.00    -0.115 C  
HETATM    2  O   UNL     1     -13.086  12.663  64.651  1.00  0.00    -0.821 OA 
ENDROOT
BRANCH   2   3
HETATM    3  C   UNL     1     -11.913  12.862  65.327  1.00  0.00    -0.419 A  
HETATM    4  C   UNL     1     -11.310  11.962  66.207  1.00  0.00    -0.394 A  
HETATM    5  C   UNL     1     -10.109  12.311  66.875  1.00  0.00    -0.224 A  
HETATM    6  C   UNL     1      -9.557  13.579  66.669  1.00  0.00    -0.278 A  
HETATM    7  N   UNL     1      -8.469  13.732  67.548  1.00  0.00    -0.183 N  
HETATM    8  C   UNL     1     -10.096  14.436  65.688  1.00  0.00    -0.377 A  
HETATM    9  C   UNL     1      -7.769  14.948  67.818  1.00  0.00    -0.161 C  
HETATM   10  C   UNL     1     -11.286  14.071  65.052  1.00  0.00    -0.352 A  
HETATM   11  C   UNL     1      -8.191  12.459  68.085  1.00  0.00    -0.173 A  
HETATM   12  O   UNL     1      -6.605  14.863  68.207  1.00  0.00    -0.097 OA 
HETATM   13  C   UNL     1      -9.213  11.589  67.717  1.00  0.00    -0.165 A  
HETATM   14  C   UNL     1      -7.011  12.133  68.943  1.00  0.00    -0.102 C  
BRANCH   9  15
HETATM   15  C   UNL     1      -8.305  16.330  67.665  1.00  0.00    -0.172 A  
HETATM   16  C   UNL     1      -9.181  16.904  68.594  1.00  0.00    -0.265 A  
HETATM   17  C   UNL     1      -9.355  18.884  67.215  1.00  0.00    -0.293 A  
HETATM   18 CL   UNL     1     -10.080  20.407  66.887  1.00  0.00    -0.569 Cl 
HETATM   19  C   UNL     1      -9.730  18.166  68.351  1.00  0.00    -0.363 A  
HETATM   20  C   UNL     1      -8.402  18.368  66.340  1.00  0.00    -0.272 A  
HETATM   21  C   UNL     1      -7.877  17.093  66.565  1.00  0.00    -0.325 A  
ENDBRANCH   9  15
BRANCH  13  22
HETATM   22  C   UNL     1      -9.287  10.125  68.047  1.00  0.00    -0.149 C  
BRANCH  22  23
HETATM   23  C   UNL     1      -8.469   9.223  67.156  1.00  0.00    -0.124 C  
HETATM   24  O   UNL     1      -7.492   9.588  66.506  1.00  0.00    -0.092 OA 
BRANCH  23  25
HETATM   25  O   UNL     1      -8.897   7.934  67.196  1.00  0.00    -0.128 OA 
BRANCH  25  26
HETATM   26  C   UNL     1     -10.235   7.738  66.743  1.00  0.00    -0.276 C  
HETATM   27  C   UNL     1     -10.830   6.366  67.049  1.00  0.00    -0.392 C  
HETATM   28  O   UNL     1     -11.275   6.228  68.321  1.00  0.00    -0.328 OA 
HETATM   29  O   UNL     1     -10.913   5.462  66.229  1.00  0.00    -0.221 OA 
ENDBRANCH  25  26
ENDBRANCH  23  25
ENDBRANCH  22  23
ENDBRANCH  13  22
ENDBRANCH   2   3
TORSDOF 6
ENDMDL
MODEL       61
REMARK 921   NORMALIZED FREE ENERGY PREDICTED BY IDOCK:   -5.71 KCAL/MOL
REMARK 922        TOTAL FREE ENERGY PREDICTED BY IDOCK:   -8.87 KCAL/MOL
REMARK 923 INTER-LIGAND FREE ENERGY PREDICTED BY IDOCK:   -7.71 KCAL/MOL
REMARK 924 INTRA-LIGAND FREE ENERGY PREDICTED BY IDOCK:   -1.16 KCAL/MOL
REMARK 927      BINDING AFFINITY PREDICTED BY RF-SCORE:    0.00 PKD
ROOT
HETATM    1  C   UNL     1      -5.433  11.453  69.145  1.00  0.00    -0.043 C  
HETATM    2  O   UNL     1      -5.192  12.777  68.685  1.00  0.00    -0.055 OA 
ENDROOT
BRANCH   2   3
HETATM    3  C   UNL     1      -6.251  13.642  68.688  1.00  0.00    -0.088 A  
HETATM    4  C   UNL     1      -7.600  13.289  68.614  1.00  0.00    -0.094 A  
HETATM    5  C   UNL     1      -8.602  14.292  68.588  1.00  0.00    -0.149 A  
HETATM    6  C   UNL     1      -8.221  15.637  68.601  1.00  0.00    -0.168 A  
HETATM    7  N   UNL     1      -9.374  16.422  68.417  1.00  0.00    -0.211 N  
HETATM    8  C   UNL     1      -6.871  15.991  68.802  1.00  0.00    -0.132 A  
HETATM    9  C   UNL     1      -9.405  17.824  68.149  1.00  0.00    -0.281 C  
HETATM   10  C   UNL     1      -5.903  14.981  68.815  1.00  0.00    -0.085 A  
HETATM   11  C   UNL     1     -10.483  15.566  68.572  1.00  0.00    -0.238 A  
HETATM   12  O   UNL     1     -10.417  18.445  68.471  1.00  0.00    -0.326 OA 
HETATM   13  C   UNL     1     -10.026  14.253  68.633  1.00  0.00    -0.234 A  
HETATM   14  C   UNL     1     -11.908  16.014  68.616  1.00  0.00    -0.174 C  
BRANCH   9  15
HETATM   15  C   UNL     1      -8.319  18.630  67.522  1.00  0.00    -0.279 A  
HETATM   16  C   UNL     1      -7.567  19.567  68.241  1.00  0.00    -0.346 A  
HETATM   17  C   UNL     1      -6.391  20.183  66.218  1.00  0.00    -0.196 A  
HETATM   18 CL   UNL     1      -5.282  21.208  65.398  1.00  0.00    -0.236 Cl 
HETATM   19  C   UNL     1      -6.628  20.365  67.581  1.00  0.00    -0.312 A  
HETATM   20  C   UNL     1      -7.056  19.180  65.517  1.00  0.00    -0.197 A  
HETATM   21  C   UNL     1      -8.018  18.403  66.168  1.00  0.00    -0.217 A  
ENDBRANCH   9  15
BRANCH  13  22
HETATM   22  C   UNL     1     -10.877  13.030  68.835  1.00  0.00    -0.244 C  
BRANCH  22  23
HETATM   23  C   UNL     1     -11.389  12.388  67.570  1.00  0.00    -0.315 C  
HETATM   24  O   UNL     1     -11.901  11.272  67.515  1.00  0.00    -0.613 OA 
BRANCH  23  25
HETATM   25  O   UNL     1     -11.277  13.209  66.493  1.00  0.00    -0.295 OA 
BRANCH  25  26
HETATM   26  C   UNL     1     -12.397  13.186  65.610  1.00  0.00    -0.461 C  
HETATM   27  C   UNL     1     -12.133  13.734  64.210  1.00  0.00    -0.440 C  
HETATM   28  O   UNL     1     -11.505  12.862  63.385  1.00  0.00    -0.475 OA 
HETATM   29  O   UNL     1     -12.458  14.856  63.847  1.00  0.00    -0.806 OA 
ENDBRANCH  25  26
ENDBRANCH  23  25
ENDBRANCH  22  23
ENDBRANCH  13  22
ENDBRANCH   2   3
TORSDOF 6
ENDMDL
MODEL       62
REMARK 921   NORMALIZED FREE ENERGY PREDICTED BY IDOCK:   -5.70 KCAL/MOL
REMARK 922        TOTAL FREE ENERGY PREDICTED BY IDOCK:   -8.86 KCAL/MOL
REMARK 923 INTER-LIGAND FREE ENERGY PREDICTED BY IDOCK:   -7.70 KCAL/MOL
REMARK 924 INTRA-LIGAND FREE ENERGY PREDICTED BY IDOCK:   -1.16 KCAL/MOL
REMARK 927      BINDING AFFINITY PREDICTED BY RF-SCORE:    0.00 PKD
ROOT
HETATM    1  C   UNL     1     -12.889  11.908  63.339  1.00  0.00    -0.256 C  
HETATM    2  O   UNL     1     -13.017  12.451  64.647  1.00  0.00    -0.793 OA 
ENDROOT
BRANCH   2   3
HETATM    3  C   UNL     1     -11.861  12.720  65.327  1.00  0.00    -0.403 A  
HETATM    4  C   UNL     1     -11.253  11.892  66.273  1.00  0.00    -0.392 A  
HETATM    5  C   UNL     1     -10.072  12.310  66.936  1.00  0.00    -0.224 A  
HETATM    6  C   UNL     1      -9.544  13.574  66.657  1.00  0.00    -0.278 A  
HETATM    7  N   UNL     1      -8.475  13.808  67.542  1.00  0.00    -0.183 N  
HETATM    8  C   UNL     1     -10.084  14.355  65.615  1.00  0.00    -0.377 A  
HETATM    9  C   UNL     1      -7.807  15.054  67.744  1.00  0.00    -0.148 C  
HETATM   10  C   UNL     1     -11.255  13.922  64.984  1.00  0.00    -0.342 A  
HETATM   11  C   UNL     1      -8.180  12.579  68.165  1.00  0.00    -0.170 A  
HETATM   12  O   UNL     1      -6.648  15.021  68.157  1.00  0.00    -0.104 OA 
HETATM   13  C   UNL     1      -9.176  11.664  67.838  1.00  0.00    -0.171 A  
HETATM   14  C   UNL     1      -7.008  12.335  69.061  1.00  0.00    -0.078 C  
BRANCH   9  15
HETATM   15  C   UNL     1      -8.369  16.412  67.494  1.00  0.00    -0.176 A  
HETATM   16  C   UNL     1      -8.034  17.166  66.363  1.00  0.00    -0.346 A  
HETATM   17  C   UNL     1      -9.380  19.002  67.185  1.00  0.00    -0.307 A  
HETATM   18 CL   UNL     1      -9.917  20.629  67.047  1.00  0.00    -0.512 Cl 
HETATM   19  C   UNL     1      -8.514  18.473  66.227  1.00  0.00    -0.227 A  
HETATM   20  C   UNL     1      -9.805  18.221  68.257  1.00  0.00    -0.366 A  
HETATM   21  C   UNL     1      -9.301  16.927  68.410  1.00  0.00    -0.255 A  
ENDBRANCH   9  15
BRANCH  13  22
HETATM   22  C   UNL     1      -9.224  10.223  68.260  1.00  0.00    -0.139 C  
BRANCH  22  23
HETATM   23  C   UNL     1     -10.020   9.947  69.511  1.00  0.00    -0.222 C  
HETATM   24  O   UNL     1     -10.914  10.672  69.941  1.00  0.00    -0.270 OA 
BRANCH  23  25
HETATM   25  O   UNL     1      -9.681   8.763  70.087  1.00  0.00    -0.165 OA 
BRANCH  25  26
HETATM   26  C   UNL     1     -10.693   7.761  70.024  1.00  0.00    -0.244 C  
HETATM   27  C   UNL     1     -10.547   6.760  68.881  1.00  0.00    -0.228 C  
HETATM   28  O   UNL     1      -9.638   5.782  69.115  1.00  0.00    -0.128 OA 
HETATM   29  O   UNL     1     -11.188   6.816  67.841  1.00  0.00    -0.199 OA 
ENDBRANCH  25  26
ENDBRANCH  23  25
ENDBRANCH  22  23
ENDBRANCH  13  22
ENDBRANCH   2   3
TORSDOF 6
ENDMDL
MODEL       63
REMARK 921   NORMALIZED FREE ENERGY PREDICTED BY IDOCK:   -5.70 KCAL/MOL
REMARK 922        TOTAL FREE ENERGY PREDICTED BY IDOCK:   -8.85 KCAL/MOL
REMARK 923 INTER-LIGAND FREE ENERGY PREDICTED BY IDOCK:   -7.58 KCAL/MOL
REMARK 924 INTRA-LIGAND FREE ENERGY PREDICTED BY IDOCK:   -1.27 KCAL/MOL
REMARK 927      BINDING AFFINITY PREDICTED BY RF-SCORE:    0.00 PKD
ROOT
HETATM    1  C   UNL     1      -9.588   4.541  64.591  1.00  0.00    -0.071 C  
HETATM    2  O   UNL     1      -8.636   5.276  65.351  1.00  0.00    -0.138 OA 
ENDROOT
BRANCH   2   3
HETATM    3  C   UNL     1      -9.114   6.281  66.146  1.00  0.00    -0.138 A  
HETATM    4  C   UNL     1      -8.822   7.640  66.015  1.00  0.00    -0.186 A  
HETATM    5  C   UNL     1      -9.356   8.579  66.934  1.00  0.00    -0.219 A  
HETATM    6  C   UNL     1     -10.148   8.123  67.991  1.00  0.00    -0.197 A  
HETATM    7  N   UNL     1     -10.425   9.214  68.835  1.00  0.00    -0.222 N  
HETATM    8  C   UNL     1     -10.545   6.771  68.050  1.00  0.00    -0.283 A  
HETATM    9  C   UNL     1     -11.012   9.147  70.135  1.00  0.00    -0.239 C  
HETATM   10  C   UNL     1      -9.996   5.866  67.136  1.00  0.00    -0.187 A  
HETATM   11  C   UNL     1     -10.036  10.378  68.143  1.00  0.00    -0.149 A  
HETATM   12  O   UNL     1     -11.610  10.140  70.545  1.00  0.00    -0.280 OA 
HETATM   13  C   UNL     1      -9.340  10.003  66.997  1.00  0.00    -0.180 A  
HETATM   14  C   UNL     1     -10.299  11.775  68.605  1.00  0.00    -0.228 C  
BRANCH   9  15
HETATM   15  C   UNL     1     -10.985   7.976  71.059  1.00  0.00    -0.263 A  
HETATM   16  C   UNL     1      -9.834   7.599  71.761  1.00  0.00    -0.200 A  
HETATM   17  C   UNL     1     -11.008   5.686  72.665  1.00  0.00    -0.270 A  
HETATM   18 CL   UNL     1     -10.991   4.223  73.567  1.00  0.00    -0.345 Cl 
HETATM   19  C   UNL     1      -9.838   6.436  72.536  1.00  0.00    -0.175 A  
HETATM   20  C   UNL     1     -12.186   6.111  72.058  1.00  0.00    -0.192 A  
HETATM   21  C   UNL     1     -12.176   7.256  71.257  1.00  0.00    -0.389 A  
ENDBRANCH   9  15
BRANCH  13  22
HETATM   22  C   UNL     1      -8.784  10.934  65.957  1.00  0.00    -0.192 C  
BRANCH  22  23
HETATM   23  C   UNL     1      -9.759  11.357  64.887  1.00  0.00    -0.247 C  
HETATM   24  O   UNL     1     -10.215  10.609  64.026  1.00  0.00    -0.341 OA 
BRANCH  23  25
HETATM   25  O   UNL     1     -10.133  12.658  65.016  1.00  0.00    -0.282 OA 
BRANCH  25  26
HETATM   26  C   UNL     1     -11.480  12.848  65.445  1.00  0.00    -0.324 C  
HETATM   27  C   UNL     1     -12.418  13.442  64.397  1.00  0.00    -0.277 C  
HETATM   28  O   UNL     1     -12.869  12.544  63.487  1.00  0.00    -0.731 OA 
HETATM   29  O   UNL     1     -12.749  14.619  64.370  1.00  0.00    -0.636 OA 
ENDBRANCH  25  26
ENDBRANCH  23  25
ENDBRANCH  22  23
ENDBRANCH  13  22
ENDBRANCH   2   3
TORSDOF 6
ENDMDL
MODEL       64
REMARK 921   NORMALIZED FREE ENERGY PREDICTED BY IDOCK:   -5.65 KCAL/MOL
REMARK 922        TOTAL FREE ENERGY PREDICTED BY IDOCK:   -8.78 KCAL/MOL
REMARK 923 INTER-LIGAND FREE ENERGY PREDICTED BY IDOCK:   -7.07 KCAL/MOL
REMARK 924 INTRA-LIGAND FREE ENERGY PREDICTED BY IDOCK:   -1.71 KCAL/MOL
REMARK 927      BINDING AFFINITY PREDICTED BY RF-SCORE:    0.00 PKD
ROOT
HETATM    1  C   UNL     1     -13.124  12.396  63.899  1.00  0.00    -0.005 C  
HETATM    2  O   UNL     1     -13.038  13.392  64.911  1.00  0.00    -0.723 OA 
ENDROOT
BRANCH   2   3
HETATM    3  C   UNL     1     -11.922  13.385  65.701  1.00  0.00    -0.401 A  
HETATM    4  C   UNL     1     -10.874  14.307  65.651  1.00  0.00    -0.311 A  
HETATM    5  C   UNL     1      -9.752  14.161  66.505  1.00  0.00    -0.307 A  
HETATM    6  C   UNL     1      -9.691  13.065  67.371  1.00  0.00    -0.213 A  
HETATM    7  N   UNL     1      -8.428  13.065  67.992  1.00  0.00    -0.172 N  
HETATM    8  C   UNL     1     -10.801  12.207  67.510  1.00  0.00    -0.283 A  
HETATM    9  C   UNL     1      -7.874  12.007  68.774  1.00  0.00    -0.033 C  
HETATM   10  C   UNL     1     -11.891  12.369  66.648  1.00  0.00    -0.394 A  
HETATM   11  C   UNL     1      -7.833  14.312  67.713  1.00  0.00    -0.165 A  
HETATM   12  O   UNL     1      -7.022  12.301  69.612  1.00  0.00     0.047 OA 
HETATM   13  C   UNL     1      -8.611  14.975  66.769  1.00  0.00    -0.279 A  
HETATM   14  C   UNL     1      -6.553  14.801  68.311  1.00  0.00    -0.118 C  
BRANCH   9  15
HETATM   15  C   UNL     1      -8.232  10.562  68.691  1.00  0.00    -0.130 A  
HETATM   16  C   UNL     1      -7.930   9.777  67.572  1.00  0.00    -0.106 A  
HETATM   17  C   UNL     1      -9.067   7.894  68.581  1.00  0.00    -0.136 A  
HETATM   18 CL   UNL     1      -9.669   6.288  68.469  1.00  0.00    -0.129 Cl 
HETATM   19  C   UNL     1      -8.376   8.454  67.505  1.00  0.00    -0.129 A  
HETATM   20  C   UNL     1      -9.278   8.634  69.742  1.00  0.00    -0.154 A  
HETATM   21  C   UNL     1      -8.860   9.966  69.797  1.00  0.00    -0.229 A  
ENDBRANCH   9  15
BRANCH  13  22
HETATM   22  C   UNL     1      -8.356  16.352  66.225  1.00  0.00    -0.362 C  
BRANCH  22  23
HETATM   23  C   UNL     1      -9.335  17.410  66.669  1.00  0.00    -0.265 C  
HETATM   24  O   UNL     1     -10.207  17.896  65.953  1.00  0.00    -0.530 OA 
BRANCH  23  25
HETATM   25  O   UNL     1      -9.187  17.730  67.982  1.00  0.00    -0.260 OA 
BRANCH  25  26
HETATM   26  C   UNL     1     -10.406  17.787  68.720  1.00  0.00    -0.332 C  
HETATM   27  C   UNL     1     -10.949  16.438  69.185  1.00  0.00    -0.324 C  
HETATM   28  O   UNL     1     -10.339  15.949  70.291  1.00  0.00    -0.249 OA 
HETATM   29  O   UNL     1     -11.857  15.841  68.624  1.00  0.00    -0.385 OA 
ENDBRANCH  25  26
ENDBRANCH  23  25
ENDBRANCH  22  23
ENDBRANCH  13  22
ENDBRANCH   2   3
TORSDOF 6
ENDMDL
MODEL       65
REMARK 921   NORMALIZED FREE ENERGY PREDICTED BY IDOCK:   -5.62 KCAL/MOL
REMARK 922        TOTAL FREE ENERGY PREDICTED BY IDOCK:   -8.75 KCAL/MOL
REMARK 923 INTER-LIGAND FREE ENERGY PREDICTED BY IDOCK:   -7.29 KCAL/MOL
REMARK 924 INTRA-LIGAND FREE ENERGY PREDICTED BY IDOCK:   -1.46 KCAL/MOL
REMARK 927      BINDING AFFINITY PREDICTED BY RF-SCORE:    0.00 PKD
ROOT
HETATM    1  C   UNL     1     -13.825   9.195  72.485  1.00  0.00    -0.417 C  
HETATM    2  O   UNL     1     -13.251  10.411  72.021  1.00  0.00    -0.456 OA 
ENDROOT
BRANCH   2   3
HETATM    3  C   UNL     1     -12.234  10.315  71.112  1.00  0.00    -0.397 A  
HETATM    4  C   UNL     1     -11.148   9.440  71.184  1.00  0.00    -0.432 A  
HETATM    5  C   UNL     1     -10.138   9.470  70.190  1.00  0.00    -0.293 A  
HETATM    6  C   UNL     1     -10.224  10.408  69.157  1.00  0.00    -0.222 A  
HETATM    7  N   UNL     1      -9.042  10.336  68.399  1.00  0.00    -0.132 N  
HETATM    8  C   UNL     1     -11.380  11.203  69.016  1.00  0.00    -0.343 A  
HETATM    9  C   UNL     1      -8.627  11.263  67.394  1.00  0.00    -0.136 C  
HETATM   10  C   UNL     1     -12.356  11.159  70.016  1.00  0.00    -0.351 A  
HETATM   11  C   UNL     1      -8.364   9.168  68.802  1.00  0.00    -0.121 A  
HETATM   12  O   UNL     1      -7.864  10.855  66.520  1.00  0.00    -0.141 OA 
HETATM   13  C   UNL     1      -9.000   8.651  69.927  1.00  0.00    -0.149 A  
HETATM   14  C   UNL     1      -7.141   8.618  68.142  1.00  0.00    -0.082 C  
BRANCH   9  15
HETATM   15  C   UNL     1      -9.037  12.692  67.285  1.00  0.00    -0.191 A  
HETATM   16  C   UNL     1      -8.641  13.660  68.216  1.00  0.00    -0.170 A  
HETATM   17  C   UNL     1      -9.970  15.320  67.061  1.00  0.00    -0.234 A  
HETATM   18 CL   UNL     1     -10.626  16.907  66.984  1.00  0.00    -0.276 Cl 
HETATM   19  C   UNL     1      -9.135  14.965  68.121  1.00  0.00    -0.177 A  
HETATM   20  C   UNL     1     -10.283  14.392  66.071  1.00  0.00    -0.328 A  
HETATM   21  C   UNL     1      -9.816  13.080  66.182  1.00  0.00    -0.275 A  
ENDBRANCH   9  15
BRANCH  13  22
HETATM   22  C   UNL     1      -8.624   7.390  70.653  1.00  0.00    -0.141 C  
BRANCH  22  23
HETATM   23  C   UNL     1      -9.666   6.300  70.628  1.00  0.00    -0.176 C  
HETATM   24  O   UNL     1     -10.391   6.009  71.577  1.00  0.00    -0.202 OA 
BRANCH  23  25
HETATM   25  O   UNL     1      -9.762   5.707  69.409  1.00  0.00    -0.141 OA 
BRANCH  25  26
HETATM   26  C   UNL     1     -10.979   5.973  68.714  1.00  0.00    -0.312 C  
HETATM   27  C   UNL     1     -10.815   6.433  67.269  1.00  0.00    -0.385 C  
HETATM   28  O   UNL     1     -10.572   5.429  66.393  1.00  0.00    -0.280 OA 
HETATM   29  O   UNL     1     -10.899   7.601  66.913  1.00  0.00    -0.328 OA 
ENDBRANCH  25  26
ENDBRANCH  23  25
ENDBRANCH  22  23
ENDBRANCH  13  22
ENDBRANCH   2   3
TORSDOF 6
ENDMDL
MODEL       66
REMARK 921   NORMALIZED FREE ENERGY PREDICTED BY IDOCK:   -5.62 KCAL/MOL
REMARK 922        TOTAL FREE ENERGY PREDICTED BY IDOCK:   -8.74 KCAL/MOL
REMARK 923 INTER-LIGAND FREE ENERGY PREDICTED BY IDOCK:   -8.35 KCAL/MOL
REMARK 924 INTRA-LIGAND FREE ENERGY PREDICTED BY IDOCK:   -0.39 KCAL/MOL
REMARK 927      BINDING AFFINITY PREDICTED BY RF-SCORE:    0.00 PKD
ROOT
HETATM    1  C   UNL     1      -9.513   6.632  73.629  1.00  0.00    -0.164 C  
HETATM    2  O   UNL     1     -10.592   7.509  73.330  1.00  0.00    -0.375 OA 
ENDROOT
BRANCH   2   3
HETATM    3  C   UNL     1     -10.596   8.095  72.095  1.00  0.00    -0.290 A  
HETATM    4  C   UNL     1     -11.366   9.195  71.711  1.00  0.00    -0.451 A  
HETATM    5  C   UNL     1     -11.304   9.682  70.380  1.00  0.00    -0.337 A  
HETATM    6  C   UNL     1     -10.491   9.027  69.451  1.00  0.00    -0.222 A  
HETATM    7  N   UNL     1     -10.718   9.601  68.187  1.00  0.00    -0.231 N  
HETATM    8  C   UNL     1      -9.622   7.998  69.869  1.00  0.00    -0.171 A  
HETATM    9  C   UNL     1     -10.260   9.089  66.934  1.00  0.00    -0.269 C  
HETATM   10  C   UNL     1      -9.711   7.532  71.184  1.00  0.00    -0.168 A  
HETATM   11  C   UNL     1     -11.456  10.783  68.398  1.00  0.00    -0.288 A  
HETATM   12  O   UNL     1     -10.116   9.887  66.009  1.00  0.00    -0.259 OA 
HETATM   13  C   UNL     1     -11.860  10.823  69.730  1.00  0.00    -0.409 A  
HETATM   14  C   UNL     1     -11.778  11.790  67.342  1.00  0.00    -0.304 C  
BRANCH   9  15
HETATM   15  C   UNL     1      -9.923   7.670  66.628  1.00  0.00    -0.284 A  
HETATM   16  C   UNL     1      -8.665   7.283  66.150  1.00  0.00    -0.170 A  
HETATM   17  C   UNL     1      -9.436   4.997  65.961  1.00  0.00    -0.161 A  
HETATM   18 CL   UNL     1      -9.170   3.377  65.454  1.00  0.00    -0.148 Cl 
HETATM   19  C   UNL     1      -8.435   5.953  65.786  1.00  0.00    -0.148 A  
HETATM   20  C   UNL     1     -10.653   5.351  66.537  1.00  0.00    -0.353 A  
HETATM   21  C   UNL     1     -10.896   6.686  66.871  1.00  0.00    -0.415 A  
ENDBRANCH   9  15
BRANCH  13  22
HETATM   22  C   UNL     1     -12.635  11.931  70.385  1.00  0.00    -0.153 C  
BRANCH  22  23
HETATM   23  C   UNL     1     -11.999  13.296  70.301  1.00  0.00    -0.300 C  
HETATM   24  O   UNL     1     -10.900  13.521  69.799  1.00  0.00     0.083 OA 
BRANCH  23  25
HETATM   25  O   UNL     1     -12.807  14.272  70.792  1.00  0.00    -0.339 OA 
BRANCH  25  26
HETATM   26  C   UNL     1     -13.360  13.994  72.077  1.00  0.00    -0.427 C  
HETATM   27  C   UNL     1     -13.143  15.080  73.127  1.00  0.00    -0.511 C  
HETATM   28  O   UNL     1     -13.995  16.128  73.022  1.00  0.00    -0.516 OA 
HETATM   29  O   UNL     1     -12.284  15.024  73.997  1.00  0.00    -0.570 OA 
ENDBRANCH  25  26
ENDBRANCH  23  25
ENDBRANCH  22  23
ENDBRANCH  13  22
ENDBRANCH   2   3
TORSDOF 6
ENDMDL
MODEL       67
REMARK 921   NORMALIZED FREE ENERGY PREDICTED BY IDOCK:   -5.61 KCAL/MOL
REMARK 922        TOTAL FREE ENERGY PREDICTED BY IDOCK:   -8.73 KCAL/MOL
REMARK 923 INTER-LIGAND FREE ENERGY PREDICTED BY IDOCK:   -7.44 KCAL/MOL
REMARK 924 INTRA-LIGAND FREE ENERGY PREDICTED BY IDOCK:   -1.29 KCAL/MOL
REMARK 927      BINDING AFFINITY PREDICTED BY RF-SCORE:    0.00 PKD
ROOT
HETATM    1  C   UNL     1      -5.546  11.324  70.452  1.00  0.00    -0.134 C  
HETATM    2  O   UNL     1      -5.724  11.635  69.076  1.00  0.00    -0.050 OA 
ENDROOT
BRANCH   2   3
HETATM    3  C   UNL     1      -6.804  12.406  68.744  1.00  0.00    -0.092 A  
HETATM    4  C   UNL     1      -7.942  11.974  68.060  1.00  0.00    -0.149 A  
HETATM    5  C   UNL     1      -8.978  12.889  67.744  1.00  0.00    -0.191 A  
HETATM    6  C   UNL     1      -8.830  14.234  68.094  1.00  0.00    -0.183 A  
HETATM    7  N   UNL     1      -9.907  14.953  67.544  1.00  0.00    -0.217 N  
HETATM    8  C   UNL     1      -7.742  14.644  68.893  1.00  0.00    -0.141 A  
HETATM    9  C   UNL     1     -10.025  16.375  67.476  1.00  0.00    -0.250 C  
HETATM   10  C   UNL     1      -6.731  13.722  69.181  1.00  0.00    -0.112 A  
HETATM   11  C   UNL     1     -10.850  14.004  67.100  1.00  0.00    -0.286 A  
HETATM   12  O   UNL     1     -11.157  16.852  67.417  1.00  0.00    -0.146 OA 
HETATM   13  C   UNL     1     -10.277  12.738  67.175  1.00  0.00    -0.235 A  
HETATM   14  C   UNL     1     -12.218  14.331  66.595  1.00  0.00    -0.411 C  
BRANCH   9  15
HETATM   15  C   UNL     1      -8.903  17.357  67.480  1.00  0.00    -0.224 A  
HETATM   16  C   UNL     1      -8.636  18.186  68.576  1.00  0.00    -0.307 A  
HETATM   17  C   UNL     1      -6.855  19.257  67.335  1.00  0.00    -0.202 A  
HETATM   18 CL   UNL     1      -5.668  20.493  67.207  1.00  0.00    -0.203 Cl 
HETATM   19  C   UNL     1      -7.634  19.158  68.489  1.00  0.00    -0.369 A  
HETATM   20  C   UNL     1      -7.042  18.366  66.281  1.00  0.00    -0.287 A  
HETATM   21  C   UNL     1      -8.065  17.415  66.355  1.00  0.00    -0.315 A  
ENDBRANCH   9  15
BRANCH  13  22
HETATM   22  C   UNL     1     -10.954  11.441  66.835  1.00  0.00    -0.355 C  
BRANCH  22  23
HETATM   23  C   UNL     1     -11.286  10.561  68.014  1.00  0.00    -0.294 C  
HETATM   24  O   UNL     1     -10.664   9.546  68.322  1.00  0.00    -0.226 OA 
BRANCH  23  25
HETATM   25  O   UNL     1     -12.322  11.049  68.746  1.00  0.00    -0.533 OA 
BRANCH  25  26
HETATM   26  C   UNL     1     -11.956  11.559  70.026  1.00  0.00    -0.357 C  
HETATM   27  C   UNL     1     -12.408  10.716  71.216  1.00  0.00    -0.383 C  
HETATM   28  O   UNL     1     -11.625   9.637  71.458  1.00  0.00    -0.370 OA 
HETATM   29  O   UNL     1     -13.383  10.980  71.904  1.00  0.00    -0.422 OA 
ENDBRANCH  25  26
ENDBRANCH  23  25
ENDBRANCH  22  23
ENDBRANCH  13  22
ENDBRANCH   2   3
TORSDOF 6
ENDMDL
MODEL       68
REMARK 921   NORMALIZED FREE ENERGY PREDICTED BY IDOCK:   -5.61 KCAL/MOL
REMARK 922        TOTAL FREE ENERGY PREDICTED BY IDOCK:   -8.73 KCAL/MOL
REMARK 923 INTER-LIGAND FREE ENERGY PREDICTED BY IDOCK:   -7.39 KCAL/MOL
REMARK 924 INTRA-LIGAND FREE ENERGY PREDICTED BY IDOCK:   -1.34 KCAL/MOL
REMARK 927      BINDING AFFINITY PREDICTED BY RF-SCORE:    0.00 PKD
ROOT
HETATM    1  C   UNL     1     -12.864  12.175  63.400  1.00  0.00    -0.272 C  
HETATM    2  O   UNL     1     -12.985  12.519  64.774  1.00  0.00    -0.827 OA 
ENDROOT
BRANCH   2   3
HETATM    3  C   UNL     1     -11.828  12.755  65.464  1.00  0.00    -0.422 A  
HETATM    4  C   UNL     1     -11.243  11.902  66.402  1.00  0.00    -0.387 A  
HETATM    5  C   UNL     1     -10.056  12.287  67.077  1.00  0.00    -0.225 A  
HETATM    6  C   UNL     1      -9.501  13.543  66.817  1.00  0.00    -0.269 A  
HETATM    7  N   UNL     1      -8.432  13.744  67.710  1.00  0.00    -0.167 N  
HETATM    8  C   UNL     1     -10.019  14.348  65.782  1.00  0.00    -0.354 A  
HETATM    9  C   UNL     1      -7.739  14.973  67.932  1.00  0.00    -0.134 C  
HETATM   10  C   UNL     1     -11.195  13.948  65.140  1.00  0.00    -0.326 A  
HETATM   11  C   UNL     1      -8.165  12.501  68.318  1.00  0.00    -0.168 A  
HETATM   12  O   UNL     1      -6.584  14.910  68.350  1.00  0.00    -0.092 OA 
HETATM   13  C   UNL     1      -9.179  11.611  67.975  1.00  0.00    -0.178 A  
HETATM   14  C   UNL     1      -7.004  12.221  69.217  1.00  0.00     0.004 C  
BRANCH   9  15
HETATM   15  C   UNL     1      -8.272  16.345  67.695  1.00  0.00    -0.166 A  
HETATM   16  C   UNL     1      -9.256  16.919  68.508  1.00  0.00    -0.260 A  
HETATM   17  C   UNL     1      -9.296  18.876  67.086  1.00  0.00    -0.300 A  
HETATM   18 CL   UNL     1      -9.999  20.383  66.652  1.00  0.00    -0.551 Cl 
HETATM   19  C   UNL     1      -9.791  18.169  68.183  1.00  0.00    -0.350 A  
HETATM   20  C   UNL     1      -8.243  18.362  66.334  1.00  0.00    -0.280 A  
HETATM   21  C   UNL     1      -7.730  17.098  66.640  1.00  0.00    -0.300 A  
ENDBRANCH   9  15
BRANCH  13  22
HETATM   22  C   UNL     1      -9.259  10.166  68.379  1.00  0.00    -0.133 C  
BRANCH  22  23
HETATM   23  C   UNL     1      -9.181   9.176  67.243  1.00  0.00    -0.133 C  
HETATM   24  O   UNL     1      -9.847   8.146  67.171  1.00  0.00    -0.177 OA 
BRANCH  23  25
HETATM   25  O   UNL     1      -8.328   9.581  66.265  1.00  0.00    -0.114 OA 
BRANCH  25  26
HETATM   26  C   UNL     1      -8.630   9.073  64.967  1.00  0.00    -0.181 C  
HETATM   27  C   UNL     1      -8.734  10.124  63.865  1.00  0.00    -0.210 C  
HETATM   28  O   UNL     1      -7.538  10.545  63.388  1.00  0.00    -0.098 OA 
HETATM   29  O   UNL     1      -9.795  10.556  63.435  1.00  0.00    -0.315 OA 
ENDBRANCH  25  26
ENDBRANCH  23  25
ENDBRANCH  22  23
ENDBRANCH  13  22
ENDBRANCH   2   3
TORSDOF 6
ENDMDL
MODEL       69
REMARK 921   NORMALIZED FREE ENERGY PREDICTED BY IDOCK:   -5.57 KCAL/MOL
REMARK 922        TOTAL FREE ENERGY PREDICTED BY IDOCK:   -8.68 KCAL/MOL
REMARK 923 INTER-LIGAND FREE ENERGY PREDICTED BY IDOCK:   -7.39 KCAL/MOL
REMARK 924 INTRA-LIGAND FREE ENERGY PREDICTED BY IDOCK:   -1.29 KCAL/MOL
REMARK 927      BINDING AFFINITY PREDICTED BY RF-SCORE:    0.00 PKD
ROOT
HETATM    1  C   UNL     1      -6.218   8.098  67.979  1.00  0.00    -0.047 C  
HETATM    2  O   UNL     1      -7.499   8.229  67.375  1.00  0.00    -0.091 OA 
ENDROOT
BRANCH   2   3
HETATM    3  C   UNL     1      -8.434   8.967  68.047  1.00  0.00    -0.125 A  
HETATM    4  C   UNL     1      -9.428   8.464  68.888  1.00  0.00    -0.147 A  
HETATM    5  C   UNL     1     -10.363   9.341  69.496  1.00  0.00    -0.223 A  
HETATM    6  C   UNL     1     -10.298  10.709  69.215  1.00  0.00    -0.218 A  
HETATM    7  N   UNL     1     -11.409  11.333  69.809  1.00  0.00    -0.278 N  
HETATM    8  C   UNL     1      -9.221  11.229  68.468  1.00  0.00    -0.181 A  
HETATM    9  C   UNL     1     -11.842  12.675  69.585  1.00  0.00    -0.311 C  
HETATM   10  C   UNL     1      -8.319  10.341  67.874  1.00  0.00    -0.114 A  
HETATM   11  C   UNL     1     -11.992  10.391  70.681  1.00  0.00    -0.351 A  
HETATM   12  O   UNL     1     -12.495  13.221  70.473  1.00  0.00    -0.315 OA 
HETATM   13  C   UNL     1     -11.390   9.154  70.467  1.00  0.00    -0.300 A  
HETATM   14  C   UNL     1     -13.104  10.684  71.636  1.00  0.00    -0.555 C  
BRANCH   9  15
HETATM   15  C   UNL     1     -11.572  13.502  68.374  1.00  0.00    -0.378 A  
HETATM   16  C   UNL     1     -10.785  14.659  68.415  1.00  0.00    -0.242 A  
HETATM   17  C   UNL     1     -11.234  15.052  66.070  1.00  0.00    -0.310 A  
HETATM   18 CL   UNL     1     -11.113  16.060  64.683  1.00  0.00    -0.444 Cl 
HETATM   19  C   UNL     1     -10.645  15.451  67.271  1.00  0.00    -0.294 A  
HETATM   20  C   UNL     1     -11.928  13.847  65.993  1.00  0.00    -0.436 A  
HETATM   21  C   UNL     1     -12.095  13.072  67.143  1.00  0.00    -0.325 A  
ENDBRANCH   9  15
BRANCH  13  22
HETATM   22  C   UNL     1     -11.688   7.886  71.215  1.00  0.00    -0.313 C  
BRANCH  22  23
HETATM   23  C   UNL     1     -10.940   7.715  72.513  1.00  0.00    -0.324 C  
HETATM   24  O   UNL     1     -11.220   6.885  73.374  1.00  0.00    -0.162 OA 
BRANCH  23  25
HETATM   25  O   UNL     1      -9.870   8.549  72.605  1.00  0.00    -0.281 OA 
BRANCH  25  26
HETATM   26  C   UNL     1      -8.647   7.908  72.961  1.00  0.00    -0.188 C  
HETATM   27  C   UNL     1      -7.527   8.024  71.930  1.00  0.00    -0.084 C  
HETATM   28  O   UNL     1      -6.875   9.212  71.955  1.00  0.00    -0.288 OA 
HETATM   29  O   UNL     1      -7.228   7.133  71.149  1.00  0.00    -0.071 OA 
ENDBRANCH  25  26
ENDBRANCH  23  25
ENDBRANCH  22  23
ENDBRANCH  13  22
ENDBRANCH   2   3
TORSDOF 6
ENDMDL
MODEL       70
REMARK 921   NORMALIZED FREE ENERGY PREDICTED BY IDOCK:   -5.56 KCAL/MOL
REMARK 922        TOTAL FREE ENERGY PREDICTED BY IDOCK:   -8.67 KCAL/MOL
REMARK 923 INTER-LIGAND FREE ENERGY PREDICTED BY IDOCK:   -7.64 KCAL/MOL
REMARK 924 INTRA-LIGAND FREE ENERGY PREDICTED BY IDOCK:   -1.03 KCAL/MOL
REMARK 927      BINDING AFFINITY PREDICTED BY RF-SCORE:    0.00 PKD
ROOT
HETATM    1  C   UNL     1      -5.778  14.804  71.058  1.00  0.00    -0.094 C  
HETATM    2  O   UNL     1      -5.648  14.125  69.815  1.00  0.00    -0.093 OA 
ENDROOT
BRANCH   2   3
HETATM    3  C   UNL     1      -6.800  13.848  69.131  1.00  0.00    -0.108 A  
HETATM    4  C   UNL     1      -7.837  14.747  68.872  1.00  0.00    -0.152 A  
HETATM    5  C   UNL     1      -8.999  14.318  68.182  1.00  0.00    -0.189 A  
HETATM    6  C   UNL     1      -9.109  12.979  67.795  1.00  0.00    -0.200 A  
HETATM    7  N   UNL     1     -10.398  12.777  67.272  1.00  0.00    -0.231 N  
HETATM    8  C   UNL     1      -8.012  12.106  67.945  1.00  0.00    -0.150 A  
HETATM    9  C   UNL     1     -10.997  11.516  66.967  1.00  0.00    -0.294 C  
HETATM   10  C   UNL     1      -6.882  12.553  68.637  1.00  0.00    -0.088 A  
HETATM   11  C   UNL     1     -10.971  14.052  67.084  1.00  0.00    -0.296 A  
HETATM   12  O   UNL     1     -11.884  11.496  66.116  1.00  0.00    -0.318 OA 
HETATM   13  C   UNL     1     -10.145  15.002  67.678  1.00  0.00    -0.231 A  
HETATM   14  C   UNL     1     -12.273  14.311  66.399  1.00  0.00    -0.426 C  
BRANCH   9  15
HETATM   15  C   UNL     1     -10.645  10.201  67.574  1.00  0.00    -0.327 A  
HETATM   16  C   UNL     1     -10.206   9.114  66.808  1.00  0.00    -0.331 A  
HETATM   17  C   UNL     1     -10.137   7.736  68.796  1.00  0.00    -0.196 A  
HETATM   18 CL   UNL     1      -9.926   6.196  69.530  1.00  0.00    -0.194 Cl 
HETATM   19  C   UNL     1      -9.985   7.874  67.416  1.00  0.00    -0.261 A  
HETATM   20  C   UNL     1     -10.468   8.838  69.581  1.00  0.00    -0.220 A  
HETATM   21  C   UNL     1     -10.721  10.069  68.971  1.00  0.00    -0.244 A  
ENDBRANCH   9  15
BRANCH  13  22
HETATM   22  C   UNL     1     -10.364  16.488  67.674  1.00  0.00    -0.291 C  
BRANCH  22  23
HETATM   23  C   UNL     1      -9.795  17.218  66.483  1.00  0.00    -0.298 C  
HETATM   24  O   UNL     1      -8.828  16.834  65.829  1.00  0.00    -0.505 OA 
BRANCH  23  25
HETATM   25  O   UNL     1     -10.512  18.330  66.169  1.00  0.00    -0.420 OA 
BRANCH  25  26
HETATM   26  C   UNL     1     -10.678  19.252  67.245  1.00  0.00    -0.488 C  
HETATM   27  C   UNL     1      -9.383  19.815  67.825  1.00  0.00    -0.344 C  
HETATM   28  O   UNL     1      -8.840  20.817  67.092  1.00  0.00    -0.283 OA 
HETATM   29  O   UNL     1      -8.871  19.414  68.860  1.00  0.00    -0.364 OA 
ENDBRANCH  25  26
ENDBRANCH  23  25
ENDBRANCH  22  23
ENDBRANCH  13  22
ENDBRANCH   2   3
TORSDOF 6
ENDMDL
MODEL       71
REMARK 921   NORMALIZED FREE ENERGY PREDICTED BY IDOCK:   -5.56 KCAL/MOL
REMARK 922        TOTAL FREE ENERGY PREDICTED BY IDOCK:   -8.67 KCAL/MOL
REMARK 923 INTER-LIGAND FREE ENERGY PREDICTED BY IDOCK:   -7.29 KCAL/MOL
REMARK 924 INTRA-LIGAND FREE ENERGY PREDICTED BY IDOCK:   -1.38 KCAL/MOL
REMARK 927      BINDING AFFINITY PREDICTED BY RF-SCORE:    0.00 PKD
ROOT
HETATM    1  C   UNL     1     -11.261   8.514  72.149  1.00  0.00    -0.362 C  
HETATM    2  O   UNL     1     -11.760   9.791  71.774  1.00  0.00    -0.369 OA 
ENDROOT
BRANCH   2   3
HETATM    3  C   UNL     1     -11.527  10.200  70.489  1.00  0.00    -0.337 A  
HETATM    4  C   UNL     1     -10.969   9.427  69.470  1.00  0.00    -0.193 A  
HETATM    5  C   UNL     1     -10.745   9.988  68.187  1.00  0.00    -0.282 A  
HETATM    6  C   UNL     1     -11.059  11.332  67.966  1.00  0.00    -0.266 A  
HETATM    7  N   UNL     1     -10.610  11.682  66.680  1.00  0.00    -0.233 N  
HETATM    8  C   UNL     1     -11.737  12.075  68.955  1.00  0.00    -0.383 A  
HETATM    9  C   UNL     1     -10.533  13.005  66.145  1.00  0.00    -0.279 C  
HETATM   10  C   UNL     1     -11.936  11.499  70.214  1.00  0.00    -0.455 A  
HETATM   11  C   UNL     1     -10.278  10.483  66.019  1.00  0.00    -0.245 A  
HETATM   12  O   UNL     1     -10.582  13.130  64.922  1.00  0.00    -0.313 OA 
HETATM   13  C   UNL     1     -10.314   9.442  66.943  1.00  0.00    -0.308 A  
HETATM   14  C   UNL     1      -9.909  10.376  64.575  1.00  0.00    -0.405 C  
BRANCH   9  15
HETATM   15  C   UNL     1     -10.409  14.269  66.925  1.00  0.00    -0.268 A  
HETATM   16  C   UNL     1     -11.520  14.944  67.443  1.00  0.00    -0.354 A  
HETATM   17  C   UNL     1     -10.075  16.704  68.261  1.00  0.00    -0.268 A  
HETATM   18 CL   UNL     1      -9.881  18.249  68.989  1.00  0.00    -0.316 Cl 
HETATM   19  C   UNL     1     -11.355  16.177  68.082  1.00  0.00    -0.270 A  
HETATM   20  C   UNL     1      -8.955  15.989  67.845  1.00  0.00    -0.186 A  
HETATM   21  C   UNL     1      -9.122  14.772  67.178  1.00  0.00    -0.231 A  
ENDBRANCH   9  15
BRANCH  13  22
HETATM   22  C   UNL     1     -10.063   7.990  66.647  1.00  0.00    -0.329 C  
BRANCH  22  23
HETATM   23  C   UNL     1      -8.613   7.575  66.650  1.00  0.00    -0.130 C  
HETATM   24  O   UNL     1      -7.914   7.482  65.644  1.00  0.00    -0.103 OA 
BRANCH  23  25
HETATM   25  O   UNL     1      -8.139   7.370  67.907  1.00  0.00    -0.117 OA 
BRANCH  25  26
HETATM   26  C   UNL     1      -6.891   8.005  68.181  1.00  0.00    -0.069 C  
HETATM   27  C   UNL     1      -6.983   9.479  68.565  1.00  0.00    -0.065 C  
HETATM   28  O   UNL     1      -7.339   9.694  69.854  1.00  0.00    -0.087 OA 
HETATM   29  O   UNL     1      -6.752  10.399  67.791  1.00  0.00    -0.068 OA 
ENDBRANCH  25  26
ENDBRANCH  23  25
ENDBRANCH  22  23
ENDBRANCH  13  22
ENDBRANCH   2   3
TORSDOF 6
ENDMDL
MODEL       72
REMARK 921   NORMALIZED FREE ENERGY PREDICTED BY IDOCK:   -5.56 KCAL/MOL
REMARK 922        TOTAL FREE ENERGY PREDICTED BY IDOCK:   -8.66 KCAL/MOL
REMARK 923 INTER-LIGAND FREE ENERGY PREDICTED BY IDOCK:   -7.58 KCAL/MOL
REMARK 924 INTRA-LIGAND FREE ENERGY PREDICTED BY IDOCK:   -1.08 KCAL/MOL
REMARK 927      BINDING AFFINITY PREDICTED BY RF-SCORE:    0.00 PKD
ROOT
HETATM    1  C   UNL     1     -12.126   9.460  72.032  1.00  0.00    -0.309 C  
HETATM    2  O   UNL     1     -12.244  10.622  71.221  1.00  0.00    -0.352 OA 
ENDROOT
BRANCH   2   3
HETATM    3  C   UNL     1     -11.794  10.532  69.932  1.00  0.00    -0.282 A  
HETATM    4  C   UNL     1     -10.968   9.530  69.419  1.00  0.00    -0.192 A  
HETATM    5  C   UNL     1     -10.542   9.577  68.067  1.00  0.00    -0.282 A  
HETATM    6  C   UNL     1     -10.930  10.655  67.266  1.00  0.00    -0.284 A  
HETATM    7  N   UNL     1     -10.264  10.548  66.032  1.00  0.00    -0.254 N  
HETATM    8  C   UNL     1     -11.863  11.597  67.747  1.00  0.00    -0.247 A  
HETATM    9  C   UNL     1     -10.205  11.550  65.016  1.00  0.00    -0.280 C  
HETATM   10  C   UNL     1     -12.259  11.531  69.087  1.00  0.00    -0.221 A  
HETATM   11  C   UNL     1      -9.692   9.261  65.984  1.00  0.00    -0.289 A  
HETATM   12  O   UNL     1     -10.015  11.180  63.859  1.00  0.00    -0.267 OA 
HETATM   13  C   UNL     1      -9.816   8.672  67.239  1.00  0.00    -0.256 A  
HETATM   14  C   UNL     1      -9.027   8.665  64.785  1.00  0.00     0.057 C  
BRANCH   9  15
HETATM   15  C   UNL     1     -10.363  13.020  65.212  1.00  0.00    -0.318 A  
HETATM   16  C   UNL     1     -11.371  13.758  64.580  1.00  0.00    -0.393 A  
HETATM   17  C   UNL     1     -10.491  15.794  65.546  1.00  0.00    -0.403 A  
HETATM   18 CL   UNL     1     -10.506  17.509  65.667  1.00  0.00    -0.250 Cl 
HETATM   19  C   UNL     1     -11.413  15.148  64.721  1.00  0.00    -0.383 A  
HETATM   20  C   UNL     1      -9.553  15.058  66.265  1.00  0.00    -0.335 A  
HETATM   21  C   UNL     1      -9.490  13.671  66.099  1.00  0.00    -0.166 A  
ENDBRANCH   9  15
BRANCH  13  22
HETATM   22  C   UNL     1      -9.374   7.284  67.611  1.00  0.00    -0.139 C  
BRANCH  22  23
HETATM   23  C   UNL     1     -10.456   6.234  67.576  1.00  0.00    -0.236 C  
HETATM   24  O   UNL     1     -11.127   5.959  66.584  1.00  0.00    -0.246 OA 
BRANCH  23  25
HETATM   25  O   UNL     1     -10.571   5.574  68.758  1.00  0.00    -0.212 OA 
BRANCH  25  26
HETATM   26  C   UNL     1     -11.206   6.319  69.795  1.00  0.00    -0.430 C  
HETATM   27  C   UNL     1     -10.503   6.278  71.150  1.00  0.00    -0.223 C  
HETATM   28  O   UNL     1      -9.439   7.112  71.246  1.00  0.00    -0.163 OA 
HETATM   29  O   UNL     1     -10.858   5.566  72.079  1.00  0.00    -0.230 OA 
ENDBRANCH  25  26
ENDBRANCH  23  25
ENDBRANCH  22  23
ENDBRANCH  13  22
ENDBRANCH   2   3
TORSDOF 6
ENDMDL
MODEL       73
REMARK 921   NORMALIZED FREE ENERGY PREDICTED BY IDOCK:   -5.53 KCAL/MOL
REMARK 922        TOTAL FREE ENERGY PREDICTED BY IDOCK:   -8.62 KCAL/MOL
REMARK 923 INTER-LIGAND FREE ENERGY PREDICTED BY IDOCK:   -7.47 KCAL/MOL
REMARK 924 INTRA-LIGAND FREE ENERGY PREDICTED BY IDOCK:   -1.15 KCAL/MOL
REMARK 927      BINDING AFFINITY PREDICTED BY RF-SCORE:    0.00 PKD
ROOT
HETATM    1  C   UNL     1     -13.179  12.716  71.961  1.00  0.00    -0.427 C  
HETATM    2  O   UNL     1     -13.253  11.332  71.642  1.00  0.00    -0.419 OA 
ENDROOT
BRANCH   2   3
HETATM    3  C   UNL     1     -12.355  10.853  70.729  1.00  0.00    -0.390 A  
HETATM    4  C   UNL     1     -12.274  11.221  69.385  1.00  0.00    -0.315 A  
HETATM    5  C   UNL     1     -11.316  10.615  68.533  1.00  0.00    -0.348 A  
HETATM    6  C   UNL     1     -10.478   9.622  69.047  1.00  0.00    -0.213 A  
HETATM    7  N   UNL     1      -9.734   9.081  67.982  1.00  0.00    -0.151 N  
HETATM    8  C   UNL     1     -10.474   9.341  70.428  1.00  0.00    -0.296 A  
HETATM    9  C   UNL     1      -8.927   7.903  68.030  1.00  0.00    -0.127 C  
HETATM   10  C   UNL     1     -11.436   9.946  71.243  1.00  0.00    -0.435 A  
HETATM   11  C   UNL     1      -9.918   9.935  66.876  1.00  0.00    -0.212 A  
HETATM   12  O   UNL     1      -8.001   7.811  67.226  1.00  0.00    -0.114 OA 
HETATM   13  C   UNL     1     -10.918  10.853  67.185  1.00  0.00    -0.334 A  
HETATM   14  C   UNL     1      -9.182   9.826  65.580  1.00  0.00    -0.252 C  
BRANCH   9  15
HETATM   15  C   UNL     1      -9.085   6.761  68.975  1.00  0.00    -0.137 A  
HETATM   16  C   UNL     1     -10.209   5.926  68.963  1.00  0.00    -0.261 A  
HETATM   17  C   UNL     1      -9.342   4.725  70.877  1.00  0.00    -0.148 A  
HETATM   18 CL   UNL     1      -9.549   3.544  72.108  1.00  0.00    -0.194 Cl 
HETATM   19  C   UNL     1     -10.351   4.931  69.935  1.00  0.00    -0.220 A  
HETATM   20  C   UNL     1      -8.172   5.479  70.830  1.00  0.00    -0.117 A  
HETATM   21  C   UNL     1      -8.043   6.495  69.879  1.00  0.00    -0.121 A  
ENDBRANCH   9  15
BRANCH  13  22
HETATM   22  C   UNL     1     -11.397  11.967  66.298  1.00  0.00    -0.415 C  
BRANCH  22  23
HETATM   23  C   UNL     1     -10.414  13.092  66.092  1.00  0.00    -0.281 C  
HETATM   24  O   UNL     1     -10.226  13.665  65.021  1.00  0.00    -0.353 OA 
BRANCH  23  25
HETATM   25  O   UNL     1      -9.792  13.451  67.246  1.00  0.00    -0.226 OA 
BRANCH  25  26
HETATM   26  C   UNL     1      -9.163  14.730  67.208  1.00  0.00    -0.203 C  
HETATM   27  C   UNL     1     -10.083  15.916  67.482  1.00  0.00    -0.247 C  
HETATM   28  O   UNL     1     -10.346  16.120  68.795  1.00  0.00    -0.225 OA 
HETATM   29  O   UNL     1     -10.546  16.634  66.606  1.00  0.00    -0.286 OA 
ENDBRANCH  25  26
ENDBRANCH  23  25
ENDBRANCH  22  23
ENDBRANCH  13  22
ENDBRANCH   2   3
TORSDOF 6
ENDMDL
MODEL       74
REMARK 921   NORMALIZED FREE ENERGY PREDICTED BY IDOCK:   -5.52 KCAL/MOL
REMARK 922        TOTAL FREE ENERGY PREDICTED BY IDOCK:   -8.60 KCAL/MOL
REMARK 923 INTER-LIGAND FREE ENERGY PREDICTED BY IDOCK:   -7.44 KCAL/MOL
REMARK 924 INTRA-LIGAND FREE ENERGY PREDICTED BY IDOCK:   -1.16 KCAL/MOL
REMARK 927      BINDING AFFINITY PREDICTED BY RF-SCORE:    0.00 PKD
ROOT
HETATM    1  C   UNL     1     -11.254   8.323  72.326  1.00  0.00    -0.374 C  
HETATM    2  O   UNL     1     -11.898   9.482  71.813  1.00  0.00    -0.377 OA 
ENDROOT
BRANCH   2   3
HETATM    3  C   UNL     1     -11.564   9.873  70.546  1.00  0.00    -0.309 A  
HETATM    4  C   UNL     1     -10.913   9.091  69.590  1.00  0.00    -0.147 A  
HETATM    5  C   UNL     1     -10.589   9.634  68.321  1.00  0.00    -0.268 A  
HETATM    6  C   UNL     1     -10.898  10.970  68.051  1.00  0.00    -0.229 A  
HETATM    7  N   UNL     1     -10.347  11.305  66.801  1.00  0.00    -0.229 N  
HETATM    8  C   UNL     1     -11.665  11.719  68.967  1.00  0.00    -0.390 A  
HETATM    9  C   UNL     1     -10.241  12.619  66.252  1.00  0.00    -0.251 C  
HETATM   10  C   UNL     1     -11.962  11.162  70.214  1.00  0.00    -0.460 A  
HETATM   11  C   UNL     1      -9.948  10.099  66.191  1.00  0.00    -0.246 A  
HETATM   12  O   UNL     1     -10.188  12.725  65.028  1.00  0.00    -0.290 OA 
HETATM   13  C   UNL     1     -10.049   9.073  67.126  1.00  0.00    -0.309 A  
HETATM   14  C   UNL     1      -9.457   9.974  64.785  1.00  0.00    -0.366 C  
BRANCH   9  15
HETATM   15  C   UNL     1     -10.197  13.898  67.018  1.00  0.00    -0.254 A  
HETATM   16  C   UNL     1     -11.349  14.634  67.317  1.00  0.00    -0.364 A  
HETATM   17  C   UNL     1      -9.990  16.351  68.347  1.00  0.00    -0.238 A  
HETATM   18 CL   UNL     1      -9.854  17.904  69.069  1.00  0.00    -0.280 Cl 
HETATM   19  C   UNL     1     -11.241  15.875  67.951  1.00  0.00    -0.297 A  
HETATM   20  C   UNL     1      -8.849  15.576  68.151  1.00  0.00    -0.169 A  
HETATM   21  C   UNL     1      -8.953  14.350  67.488  1.00  0.00    -0.192 A  
ENDBRANCH   9  15
BRANCH  13  22
HETATM   22  C   UNL     1      -9.758   7.620  66.877  1.00  0.00    -0.277 C  
BRANCH  22  23
HETATM   23  C   UNL     1      -8.389   7.156  67.309  1.00  0.00    -0.119 C  
HETATM   24  O   UNL     1      -7.348   7.774  67.103  1.00  0.00    -0.087 OA 
BRANCH  23  25
HETATM   25  O   UNL     1      -8.437   5.995  68.013  1.00  0.00    -0.115 OA 
BRANCH  25  26
HETATM   26  C   UNL     1      -8.697   6.156  69.406  1.00  0.00    -0.123 C  
HETATM   27  C   UNL     1      -9.812   5.277  69.967  1.00  0.00    -0.218 C  
HETATM   28  O   UNL     1      -9.436   4.000  70.217  1.00  0.00    -0.150 OA 
HETATM   29  O   UNL     1     -10.948   5.676  70.182  1.00  0.00    -0.313 OA 
ENDBRANCH  25  26
ENDBRANCH  23  25
ENDBRANCH  22  23
ENDBRANCH  13  22
ENDBRANCH   2   3
TORSDOF 6
ENDMDL
MODEL       75
REMARK 921   NORMALIZED FREE ENERGY PREDICTED BY IDOCK:   -5.51 KCAL/MOL
REMARK 922        TOTAL FREE ENERGY PREDICTED BY IDOCK:   -8.59 KCAL/MOL
REMARK 923 INTER-LIGAND FREE ENERGY PREDICTED BY IDOCK:   -7.63 KCAL/MOL
REMARK 924 INTRA-LIGAND FREE ENERGY PREDICTED BY IDOCK:   -0.96 KCAL/MOL
REMARK 927      BINDING AFFINITY PREDICTED BY RF-SCORE:    0.00 PKD
ROOT
HETATM    1  C   UNL     1     -13.720  15.350  72.816  1.00  0.00    -0.517 C  
HETATM    2  O   UNL     1     -13.917  13.951  72.651  1.00  0.00    -0.684 OA 
ENDROOT
BRANCH   2   3
HETATM    3  C   UNL     1     -13.260  13.345  71.616  1.00  0.00    -0.364 A  
HETATM    4  C   UNL     1     -12.943  11.988  71.526  1.00  0.00    -0.407 A  
HETATM    5  C   UNL     1     -12.221  11.495  70.410  1.00  0.00    -0.442 A  
HETATM    6  C   UNL     1     -11.801  12.387  69.420  1.00  0.00    -0.304 A  
HETATM    7  N   UNL     1     -10.987  11.686  68.513  1.00  0.00    -0.204 N  
HETATM    8  C   UNL     1     -12.228  13.731  69.448  1.00  0.00    -0.325 A  
HETATM    9  C   UNL     1     -10.179  12.262  67.485  1.00  0.00    -0.204 C  
HETATM   10  C   UNL     1     -12.931  14.193  70.565  1.00  0.00    -0.227 A  
HETATM   11  C   UNL     1     -11.141  10.314  68.797  1.00  0.00    -0.228 A  
HETATM   12  O   UNL     1      -9.910  11.563  66.510  1.00  0.00    -0.195 OA 
HETATM   13  C   UNL     1     -11.858  10.184  69.983  1.00  0.00    -0.253 A  
HETATM   14  C   UNL     1     -10.580   9.202  67.971  1.00  0.00    -0.253 C  
BRANCH   9  15
HETATM   15  C   UNL     1      -9.629  13.648  67.464  1.00  0.00    -0.220 A  
HETATM   16  C   UNL     1     -10.008  14.592  66.503  1.00  0.00    -0.290 A  
HETATM   17  C   UNL     1      -8.437  16.179  67.436  1.00  0.00    -0.170 A  
HETATM   18 CL   UNL     1      -7.631  17.694  67.355  1.00  0.00    -0.207 Cl 
HETATM   19  C   UNL     1      -9.388  15.844  66.470  1.00  0.00    -0.306 A  
HETATM   20  C   UNL     1      -8.132  15.286  68.461  1.00  0.00    -0.143 A  
HETATM   21  C   UNL     1      -8.728  14.022  68.475  1.00  0.00    -0.156 A  
ENDBRANCH   9  15
BRANCH  13  22
HETATM   22  C   UNL     1     -12.277   8.891  70.623  1.00  0.00     0.020 C  
BRANCH  22  23
HETATM   23  C   UNL     1     -12.162   8.852  72.127  1.00  0.00    -0.367 C  
HETATM   24  O   UNL     1     -13.115   8.749  72.895  1.00  0.00    -0.312 OA 
BRANCH  23  25
HETATM   25  O   UNL     1     -10.869   8.881  72.545  1.00  0.00    -0.179 OA 
BRANCH  25  26
HETATM   26  C   UNL     1      -9.968   8.120  71.743  1.00  0.00    -0.201 C  
HETATM   27  C   UNL     1      -8.512   8.574  71.791  1.00  0.00    -0.175 C  
HETATM   28  O   UNL     1      -7.838   8.154  72.889  1.00  0.00    -0.135 OA 
HETATM   29  O   UNL     1      -7.981   9.251  70.921  1.00  0.00    -0.182 OA 
ENDBRANCH  25  26
ENDBRANCH  23  25
ENDBRANCH  22  23
ENDBRANCH  13  22
ENDBRANCH   2   3
TORSDOF 6
ENDMDL
MODEL       76
REMARK 921   NORMALIZED FREE ENERGY PREDICTED BY IDOCK:   -5.51 KCAL/MOL
REMARK 922        TOTAL FREE ENERGY PREDICTED BY IDOCK:   -8.59 KCAL/MOL
REMARK 923 INTER-LIGAND FREE ENERGY PREDICTED BY IDOCK:   -7.33 KCAL/MOL
REMARK 924 INTRA-LIGAND FREE ENERGY PREDICTED BY IDOCK:   -1.26 KCAL/MOL
REMARK 927      BINDING AFFINITY PREDICTED BY RF-SCORE:    0.00 PKD
ROOT
HETATM    1  C   UNL     1      -6.109   8.189  68.513  1.00  0.00    -0.041 C  
HETATM    2  O   UNL     1      -7.447   7.913  68.115  1.00  0.00    -0.102 OA 
ENDROOT
BRANCH   2   3
HETATM    3  C   UNL     1      -8.442   8.604  68.750  1.00  0.00    -0.129 A  
HETATM    4  C   UNL     1      -9.463   8.047  69.523  1.00  0.00    -0.160 A  
HETATM    5  C   UNL     1     -10.460   8.877  70.096  1.00  0.00    -0.236 A  
HETATM    6  C   UNL     1     -10.427  10.253  69.849  1.00  0.00    -0.256 A  
HETATM    7  N   UNL     1     -11.591  10.825  70.394  1.00  0.00    -0.325 N  
HETATM    8  C   UNL     1      -9.329  10.827  69.176  1.00  0.00    -0.141 A  
HETATM    9  C   UNL     1     -12.057  12.157  70.176  1.00  0.00    -0.290 C  
HETATM   10  C   UNL     1      -8.366   9.984  68.613  1.00  0.00    -0.116 A  
HETATM   11  C   UNL     1     -12.188   9.844  71.211  1.00  0.00    -0.387 A  
HETATM   12  O   UNL     1     -12.777  12.659  71.038  1.00  0.00    -0.324 OA 
HETATM   13  C   UNL     1     -11.532   8.633  71.004  1.00  0.00    -0.324 A  
HETATM   14  C   UNL     1     -13.360  10.076  72.109  1.00  0.00    -0.469 C  
BRANCH   9  15
HETATM   15  C   UNL     1     -11.749  13.021  69.001  1.00  0.00    -0.376 A  
HETATM   16  C   UNL     1     -12.013  12.622  67.685  1.00  0.00    -0.309 A  
HETATM   17  C   UNL     1     -11.012  14.665  66.860  1.00  0.00    -0.324 A  
HETATM   18 CL   UNL     1     -10.465  15.625  65.544  1.00  0.00    -0.395 Cl 
HETATM   19  C   UNL     1     -11.614  13.429  66.616  1.00  0.00    -0.399 A  
HETATM   20  C   UNL     1     -10.843  15.119  68.165  1.00  0.00    -0.266 A  
HETATM   21  C   UNL     1     -11.213  14.298  69.235  1.00  0.00    -0.309 A  
ENDBRANCH   9  15
BRANCH  13  22
HETATM   22  C   UNL     1     -11.827   7.338  71.706  1.00  0.00    -0.330 C  
BRANCH  22  23
HETATM   23  C   UNL     1     -10.877   6.983  72.823  1.00  0.00    -0.288 C  
HETATM   24  O   UNL     1     -10.446   7.783  73.650  1.00  0.00    -0.256 OA 
BRANCH  23  25
HETATM   25  O   UNL     1     -10.592   5.654  72.854  1.00  0.00    -0.204 OA 
BRANCH  25  26
HETATM   26  C   UNL     1      -9.440   5.277  72.103  1.00  0.00    -0.143 C  
HETATM   27  C   UNL     1      -9.627   4.067  71.191  1.00  0.00    -0.171 C  
HETATM   28  O   UNL     1     -10.256   4.346  70.024  1.00  0.00    -0.168 OA 
HETATM   29  O   UNL     1      -9.242   2.939  71.470  1.00  0.00    -0.095 OA 
ENDBRANCH  25  26
ENDBRANCH  23  25
ENDBRANCH  22  23
ENDBRANCH  13  22
ENDBRANCH   2   3
TORSDOF 6
ENDMDL
MODEL       77
REMARK 921   NORMALIZED FREE ENERGY PREDICTED BY IDOCK:   -5.50 KCAL/MOL
REMARK 922        TOTAL FREE ENERGY PREDICTED BY IDOCK:   -8.58 KCAL/MOL
REMARK 923 INTER-LIGAND FREE ENERGY PREDICTED BY IDOCK:   -7.30 KCAL/MOL
REMARK 924 INTRA-LIGAND FREE ENERGY PREDICTED BY IDOCK:   -1.28 KCAL/MOL
REMARK 927      BINDING AFFINITY PREDICTED BY RF-SCORE:    0.00 PKD
ROOT
HETATM    1  C   UNL     1     -13.971   8.940  72.359  1.00  0.00    -0.448 C  
HETATM    2  O   UNL     1     -13.392  10.219  72.134  1.00  0.00    -0.443 OA 
ENDROOT
BRANCH   2   3
HETATM    3  C   UNL     1     -12.337  10.283  71.265  1.00  0.00    -0.403 A  
HETATM    4  C   UNL     1     -11.173   9.514  71.329  1.00  0.00    -0.452 A  
HETATM    5  C   UNL     1     -10.135   9.709  70.383  1.00  0.00    -0.336 A  
HETATM    6  C   UNL     1     -10.276  10.702  69.410  1.00  0.00    -0.192 A  
HETATM    7  N   UNL     1      -9.065  10.796  68.700  1.00  0.00    -0.166 N  
HETATM    8  C   UNL     1     -11.498  11.389  69.269  1.00  0.00    -0.370 A  
HETATM    9  C   UNL     1      -8.707  11.824  67.775  1.00  0.00    -0.155 C  
HETATM   10  C   UNL     1     -12.502  11.184  70.221  1.00  0.00    -0.354 A  
HETATM   11  C   UNL     1      -8.290   9.674  69.057  1.00  0.00    -0.122 A  
HETATM   12  O   UNL     1      -7.876  11.552  66.911  1.00  0.00    -0.154 OA 
HETATM   13  C   UNL     1      -8.913   9.023  70.118  1.00  0.00    -0.200 A  
HETATM   14  C   UNL     1      -6.995   9.291  68.417  1.00  0.00    -0.067 C  
BRANCH   9  15
HETATM   15  C   UNL     1      -9.253  13.211  67.740  1.00  0.00    -0.203 A  
HETATM   16  C   UNL     1     -10.148  13.642  66.754  1.00  0.00    -0.269 A  
HETATM   17  C   UNL     1     -10.114  15.873  67.690  1.00  0.00    -0.242 A  
HETATM   18 CL   UNL     1     -10.560  17.530  67.597  1.00  0.00    -0.370 Cl 
HETATM   19  C   UNL     1     -10.551  14.980  66.711  1.00  0.00    -0.301 A  
HETATM   20  C   UNL     1      -9.309  15.430  68.737  1.00  0.00    -0.209 A  
HETATM   21  C   UNL     1      -8.880  14.100  68.763  1.00  0.00    -0.061 A  
ENDBRANCH   9  15
BRANCH  13  22
HETATM   22  C   UNL     1      -8.441   7.758  70.777  1.00  0.00    -0.121 C  
BRANCH  22  23
HETATM   23  C   UNL     1      -7.961   7.915  72.199  1.00  0.00    -0.119 C  
HETATM   24  O   UNL     1      -7.274   8.851  72.602  1.00  0.00    -0.337 OA 
BRANCH  23  25
HETATM   25  O   UNL     1      -8.426   6.930  73.011  1.00  0.00    -0.114 OA 
BRANCH  25  26
HETATM   26  C   UNL     1      -9.736   7.156  73.528  1.00  0.00    -0.251 C  
HETATM   27  C   UNL     1     -10.763   6.079  73.189  1.00  0.00    -0.260 C  
HETATM   28  O   UNL     1     -10.681   4.973  73.967  1.00  0.00    -0.283 OA 
HETATM   29  O   UNL     1     -11.597   6.190  72.301  1.00  0.00    -0.296 OA 
ENDBRANCH  25  26
ENDBRANCH  23  25
ENDBRANCH  22  23
ENDBRANCH  13  22
ENDBRANCH   2   3
TORSDOF 6
ENDMDL
MODEL       78
REMARK 921   NORMALIZED FREE ENERGY PREDICTED BY IDOCK:   -5.49 KCAL/MOL
REMARK 922        TOTAL FREE ENERGY PREDICTED BY IDOCK:   -8.57 KCAL/MOL
REMARK 923 INTER-LIGAND FREE ENERGY PREDICTED BY IDOCK:   -7.57 KCAL/MOL
REMARK 924 INTRA-LIGAND FREE ENERGY PREDICTED BY IDOCK:   -1.00 KCAL/MOL
REMARK 927      BINDING AFFINITY PREDICTED BY RF-SCORE:    0.00 PKD
ROOT
HETATM    1  C   UNL     1     -14.254   8.887  72.265  1.00  0.00    -0.397 C  
HETATM    2  O   UNL     1     -13.487  10.059  72.015  1.00  0.00    -0.407 OA 
ENDROOT
BRANCH   2   3
HETATM    3  C   UNL     1     -12.269   9.892  71.415  1.00  0.00    -0.408 A  
HETATM    4  C   UNL     1     -11.790  10.607  70.316  1.00  0.00    -0.430 A  
HETATM    5  C   UNL     1     -10.519  10.306  69.765  1.00  0.00    -0.300 A  
HETATM    6  C   UNL     1      -9.767   9.262  70.313  1.00  0.00    -0.232 A  
HETATM    7  N   UNL     1      -8.632   9.068  69.506  1.00  0.00    -0.133 N  
HETATM    8  C   UNL     1     -10.194   8.626  71.497  1.00  0.00    -0.345 A  
HETATM    9  C   UNL     1      -7.723   7.969  69.581  1.00  0.00    -0.102 C  
HETATM   10  C   UNL     1     -11.457   8.936  72.012  1.00  0.00    -0.431 A  
HETATM   11  C   UNL     1      -8.553  10.172  68.634  1.00  0.00    -0.123 A  
HETATM   12  O   UNL     1      -6.575   8.148  69.177  1.00  0.00    -0.042 OA 
HETATM   13  C   UNL     1      -9.724  10.915  68.750  1.00  0.00    -0.196 A  
HETATM   14  C   UNL     1      -7.410  10.453  67.713  1.00  0.00    -0.087 C  
BRANCH   9  15
HETATM   15  C   UNL     1      -8.020   6.609  70.116  1.00  0.00    -0.112 A  
HETATM   16  C   UNL     1      -7.477   6.140  71.318  1.00  0.00    -0.093 A  
HETATM   17  C   UNL     1      -8.538   3.994  70.965  1.00  0.00    -0.076 A  
HETATM   18 CL   UNL     1      -8.771   2.357  71.432  1.00  0.00    -0.100 Cl 
HETATM   19  C   UNL     1      -7.710   4.822  71.724  1.00  0.00    -0.097 A  
HETATM   20  C   UNL     1      -9.170   4.485  69.825  1.00  0.00    -0.191 A  
HETATM   21  C   UNL     1      -8.912   5.792  69.402  1.00  0.00    -0.121 A  
ENDBRANCH   9  15
BRANCH  13  22
HETATM   22  C   UNL     1     -10.033  12.195  68.025  1.00  0.00    -0.203 C  
BRANCH  22  23
HETATM   23  C   UNL     1     -10.429  12.034  66.579  1.00  0.00    -0.221 C  
HETATM   24  O   UNL     1     -10.891  11.004  66.094  1.00  0.00    -0.234 OA 
BRANCH  23  25
HETATM   25  O   UNL     1     -10.276  13.185  65.872  1.00  0.00    -0.282 OA 
BRANCH  25  26
HETATM   26  C   UNL     1     -10.778  13.133  64.538  1.00  0.00    -0.398 C  
HETATM   27  C   UNL     1     -12.279  13.374  64.399  1.00  0.00    -0.389 C  
HETATM   28  O   UNL     1     -12.636  14.681  64.449  1.00  0.00    -0.662 OA 
HETATM   29  O   UNL     1     -13.100  12.480  64.249  1.00  0.00    -0.759 OA 
ENDBRANCH  25  26
ENDBRANCH  23  25
ENDBRANCH  22  23
ENDBRANCH  13  22
ENDBRANCH   2   3
TORSDOF 6
ENDMDL
MODEL       79
REMARK 921   NORMALIZED FREE ENERGY PREDICTED BY IDOCK:   -5.45 KCAL/MOL
REMARK 922        TOTAL FREE ENERGY PREDICTED BY IDOCK:   -8.51 KCAL/MOL
REMARK 923 INTER-LIGAND FREE ENERGY PREDICTED BY IDOCK:   -7.35 KCAL/MOL
REMARK 924 INTRA-LIGAND FREE ENERGY PREDICTED BY IDOCK:   -1.16 KCAL/MOL
REMARK 927      BINDING AFFINITY PREDICTED BY RF-SCORE:    0.00 PKD
ROOT
HETATM    1  C   UNL     1      -5.429  10.012  67.339  1.00  0.00    -0.042 C  
HETATM    2  O   UNL     1      -6.678  10.474  66.843  1.00  0.00    -0.078 OA 
ENDROOT
BRANCH   2   3
HETATM    3  C   UNL     1      -7.792  10.178  67.580  1.00  0.00    -0.098 A  
HETATM    4  C   UNL     1      -8.744  11.094  68.032  1.00  0.00    -0.141 A  
HETATM    5  C   UNL     1      -9.836  10.657  68.825  1.00  0.00    -0.196 A  
HETATM    6  C   UNL     1      -9.927   9.308  69.177  1.00  0.00    -0.179 A  
HETATM    7  N   UNL     1     -10.997   9.160  70.078  1.00  0.00    -0.232 N  
HETATM    8  C   UNL     1      -9.037   8.367  68.619  1.00  0.00    -0.140 A  
HETATM    9  C   UNL     1     -11.296   7.995  70.848  1.00  0.00    -0.276 C  
HETATM   10  C   UNL     1      -7.965   8.826  67.848  1.00  0.00    -0.107 A  
HETATM   11  C   UNL     1     -11.725  10.366  70.053  1.00  0.00    -0.286 A  
HETATM   12  O   UNL     1     -12.461   7.830  71.208  1.00  0.00    -0.312 OA 
HETATM   13  C   UNL     1     -11.002  11.307  69.325  1.00  0.00    -0.297 A  
HETATM   14  C   UNL     1     -13.034  10.589  70.740  1.00  0.00    -0.413 C  
BRANCH   9  15
HETATM   15  C   UNL     1     -10.332   6.935  71.259  1.00  0.00    -0.221 A  
HETATM   16  C   UNL     1      -9.328   7.159  72.209  1.00  0.00    -0.157 A  
HETATM   17  C   UNL     1      -8.493   4.914  71.863  1.00  0.00    -0.123 A  
HETATM   18 CL   UNL     1      -7.301   3.711  72.156  1.00  0.00    -0.054 Cl 
HETATM   19  C   UNL     1      -8.390   6.160  72.484  1.00  0.00    -0.115 A  
HETATM   20  C   UNL     1      -9.551   4.645  70.999  1.00  0.00    -0.245 A  
HETATM   21  C   UNL     1     -10.471   5.654  70.698  1.00  0.00    -0.340 A  
ENDBRANCH   9  15
BRANCH  13  22
HETATM   22  C   UNL     1     -11.438  12.713  69.021  1.00  0.00    -0.354 C  
BRANCH  22  23
HETATM   23  C   UNL     1     -11.768  12.984  67.574  1.00  0.00    -0.370 C  
HETATM   24  O   UNL     1     -12.093  12.122  66.761  1.00  0.00    -0.609 OA 
BRANCH  23  25
HETATM   25  O   UNL     1     -11.725  14.309  67.276  1.00  0.00    -0.356 OA 
BRANCH  25  26
HETATM   26  C   UNL     1     -12.238  14.644  65.988  1.00  0.00    -0.154 C  
HETATM   27  C   UNL     1     -11.187  15.025  64.949  1.00  0.00    -0.416 C  
HETATM   28  O   UNL     1     -10.556  13.966  64.386  1.00  0.00    -0.400 OA 
HETATM   29  O   UNL     1     -10.929  16.179  64.634  1.00  0.00    -0.642 OA 
ENDBRANCH  25  26
ENDBRANCH  23  25
ENDBRANCH  22  23
ENDBRANCH  13  22
ENDBRANCH   2   3
TORSDOF 6
ENDMDL
MODEL       80
REMARK 921   NORMALIZED FREE ENERGY PREDICTED BY IDOCK:   -5.45 KCAL/MOL
REMARK 922        TOTAL FREE ENERGY PREDICTED BY IDOCK:   -8.51 KCAL/MOL
REMARK 923 INTER-LIGAND FREE ENERGY PREDICTED BY IDOCK:   -6.95 KCAL/MOL
REMARK 924 INTRA-LIGAND FREE ENERGY PREDICTED BY IDOCK:   -1.56 KCAL/MOL
REMARK 927      BINDING AFFINITY PREDICTED BY RF-SCORE:    0.00 PKD
ROOT
HETATM    1  C   UNL     1      -8.614   6.292  65.789  1.00  0.00    -0.150 C  
HETATM    2  O   UNL     1      -8.895   7.680  65.660  1.00  0.00    -0.140 OA 
ENDROOT
BRANCH   2   3
HETATM    3  C   UNL     1      -9.578   8.276  66.684  1.00  0.00    -0.233 A  
HETATM    4  C   UNL     1      -9.971   9.615  66.739  1.00  0.00    -0.289 A  
HETATM    5  C   UNL     1     -10.643  10.117  67.882  1.00  0.00    -0.294 A  
HETATM    6  C   UNL     1     -10.877   9.265  68.966  1.00  0.00    -0.111 A  
HETATM    7  N   UNL     1     -11.414  10.029  70.018  1.00  0.00    -0.256 N  
HETATM    8  C   UNL     1     -10.594   7.888  68.859  1.00  0.00    -0.165 A  
HETATM    9  C   UNL     1     -11.589   9.598  71.368  1.00  0.00    -0.400 C  
HETATM   10  C   UNL     1      -9.922   7.422  67.724  1.00  0.00    -0.208 A  
HETATM   11  C   UNL     1     -11.764  11.283  69.478  1.00  0.00    -0.345 A  
HETATM   12  O   UNL     1     -12.460  10.153  72.037  1.00  0.00    -0.346 OA 
HETATM   13  C   UNL     1     -11.259  11.367  68.184  1.00  0.00    -0.343 A  
HETATM   14  C   UNL     1     -12.516  12.348  70.210  1.00  0.00    -0.152 C  
BRANCH   9  15
HETATM   15  C   UNL     1     -10.825   8.521  72.060  1.00  0.00    -0.405 A  
HETATM   16  C   UNL     1      -9.439   8.586  72.248  1.00  0.00    -0.365 A  
HETATM   17  C   UNL     1      -9.468   6.386  73.255  1.00  0.00    -0.139 A  
HETATM   18 CL   UNL     1      -8.623   5.032  73.893  1.00  0.00    -0.106 Cl 
HETATM   19  C   UNL     1      -8.759   7.504  72.815  1.00  0.00    -0.174 A  
HETATM   20  C   UNL     1     -10.858   6.357  73.171  1.00  0.00    -0.282 A  
HETATM   21  C   UNL     1     -11.536   7.424  72.575  1.00  0.00    -0.346 A  
ENDBRANCH   9  15
BRANCH  13  22
HETATM   22  C   UNL     1     -11.440  12.521  67.239  1.00  0.00    -0.416 C  
BRANCH  22  23
HETATM   23  C   UNL     1     -10.521  13.694  67.473  1.00  0.00    -0.241 C  
HETATM   24  O   UNL     1     -10.685  14.543  68.345  1.00  0.00    -0.233 OA 
BRANCH  23  25
HETATM   25  O   UNL     1      -9.444  13.677  66.644  1.00  0.00    -0.267 OA 
BRANCH  25  26
HETATM   26  C   UNL     1      -8.183  13.673  67.310  1.00  0.00    -0.152 C  
HETATM   27  C   UNL     1      -7.627  12.291  67.641  1.00  0.00    -0.144 C  
HETATM   28  O   UNL     1      -7.039  11.666  66.592  1.00  0.00    -0.115 OA 
HETATM   29  O   UNL     1      -7.692  11.779  68.750  1.00  0.00    -0.130 OA 
ENDBRANCH  25  26
ENDBRANCH  23  25
ENDBRANCH  22  23
ENDBRANCH  13  22
ENDBRANCH   2   3
TORSDOF 6
ENDMDL
MODEL       81
REMARK 921   NORMALIZED FREE ENERGY PREDICTED BY IDOCK:   -5.45 KCAL/MOL
REMARK 922        TOTAL FREE ENERGY PREDICTED BY IDOCK:   -8.51 KCAL/MOL
REMARK 923 INTER-LIGAND FREE ENERGY PREDICTED BY IDOCK:   -7.75 KCAL/MOL
REMARK 924 INTRA-LIGAND FREE ENERGY PREDICTED BY IDOCK:   -0.76 KCAL/MOL
REMARK 927      BINDING AFFINITY PREDICTED BY RF-SCORE:    0.00 PKD
ROOT
HETATM    1  C   UNL     1     -12.871  12.650  71.553  1.00  0.00    -0.268 C  
HETATM    2  O   UNL     1     -13.121  11.287  71.233  1.00  0.00    -0.348 OA 
ENDROOT
BRANCH   2   3
HETATM    3  C   UNL     1     -12.160  10.627  70.518  1.00  0.00    -0.355 A  
HETATM    4  C   UNL     1     -11.977  10.690  69.135  1.00  0.00    -0.230 A  
HETATM    5  C   UNL     1     -10.961   9.921  68.513  1.00  0.00    -0.226 A  
HETATM    6  C   UNL     1     -10.171   9.074  69.295  1.00  0.00    -0.205 A  
HETATM    7  N   UNL     1      -9.352   8.319  68.435  1.00  0.00    -0.135 N  
HETATM    8  C   UNL     1     -10.273   9.105  70.701  1.00  0.00    -0.306 A  
HETATM    9  C   UNL     1      -8.560   7.189  68.802  1.00  0.00    -0.125 C  
HETATM   10  C   UNL     1     -11.289   9.866  71.287  1.00  0.00    -0.404 A  
HETATM   11  C   UNL     1      -9.447   8.905  67.157  1.00  0.00    -0.157 A  
HETATM   12  O   UNL     1      -7.576   6.931  68.110  1.00  0.00    -0.103 OA 
HETATM   13  C   UNL     1     -10.461   9.858  67.179  1.00  0.00    -0.305 A  
HETATM   14  C   UNL     1      -8.616   8.520  65.976  1.00  0.00    -0.162 C  
BRANCH   9  15
HETATM   15  C   UNL     1      -8.795   6.282  69.962  1.00  0.00    -0.142 A  
HETATM   16  C   UNL     1      -9.903   5.428  70.034  1.00  0.00    -0.274 A  
HETATM   17  C   UNL     1      -9.213   4.715  72.242  1.00  0.00    -0.126 A  
HETATM   18 CL   UNL     1      -9.526   3.833  73.683  1.00  0.00    -0.114 Cl 
HETATM   19  C   UNL     1     -10.128   4.672  71.188  1.00  0.00    -0.243 A  
HETATM   20  C   UNL     1      -8.053   5.478  72.135  1.00  0.00    -0.111 A  
HETATM   21  C   UNL     1      -7.844   6.259  70.995  1.00  0.00    -0.111 A  
ENDBRANCH   9  15
BRANCH  13  22
HETATM   22  C   UNL     1     -10.865  10.745  66.034  1.00  0.00    -0.102 C  
BRANCH  22  23
HETATM   23  C   UNL     1     -11.055  12.199  66.385  1.00  0.00    -0.314 C  
HETATM   24  O   UNL     1     -10.166  12.935  66.807  1.00  0.00    -0.235 OA 
BRANCH  23  25
HETATM   25  O   UNL     1     -12.316  12.631  66.123  1.00  0.00    -0.570 OA 
BRANCH  25  26
HETATM   26  C   UNL     1     -12.436  14.042  65.949  1.00  0.00    -0.481 C  
HETATM   27  C   UNL     1     -11.832  14.592  64.660  1.00  0.00    -0.452 C  
HETATM   28  O   UNL     1     -12.614  14.423  63.567  1.00  0.00    -0.784 OA 
HETATM   29  O   UNL     1     -10.742  15.145  64.602  1.00  0.00    -0.366 OA 
ENDBRANCH  25  26
ENDBRANCH  23  25
ENDBRANCH  22  23
ENDBRANCH  13  22
ENDBRANCH   2   3
TORSDOF 6
ENDMDL
MODEL       82
REMARK 921   NORMALIZED FREE ENERGY PREDICTED BY IDOCK:   -5.43 KCAL/MOL
REMARK 922        TOTAL FREE ENERGY PREDICTED BY IDOCK:   -8.49 KCAL/MOL
REMARK 923 INTER-LIGAND FREE ENERGY PREDICTED BY IDOCK:   -7.27 KCAL/MOL
REMARK 924 INTRA-LIGAND FREE ENERGY PREDICTED BY IDOCK:   -1.22 KCAL/MOL
REMARK 927      BINDING AFFINITY PREDICTED BY RF-SCORE:    0.00 PKD
ROOT
HETATM    1  C   UNL     1     -12.384  15.554  64.190  1.00  0.00     0.066 C  
HETATM    2  O   UNL     1     -12.431  14.163  64.482  1.00  0.00    -0.602 OA 
ENDROOT
BRANCH   2   3
HETATM    3  C   UNL     1     -11.540  13.689  65.406  1.00  0.00    -0.321 A  
HETATM    4  C   UNL     1     -10.349  14.308  65.791  1.00  0.00    -0.341 A  
HETATM    5  C   UNL     1      -9.494  13.687  66.736  1.00  0.00    -0.275 A  
HETATM    6  C   UNL     1      -9.840  12.434  67.250  1.00  0.00    -0.207 A  
HETATM    7  N   UNL     1      -8.771  11.972  68.040  1.00  0.00    -0.168 N  
HETATM    8  C   UNL     1     -11.099  11.870  66.958  1.00  0.00    -0.354 A  
HETATM    9  C   UNL     1      -8.620  10.653  68.565  1.00  0.00    -0.137 C  
HETATM   10  C   UNL     1     -11.918  12.499  66.015  1.00  0.00    -0.456 A  
HETATM   11  C   UNL     1      -7.898  13.063  68.229  1.00  0.00    -0.143 A  
HETATM   12  O   UNL     1      -7.934  10.516  69.577  1.00  0.00    -0.154 OA 
HETATM   13  C   UNL     1      -8.304  14.106  67.402  1.00  0.00    -0.210 A  
HETATM   14  C   UNL     1      -6.713  13.061  69.139  1.00  0.00    -0.087 C  
BRANCH   9  15
HETATM   15  C   UNL     1      -9.225   9.406  68.015  1.00  0.00    -0.137 A  
HETATM   16  C   UNL     1     -10.245   8.711  68.676  1.00  0.00    -0.214 A  
HETATM   17  C   UNL     1     -10.199   7.005  66.960  1.00  0.00    -0.260 A  
HETATM   18 CL   UNL     1     -10.724   5.480  66.368  1.00  0.00    -0.317 Cl 
HETATM   19  C   UNL     1     -10.707   7.495  68.164  1.00  0.00    -0.145 A  
HETATM   20  C   UNL     1      -9.262   7.742  66.241  1.00  0.00    -0.217 A  
HETATM   21  C   UNL     1      -8.776   8.942  66.767  1.00  0.00    -0.130 A  
ENDBRANCH   9  15
BRANCH  13  22
HETATM   22  C   UNL     1      -7.672  15.467  67.323  1.00  0.00    -0.245 C  
BRANCH  22  23
HETATM   23  C   UNL     1      -8.315  16.525  68.185  1.00  0.00    -0.186 C  
HETATM   24  O   UNL     1      -9.068  16.291  69.127  1.00  0.00    -0.253 OA 
BRANCH  23  25
HETATM   25  O   UNL     1      -7.920  17.779  67.842  1.00  0.00    -0.223 OA 
BRANCH  25  26
HETATM   26  C   UNL     1      -8.643  18.826  68.486  1.00  0.00    -0.344 C  
HETATM   27  C   UNL     1      -9.654  19.556  67.606  1.00  0.00    -0.336 C  
HETATM   28  O   UNL     1     -10.824  18.893  67.441  1.00  0.00    -0.458 OA 
HETATM   29  O   UNL     1      -9.445  20.646  67.092  1.00  0.00    -0.415 OA 
ENDBRANCH  25  26
ENDBRANCH  23  25
ENDBRANCH  22  23
ENDBRANCH  13  22
ENDBRANCH   2   3
TORSDOF 6
ENDMDL
MODEL       83
REMARK 921   NORMALIZED FREE ENERGY PREDICTED BY IDOCK:   -5.36 KCAL/MOL
REMARK 922        TOTAL FREE ENERGY PREDICTED BY IDOCK:   -8.40 KCAL/MOL
REMARK 923 INTER-LIGAND FREE ENERGY PREDICTED BY IDOCK:   -7.13 KCAL/MOL
REMARK 924 INTRA-LIGAND FREE ENERGY PREDICTED BY IDOCK:   -1.27 KCAL/MOL
REMARK 927      BINDING AFFINITY PREDICTED BY RF-SCORE:    0.00 PKD
ROOT
HETATM    1  C   UNL     1     -13.837   9.078  72.340  1.00  0.00    -0.475 C  
HETATM    2  O   UNL     1     -13.274  10.371  72.160  1.00  0.00    -0.452 OA 
ENDROOT
BRANCH   2   3
HETATM    3  C   UNL     1     -12.502  10.567  71.047  1.00  0.00    -0.400 A  
HETATM    4  C   UNL     1     -12.657  11.591  70.111  1.00  0.00    -0.145 A  
HETATM    5  C   UNL     1     -11.809  11.658  68.977  1.00  0.00    -0.391 A  
HETATM    6  C   UNL     1     -10.840  10.667  68.790  1.00  0.00    -0.229 A  
HETATM    7  N   UNL     1     -10.241  10.870  67.534  1.00  0.00    -0.184 N  
HETATM    8  C   UNL     1     -10.602   9.708  69.796  1.00  0.00    -0.267 A  
HETATM    9  C   UNL     1      -9.365   9.963  66.861  1.00  0.00    -0.152 C  
HETATM   10  C   UNL     1     -11.460   9.661  70.900  1.00  0.00    -0.427 A  
HETATM   11  C   UNL     1     -10.648  12.142  67.084  1.00  0.00    -0.226 A  
HETATM   12  O   UNL     1      -8.573  10.433  66.046  1.00  0.00    -0.141 OA 
HETATM   13  C   UNL     1     -11.642  12.617  67.935  1.00  0.00    -0.401 A  
HETATM   14  C   UNL     1     -10.119  12.828  65.866  1.00  0.00    -0.286 C  
BRANCH   9  15
HETATM   15  C   UNL     1      -9.302   8.487  67.055  1.00  0.00    -0.204 A  
HETATM   16  C   UNL     1      -8.240   7.861  67.719  1.00  0.00    -0.129 A  
HETATM   17  C   UNL     1      -9.216   5.697  67.249  1.00  0.00    -0.110 A  
HETATM   18 CL   UNL     1      -9.109   3.982  67.276  1.00  0.00    -0.153 Cl 
HETATM   19  C   UNL     1      -8.182   6.466  67.785  1.00  0.00    -0.118 A  
HETATM   20  C   UNL     1     -10.328   6.313  66.682  1.00  0.00    -0.235 A  
HETATM   21  C   UNL     1     -10.372   7.706  66.586  1.00  0.00    -0.258 A  
ENDBRANCH   9  15
BRANCH  13  22
HETATM   22  C   UNL     1     -12.323  13.953  67.838  1.00  0.00    -0.016 C  
BRANCH  22  23
HETATM   23  C   UNL     1     -11.663  15.067  68.612  1.00  0.00    -0.337 C  
HETATM   24  O   UNL     1     -11.596  15.117  69.838  1.00  0.00    -0.260 OA 
BRANCH  23  25
HETATM   25  O   UNL     1     -11.091  15.992  67.798  1.00  0.00    -0.327 OA 
BRANCH  25  26
HETATM   26  C   UNL     1      -9.877  16.551  68.295  1.00  0.00    -0.243 C  
HETATM   27  C   UNL     1      -8.658  16.366  67.395  1.00  0.00    -0.178 C  
HETATM   28  O   UNL     1      -8.598  17.239  66.360  1.00  0.00    -0.249 OA 
HETATM   29  O   UNL     1      -7.799  15.515  67.579  1.00  0.00    -0.139 OA 
ENDBRANCH  25  26
ENDBRANCH  23  25
ENDBRANCH  22  23
ENDBRANCH  13  22
ENDBRANCH   2   3
TORSDOF 6
ENDMDL
MODEL       84
REMARK 921   NORMALIZED FREE ENERGY PREDICTED BY IDOCK:   -5.33 KCAL/MOL
REMARK 922        TOTAL FREE ENERGY PREDICTED BY IDOCK:   -8.35 KCAL/MOL
REMARK 923 INTER-LIGAND FREE ENERGY PREDICTED BY IDOCK:   -7.30 KCAL/MOL
REMARK 924 INTRA-LIGAND FREE ENERGY PREDICTED BY IDOCK:   -1.05 KCAL/MOL
REMARK 927      BINDING AFFINITY PREDICTED BY RF-SCORE:    0.00 PKD
ROOT
HETATM    1  C   UNL     1      -5.666  13.866  71.220  1.00  0.00    -0.224 C  
HETATM    2  O   UNL     1      -5.501  13.765  69.811  1.00  0.00    -0.087 OA 
ENDROOT
BRANCH   2   3
HETATM    3  C   UNL     1      -6.635  13.647  69.056  1.00  0.00    -0.109 A  
HETATM    4  C   UNL     1      -7.833  14.335  69.261  1.00  0.00     0.085 A  
HETATM    5  C   UNL     1      -8.951  14.089  68.424  1.00  0.00    -0.189 A  
HETATM    6  C   UNL     1      -8.851  13.125  67.416  1.00  0.00    -0.204 A  
HETATM    7  N   UNL     1     -10.121  12.964  66.835  1.00  0.00    -0.237 N  
HETATM    8  C   UNL     1      -7.608  12.524  67.131  1.00  0.00    -0.087 A  
HETATM    9  C   UNL     1     -10.508  11.931  65.927  1.00  0.00    -0.258 C  
HETATM   10  C   UNL     1      -6.524  12.778  67.978  1.00  0.00    -0.099 A  
HETATM   11  C   UNL     1     -10.924  14.025  67.299  1.00  0.00    -0.295 A  
HETATM   12  O   UNL     1     -11.442  12.163  65.161  1.00  0.00    -0.326 OA 
HETATM   13  C   UNL     1     -10.236  14.696  68.306  1.00  0.00    -0.227 A  
HETATM   14  C   UNL     1     -12.302  14.332  66.808  1.00  0.00    -0.280 C  
BRANCH   9  15
HETATM   15  C   UNL     1      -9.881  10.585  65.800  1.00  0.00    -0.295 A  
HETATM   16  C   UNL     1      -9.107  10.218  64.692  1.00  0.00    -0.265 A  
HETATM   17  C   UNL     1      -8.858   7.988  65.599  1.00  0.00    -0.094 A  
HETATM   18 CL   UNL     1      -8.320   6.365  65.426  1.00  0.00    -0.146 Cl 
HETATM   19  C   UNL     1      -8.626   8.910  64.578  1.00  0.00    -0.155 A  
HETATM   20  C   UNL     1      -9.534   8.374  66.754  1.00  0.00    -0.255 A  
HETATM   21  C   UNL     1     -10.044   9.671  66.855  1.00  0.00    -0.290 A  
ENDBRANCH   9  15
BRANCH  13  22
HETATM   22  C   UNL     1     -10.716  15.914  69.043  1.00  0.00    -0.251 C  
BRANCH  22  23
HETATM   23  C   UNL     1     -11.702  15.646  70.153  1.00  0.00    -0.360 C  
HETATM   24  O   UNL     1     -12.902  15.443  69.983  1.00  0.00    -0.238 OA 
BRANCH  23  25
HETATM   25  O   UNL     1     -11.104  15.593  71.372  1.00  0.00    -0.348 OA 
BRANCH  25  26
HETATM   26  C   UNL     1     -11.681  16.451  72.354  1.00  0.00    -0.365 C  
HETATM   27  C   UNL     1     -12.741  15.803  73.242  1.00  0.00    -0.525 C  
HETATM   28  O   UNL     1     -12.233  15.048  74.246  1.00  0.00    -0.604 OA 
HETATM   29  O   UNL     1     -13.944  15.946  73.080  1.00  0.00    -0.573 OA 
ENDBRANCH  25  26
ENDBRANCH  23  25
ENDBRANCH  22  23
ENDBRANCH  13  22
ENDBRANCH   2   3
TORSDOF 6
ENDMDL
MODEL       85
REMARK 921   NORMALIZED FREE ENERGY PREDICTED BY IDOCK:   -5.33 KCAL/MOL
REMARK 922        TOTAL FREE ENERGY PREDICTED BY IDOCK:   -8.35 KCAL/MOL
REMARK 923 INTER-LIGAND FREE ENERGY PREDICTED BY IDOCK:   -7.12 KCAL/MOL
REMARK 924 INTRA-LIGAND FREE ENERGY PREDICTED BY IDOCK:   -1.22 KCAL/MOL
REMARK 927      BINDING AFFINITY PREDICTED BY RF-SCORE:    0.00 PKD
ROOT
HETATM    1  C   UNL     1      -6.263  11.438  70.091  1.00  0.00    -0.138 C  
HETATM    2  O   UNL     1      -6.149  12.855  70.038  1.00  0.00    -0.138 OA 
ENDROOT
BRANCH   2   3
HETATM    3  C   UNL     1      -7.014  13.520  69.214  1.00  0.00    -0.008 A  
HETATM    4  C   UNL     1      -7.758  12.955  68.176  1.00  0.00    -0.138 A  
HETATM    5  C   UNL     1      -8.592  13.769  67.368  1.00  0.00    -0.208 A  
HETATM    6  C   UNL     1      -8.634  15.147  67.602  1.00  0.00    -0.172 A  
HETATM    7  N   UNL     1      -9.405  15.742  66.587  1.00  0.00    -0.239 N  
HETATM    8  C   UNL     1      -7.983  15.696  68.725  1.00  0.00    -0.172 A  
HETATM    9  C   UNL     1      -9.518  17.141  66.324  1.00  0.00    -0.243 C  
HETATM   10  C   UNL     1      -7.160  14.872  69.499  1.00  0.00    -0.184 A  
HETATM   11  C   UNL     1     -10.059  14.698  65.901  1.00  0.00    -0.320 A  
HETATM   12  O   UNL     1     -10.536  17.536  65.757  1.00  0.00    -0.535 OA 
HETATM   13  C   UNL     1      -9.537  13.483  66.339  1.00  0.00    -0.268 A  
HETATM   14  C   UNL     1     -11.103  14.888  64.850  1.00  0.00    -0.424 C  
BRANCH   9  15
HETATM   15  C   UNL     1      -8.522  18.191  66.680  1.00  0.00    -0.282 A  
HETATM   16  C   UNL     1      -7.236  18.224  66.128  1.00  0.00    -0.301 A  
HETATM   17  C   UNL     1      -6.685  20.130  67.514  1.00  0.00    -0.233 A  
HETATM   18 CL   UNL     1      -5.526  21.254  68.103  1.00  0.00    -0.355 Cl 
HETATM   19  C   UNL     1      -6.309  19.173  66.570  1.00  0.00    -0.200 A  
HETATM   20  C   UNL     1      -7.994  20.172  67.989  1.00  0.00    -0.225 A  
HETATM   21  C   UNL     1      -8.911  19.205  67.571  1.00  0.00    -0.332 A  
ENDBRANCH   9  15
BRANCH  13  22
HETATM   22  C   UNL     1      -9.983  12.119  65.894  1.00  0.00    -0.267 C  
BRANCH  22  23
HETATM   23  C   UNL     1     -11.002  11.454  66.785  1.00  0.00    -0.291 C  
HETATM   24  O   UNL     1     -12.140  11.876  66.976  1.00  0.00    -0.600 OA 
BRANCH  23  25
HETATM   25  O   UNL     1     -10.541  10.289  67.313  1.00  0.00    -0.239 OA 
BRANCH  25  26
HETATM   26  C   UNL     1     -10.249   9.277  66.353  1.00  0.00    -0.228 C  
HETATM   27  C   UNL     1      -8.922   8.551  66.556  1.00  0.00    -0.161 C  
HETATM   28  O   UNL     1      -8.958   7.590  67.511  1.00  0.00    -0.126 OA 
HETATM   29  O   UNL     1      -7.907   8.798  65.919  1.00  0.00    -0.098 OA 
ENDBRANCH  25  26
ENDBRANCH  23  25
ENDBRANCH  22  23
ENDBRANCH  13  22
ENDBRANCH   2   3
TORSDOF 6
ENDMDL
MODEL       86
REMARK 921   NORMALIZED FREE ENERGY PREDICTED BY IDOCK:   -5.32 KCAL/MOL
REMARK 922        TOTAL FREE ENERGY PREDICTED BY IDOCK:   -8.34 KCAL/MOL
REMARK 923 INTER-LIGAND FREE ENERGY PREDICTED BY IDOCK:   -7.45 KCAL/MOL
REMARK 924 INTRA-LIGAND FREE ENERGY PREDICTED BY IDOCK:   -0.89 KCAL/MOL
REMARK 927      BINDING AFFINITY PREDICTED BY RF-SCORE:    0.00 PKD
ROOT
HETATM    1  C   UNL     1      -8.298   5.590  66.303  1.00  0.00    -0.112 C  
HETATM    2  O   UNL     1      -8.933   6.792  65.885  1.00  0.00    -0.147 OA 
ENDROOT
BRANCH   2   3
HETATM    3  C   UNL     1      -9.590   7.516  66.841  1.00  0.00    -0.187 A  
HETATM    4  C   UNL     1      -9.867   8.884  66.790  1.00  0.00    -0.308 A  
HETATM    5  C   UNL     1     -10.524   9.522  67.872  1.00  0.00    -0.293 A  
HETATM    6  C   UNL     1     -10.860   8.773  69.004  1.00  0.00    -0.027 A  
HETATM    7  N   UNL     1     -11.358   9.654  69.981  1.00  0.00    -0.226 N  
HETATM    8  C   UNL     1     -10.695   7.373  69.003  1.00  0.00    -0.164 A  
HETATM    9  C   UNL     1     -11.607   9.338  71.352  1.00  0.00    -0.367 C  
HETATM   10  C   UNL     1     -10.035   6.772  67.926  1.00  0.00    -0.164 A  
HETATM   11  C   UNL     1     -11.583  10.891  69.345  1.00  0.00    -0.316 A  
HETATM   12  O   UNL     1     -12.445  10.011  71.950  1.00  0.00    -0.385 OA 
HETATM   13  C   UNL     1     -11.037  10.839  68.065  1.00  0.00    -0.359 A  
HETATM   14  C   UNL     1     -12.260  12.065  69.974  1.00  0.00    -0.280 C  
BRANCH   9  15
HETATM   15  C   UNL     1     -10.958   8.253  72.142  1.00  0.00    -0.396 A  
HETATM   16  C   UNL     1      -9.726   8.426  72.785  1.00  0.00    -0.298 A  
HETATM   17  C   UNL     1      -9.765   6.112  73.491  1.00  0.00    -0.164 A  
HETATM   18 CL   UNL     1      -8.984   4.770  74.228  1.00  0.00    -0.112 Cl 
HETATM   19  C   UNL     1      -9.116   7.346  73.429  1.00  0.00    -0.234 A  
HETATM   20  C   UNL     1     -11.038   5.959  72.948  1.00  0.00    -0.306 A  
HETATM   21  C   UNL     1     -11.635   7.029  72.276  1.00  0.00    -0.307 A  
ENDBRANCH   9  15
BRANCH  13  22
HETATM   22  C   UNL     1     -11.092  11.932  67.037  1.00  0.00    -0.354 C  
BRANCH  22  23
HETATM   23  C   UNL     1     -10.010  12.977  67.152  1.00  0.00    -0.235 C  
HETATM   24  O   UNL     1      -9.158  13.001  68.036  1.00  0.00    -0.196 OA 
BRANCH  23  25
HETATM   25  O   UNL     1     -10.042  13.867  66.125  1.00  0.00    -0.291 OA 
BRANCH  25  26
HETATM   26  C   UNL     1     -10.930  14.966  66.320  1.00  0.00    -0.338 C  
HETATM   27  C   UNL     1     -11.000  15.501  67.748  1.00  0.00    -0.317 C  
HETATM   28  O   UNL     1      -9.970  16.315  68.084  1.00  0.00    -0.232 OA 
HETATM   29  O   UNL     1     -11.901  15.234  68.531  1.00  0.00    -0.338 OA 
ENDBRANCH  25  26
ENDBRANCH  23  25
ENDBRANCH  22  23
ENDBRANCH  13  22
ENDBRANCH   2   3
TORSDOF 6
ENDMDL
MODEL       87
REMARK 921   NORMALIZED FREE ENERGY PREDICTED BY IDOCK:   -5.26 KCAL/MOL
REMARK 922        TOTAL FREE ENERGY PREDICTED BY IDOCK:   -8.25 KCAL/MOL
REMARK 923 INTER-LIGAND FREE ENERGY PREDICTED BY IDOCK:   -7.05 KCAL/MOL
REMARK 924 INTRA-LIGAND FREE ENERGY PREDICTED BY IDOCK:   -1.21 KCAL/MOL
REMARK 927      BINDING AFFINITY PREDICTED BY RF-SCORE:    0.00 PKD
ROOT
HETATM    1  C   UNL     1      -9.767   4.146  65.703  1.00  0.00    -0.204 C  
HETATM    2  O   UNL     1      -9.415   5.512  65.887  1.00  0.00    -0.157 OA 
ENDROOT
BRANCH   2   3
HETATM    3  C   UNL     1      -9.893   6.134  67.008  1.00  0.00    -0.149 A  
HETATM    4  C   UNL     1     -10.045   7.511  67.180  1.00  0.00    -0.317 A  
HETATM    5  C   UNL     1     -10.518   8.030  68.412  1.00  0.00    -0.205 A  
HETATM    6  C   UNL     1     -10.796   7.149  69.462  1.00  0.00    -0.225 A  
HETATM    7  N   UNL     1     -11.099   7.910  70.605  1.00  0.00    -0.257 N  
HETATM    8  C   UNL     1     -10.762   5.756  69.247  1.00  0.00    -0.386 A  
HETATM    9  C   UNL     1     -11.225   7.414  71.939  1.00  0.00    -0.247 C  
HETATM   10  C   UNL     1     -10.283   5.273  68.025  1.00  0.00    -0.204 A  
HETATM   11  C   UNL     1     -11.278   9.241  70.178  1.00  0.00    -0.208 A  
HETATM   12  O   UNL     1     -11.926   8.053  72.723  1.00  0.00    -0.337 OA 
HETATM   13  C   UNL     1     -10.882   9.338  68.847  1.00  0.00    -0.128 A  
HETATM   14  C   UNL     1     -11.769  10.357  71.043  1.00  0.00    -0.430 C  
BRANCH   9  15
HETATM   15  C   UNL     1     -10.597   6.178  72.486  1.00  0.00    -0.244 A  
HETATM   16  C   UNL     1      -9.211   6.034  72.615  1.00  0.00    -0.143 A  
HETATM   17  C   UNL     1      -9.515   3.766  73.404  1.00  0.00    -0.104 A  
HETATM   18 CL   UNL     1      -8.847   2.252  73.866  1.00  0.00    -0.069 Cl 
HETATM   19  C   UNL     1      -8.671   4.817  73.042  1.00  0.00    -0.113 A  
HETATM   20  C   UNL     1     -10.897   3.936  73.381  1.00  0.00    -0.318 A  
HETATM   21  C   UNL     1     -11.438   5.141  72.925  1.00  0.00    -0.329 A  
ENDBRANCH   9  15
BRANCH  13  22
HETATM   22  C   UNL     1     -10.948  10.573  67.995  1.00  0.00    -0.345 C  
BRANCH  22  23
HETATM   23  C   UNL     1      -9.694  11.411  67.980  1.00  0.00    -0.186 C  
HETATM   24  O   UNL     1      -8.556  10.963  68.103  1.00  0.00    -0.123 OA 
BRANCH  23  25
HETATM   25  O   UNL     1      -9.955  12.725  67.752  1.00  0.00    -0.208 OA 
BRANCH  25  26
HETATM   26  C   UNL     1     -11.153  13.206  68.358  1.00  0.00    -0.268 C  
HETATM   27  C   UNL     1     -11.720  14.487  67.752  1.00  0.00    -0.374 C  
HETATM   28  O   UNL     1     -12.415  14.295  66.605  1.00  0.00    -0.407 OA 
HETATM   29  O   UNL     1     -11.575  15.596  68.248  1.00  0.00    -0.362 OA 
ENDBRANCH  25  26
ENDBRANCH  23  25
ENDBRANCH  22  23
ENDBRANCH  13  22
ENDBRANCH   2   3
TORSDOF 6
ENDMDL
MODEL       88
REMARK 921   NORMALIZED FREE ENERGY PREDICTED BY IDOCK:   -5.20 KCAL/MOL
REMARK 922        TOTAL FREE ENERGY PREDICTED BY IDOCK:   -8.18 KCAL/MOL
REMARK 923 INTER-LIGAND FREE ENERGY PREDICTED BY IDOCK:   -7.11 KCAL/MOL
REMARK 924 INTRA-LIGAND FREE ENERGY PREDICTED BY IDOCK:   -1.07 KCAL/MOL
REMARK 927      BINDING AFFINITY PREDICTED BY RF-SCORE:    0.00 PKD
ROOT
HETATM    1  C   UNL     1     -12.636  12.068  63.424  1.00  0.00    -0.469 C  
HETATM    2  O   UNL     1     -12.920  12.539  64.735  1.00  0.00    -0.827 OA 
ENDROOT
BRANCH   2   3
HETATM    3  C   UNL     1     -11.871  12.627  65.608  1.00  0.00    -0.437 A  
HETATM    4  C   UNL     1     -11.180  13.792  65.948  1.00  0.00    -0.305 A  
HETATM    5  C   UNL     1     -10.081  13.737  66.841  1.00  0.00    -0.260 A  
HETATM    6  C   UNL     1      -9.676  12.500  67.350  1.00  0.00    -0.194 A  
HETATM    7  N   UNL     1      -8.489  12.692  68.080  1.00  0.00    -0.168 N  
HETATM    8  C   UNL     1     -10.448  11.345  67.107  1.00  0.00    -0.259 A  
HETATM    9  C   UNL     1      -7.628  11.665  68.576  1.00  0.00    -0.127 C  
HETATM   10  C   UNL     1     -11.522  11.427  66.214  1.00  0.00    -0.028 A  
HETATM   11  C   UNL     1      -8.329  14.082  68.247  1.00  0.00    -0.162 A  
HETATM   12  O   UNL     1      -6.928  11.928  69.552  1.00  0.00    -0.060 OA 
HETATM   13  C   UNL     1      -9.270  14.736  67.457  1.00  0.00    -0.198 A  
HETATM   14  C   UNL     1      -7.285  14.726  69.100  1.00  0.00    -0.148 C  
BRANCH   9  15
HETATM   15  C   UNL     1      -7.496  10.283  68.033  1.00  0.00    -0.087 A  
HETATM   16  C   UNL     1      -7.965   9.158  68.723  1.00  0.00    -0.100 A  
HETATM   17  C   UNL     1      -7.081   7.721  66.987  1.00  0.00    -0.085 A  
HETATM   18 CL   UNL     1      -6.734   6.145  66.396  1.00  0.00    -0.058 Cl 
HETATM   19  C   UNL     1      -7.727   7.877  68.214  1.00  0.00    -0.121 A  
HETATM   20  C   UNL     1      -6.708   8.838  66.242  1.00  0.00    -0.073 A  
HETATM   21  C   UNL     1      -6.916  10.117  66.765  1.00  0.00    -0.091 A  
ENDBRANCH   9  15
BRANCH  13  22
HETATM   22  C   UNL     1      -9.471  16.223  67.371  1.00  0.00    -0.227 C  
BRANCH  22  23
HETATM   23  C   UNL     1     -10.628  16.761  68.176  1.00  0.00    -0.350 C  
HETATM   24  O   UNL     1     -11.539  16.074  68.632  1.00  0.00    -0.386 OA 
BRANCH  23  25
HETATM   25  O   UNL     1     -10.523  18.098  68.397  1.00  0.00    -0.359 OA 
BRANCH  25  26
HETATM   26  C   UNL     1     -10.784  18.911  67.254  1.00  0.00    -0.449 C  
HETATM   27  C   UNL     1      -9.700  19.934  66.922  1.00  0.00    -0.407 C  
HETATM   28  O   UNL     1      -8.632  19.415  66.270  1.00  0.00    -0.337 OA 
HETATM   29  O   UNL     1      -9.776  21.121  67.207  1.00  0.00    -0.336 OA 
ENDBRANCH  25  26
ENDBRANCH  23  25
ENDBRANCH  22  23
ENDBRANCH  13  22
ENDBRANCH   2   3
TORSDOF 6
ENDMDL
MODEL       89
REMARK 921   NORMALIZED FREE ENERGY PREDICTED BY IDOCK:   -5.19 KCAL/MOL
REMARK 922        TOTAL FREE ENERGY PREDICTED BY IDOCK:   -8.17 KCAL/MOL
REMARK 923 INTER-LIGAND FREE ENERGY PREDICTED BY IDOCK:   -6.94 KCAL/MOL
REMARK 924 INTRA-LIGAND FREE ENERGY PREDICTED BY IDOCK:   -1.23 KCAL/MOL
REMARK 927      BINDING AFFINITY PREDICTED BY RF-SCORE:    0.00 PKD
ROOT
HETATM    1  C   UNL     1     -12.911  13.766  65.217  1.00  0.00    -0.384 C  
HETATM    2  O   UNL     1     -12.451  12.431  65.386  1.00  0.00    -0.637 OA 
ENDROOT
BRANCH   2   3
HETATM    3  C   UNL     1     -11.351  12.245  66.176  1.00  0.00    -0.353 A  
HETATM    4  C   UNL     1     -11.180  11.230  67.120  1.00  0.00    -0.344 A  
HETATM    5  C   UNL     1      -9.999  11.173  67.904  1.00  0.00    -0.189 A  
HETATM    6  C   UNL     1      -9.027  12.165  67.745  1.00  0.00    -0.179 A  
HETATM    7  N   UNL     1      -8.039  11.973  68.728  1.00  0.00    -0.055 N  
HETATM    8  C   UNL     1      -9.143  13.113  66.708  1.00  0.00    -0.214 A  
HETATM    9  C   UNL     1      -6.991  12.885  69.059  1.00  0.00    -0.058 C  
HETATM   10  C   UNL     1     -10.321  13.151  65.957  1.00  0.00    -0.292 A  
HETATM   11  C   UNL     1      -8.270  10.706  69.301  1.00  0.00    -0.115 A  
HETATM   12  O   UNL     1      -5.970  12.422  69.565  1.00  0.00    -0.090 OA 
HETATM   13  C   UNL     1      -9.491  10.224  68.838  1.00  0.00    -0.190 A  
HETATM   14  C   UNL     1      -7.361  10.031  70.277  1.00  0.00    -0.152 C  
BRANCH   9  15
HETATM   15  C   UNL     1      -6.999  14.359  68.842  1.00  0.00    -0.105 A  
HETATM   16  C   UNL     1      -6.027  15.011  68.073  1.00  0.00    -0.157 A  
HETATM   17  C   UNL     1      -7.032  17.147  68.605  1.00  0.00    -0.209 A  
HETATM   18 CL   UNL     1      -6.991  18.864  68.546  1.00  0.00    -0.285 Cl 
HETATM   19  C   UNL     1      -6.026  16.406  67.984  1.00  0.00    -0.126 A  
HETATM   20  C   UNL     1      -8.064  16.502  69.282  1.00  0.00    -0.087 A  
HETATM   21  C   UNL     1      -8.048  15.109  69.399  1.00  0.00    -0.200 A  
ENDBRANCH   9  15
BRANCH  13  22
HETATM   22  C   UNL     1     -10.096   8.889  69.170  1.00  0.00    -0.202 C  
BRANCH  22  23
HETATM   23  C   UNL     1     -11.037   8.887  70.349  1.00  0.00    -0.239 C  
HETATM   24  O   UNL     1     -11.543   7.877  70.833  1.00  0.00    -0.284 OA 
BRANCH  23  25
HETATM   25  O   UNL     1     -11.222  10.131  70.863  1.00  0.00    -0.337 OA 
BRANCH  25  26
HETATM   26  C   UNL     1     -12.533  10.661  70.678  1.00  0.00    -0.371 C  
HETATM   27  C   UNL     1     -12.718  12.109  71.123  1.00  0.00    -0.253 C  
HETATM   28  O   UNL     1     -12.258  13.023  70.234  1.00  0.00    -0.339 OA 
HETATM   29  O   UNL     1     -13.238  12.435  72.181  1.00  0.00    -0.491 OA 
ENDBRANCH  25  26
ENDBRANCH  23  25
ENDBRANCH  22  23
ENDBRANCH  13  22
ENDBRANCH   2   3
TORSDOF 6
ENDMDL
MODEL       90
REMARK 921   NORMALIZED FREE ENERGY PREDICTED BY IDOCK:   -5.19 KCAL/MOL
REMARK 922        TOTAL FREE ENERGY PREDICTED BY IDOCK:   -8.16 KCAL/MOL
REMARK 923 INTER-LIGAND FREE ENERGY PREDICTED BY IDOCK:   -7.02 KCAL/MOL
REMARK 924 INTRA-LIGAND FREE ENERGY PREDICTED BY IDOCK:   -1.14 KCAL/MOL
REMARK 927      BINDING AFFINITY PREDICTED BY RF-SCORE:    0.00 PKD
ROOT
HETATM    1  C   UNL     1     -12.513  13.630  63.457  1.00  0.00    -0.084 C  
HETATM    2  O   UNL     1     -12.787  13.794  64.843  1.00  0.00    -0.690 OA 
ENDROOT
BRANCH   2   3
HETATM    3  C   UNL     1     -11.738  13.645  65.708  1.00  0.00    -0.348 A  
HETATM    4  C   UNL     1     -10.933  14.670  66.207  1.00  0.00    -0.327 A  
HETATM    5  C   UNL     1      -9.849  14.373  67.071  1.00  0.00    -0.252 A  
HETATM    6  C   UNL     1      -9.575  13.039  67.388  1.00  0.00    -0.211 A  
HETATM    7  N   UNL     1      -8.378  13.000  68.126  1.00  0.00    -0.158 N  
HETATM    8  C   UNL     1     -10.461  12.018  66.987  1.00  0.00    -0.248 A  
HETATM    9  C   UNL     1      -7.630  11.829  68.456  1.00  0.00    -0.131 C  
HETATM   10  C   UNL     1     -11.516  12.339  66.128  1.00  0.00    -0.429 A  
HETATM   11  C   UNL     1      -8.077  14.327  68.493  1.00  0.00    -0.147 A  
HETATM   12  O   UNL     1      -6.910  11.873  69.453  1.00  0.00    -0.106 OA 
HETATM   13  C   UNL     1      -8.943  15.182  67.818  1.00  0.00    -0.178 A  
HETATM   14  C   UNL     1      -6.976  14.728  69.421  1.00  0.00    -0.167 C  
BRANCH   9  15
HETATM   15  C   UNL     1      -7.638  10.535  67.716  1.00  0.00    -0.088 A  
HETATM   16  C   UNL     1      -7.077  10.396  66.441  1.00  0.00    -0.118 A  
HETATM   17  C   UNL     1      -7.823   8.095  66.359  1.00  0.00    -0.093 A  
HETATM   18 CL   UNL     1      -8.028   6.630  65.485  1.00  0.00    -0.111 Cl 
HETATM   19  C   UNL     1      -7.200   9.186  65.751  1.00  0.00    -0.089 A  
HETATM   20  C   UNL     1      -8.288   8.191  67.669  1.00  0.00    -0.127 A  
HETATM   21  C   UNL     1      -8.194   9.410  68.347  1.00  0.00    -0.117 A  
ENDBRANCH   9  15
BRANCH  13  22
HETATM   22  C   UNL     1      -8.990  16.678  67.953  1.00  0.00    -0.217 C  
BRANCH  22  23
HETATM   23  C   UNL     1      -8.032  17.434  67.067  1.00  0.00    -0.215 C  
HETATM   24  O   UNL     1      -7.291  16.910  66.238  1.00  0.00    -0.274 OA 
BRANCH  23  25
HETATM   25  O   UNL     1      -8.120  18.778  67.242  1.00  0.00    -0.241 OA 
BRANCH  25  26
HETATM   26  C   UNL     1      -8.834  19.465  66.215  1.00  0.00    -0.351 C  
HETATM   27  C   UNL     1     -10.310  19.097  66.092  1.00  0.00    -0.484 C  
HETATM   28  O   UNL     1     -11.108  19.701  67.006  1.00  0.00    -0.412 OA 
HETATM   29  O   UNL     1     -10.752  18.332  65.246  1.00  0.00    -0.605 OA 
ENDBRANCH  25  26
ENDBRANCH  23  25
ENDBRANCH  22  23
ENDBRANCH  13  22
ENDBRANCH   2   3
TORSDOF 6
ENDMDL
MODEL       91
REMARK 921   NORMALIZED FREE ENERGY PREDICTED BY IDOCK:   -5.18 KCAL/MOL
REMARK 922        TOTAL FREE ENERGY PREDICTED BY IDOCK:   -8.14 KCAL/MOL
REMARK 923 INTER-LIGAND FREE ENERGY PREDICTED BY IDOCK:   -6.96 KCAL/MOL
REMARK 924 INTRA-LIGAND FREE ENERGY PREDICTED BY IDOCK:   -1.19 KCAL/MOL
REMARK 927      BINDING AFFINITY PREDICTED BY RF-SCORE:    0.00 PKD
ROOT
HETATM    1  C   UNL     1      -9.104   8.080  73.164  1.00  0.00    -0.275 C  
HETATM    2  O   UNL     1      -9.962   8.816  72.300  1.00  0.00    -0.308 OA 
ENDROOT
BRANCH   2   3
HETATM    3  C   UNL     1      -9.640   8.839  70.971  1.00  0.00    -0.229 A  
HETATM    4  C   UNL     1      -9.921   9.872  70.076  1.00  0.00    -0.302 A  
HETATM    5  C   UNL     1      -9.566   9.751  68.709  1.00  0.00    -0.155 A  
HETATM    6  C   UNL     1      -8.962   8.572  68.262  1.00  0.00    -0.139 A  
HETATM    7  N   UNL     1      -8.849   8.639  66.862  1.00  0.00    -0.130 N  
HETATM    8  C   UNL     1      -8.566   7.584  69.187  1.00  0.00    -0.136 A  
HETATM    9  C   UNL     1      -8.494   7.563  65.992  1.00  0.00    -0.148 C  
HETATM   10  C   UNL     1      -8.938   7.725  70.527  1.00  0.00    -0.150 A  
HETATM   11  C   UNL     1      -9.126   9.970  66.490  1.00  0.00    -0.148 A  
HETATM   12  O   UNL     1      -7.987   7.848  64.908  1.00  0.00    -0.125 OA 
HETATM   13  C   UNL     1      -9.610  10.651  67.604  1.00  0.00    -0.178 A  
HETATM   14  C   UNL     1      -8.964  10.524  65.112  1.00  0.00    -0.214 C  
BRANCH   9  15
HETATM   15  C   UNL     1      -8.666   6.108  66.269  1.00  0.00    -0.144 A  
HETATM   16  C   UNL     1      -9.926   5.513  66.403  1.00  0.00    -0.203 A  
HETATM   17  C   UNL     1      -8.874   3.395  66.918  1.00  0.00    -0.138 A  
HETATM   18 CL   UNL     1      -9.002   1.756  67.419  1.00  0.00    -0.150 Cl 
HETATM   19  C   UNL     1     -10.027   4.165  66.760  1.00  0.00    -0.140 A  
HETATM   20  C   UNL     1      -7.619   3.951  66.682  1.00  0.00    -0.088 A  
HETATM   21  C   UNL     1      -7.515   5.306  66.356  1.00  0.00    -0.087 A  
ENDBRANCH   9  15
BRANCH  13  22
HETATM   22  C   UNL     1      -9.988  12.105  67.654  1.00  0.00    -0.199 C  
BRANCH  22  23
HETATM   23  C   UNL     1     -11.429  12.405  67.322  1.00  0.00    -0.354 C  
HETATM   24  O   UNL     1     -12.386  12.077  68.020  1.00  0.00    -0.329 OA 
BRANCH  23  25
HETATM   25  O   UNL     1     -11.554  13.139  66.186  1.00  0.00    -0.324 OA 
BRANCH  25  26
HETATM   26  C   UNL     1     -12.359  12.536  65.175  1.00  0.00    -0.429 C  
HETATM   27  C   UNL     1     -12.021  12.945  63.744  1.00  0.00    -0.512 C  
HETATM   28  O   UNL     1     -10.946  12.304  63.225  1.00  0.00    -0.432 OA 
HETATM   29  O   UNL     1     -12.657  13.772  63.105  1.00  0.00    -0.793 OA 
ENDBRANCH  25  26
ENDBRANCH  23  25
ENDBRANCH  22  23
ENDBRANCH  13  22
ENDBRANCH   2   3
TORSDOF 6
ENDMDL
MODEL       92
REMARK 921   NORMALIZED FREE ENERGY PREDICTED BY IDOCK:   -5.15 KCAL/MOL
REMARK 922        TOTAL FREE ENERGY PREDICTED BY IDOCK:   -8.10 KCAL/MOL
REMARK 923 INTER-LIGAND FREE ENERGY PREDICTED BY IDOCK:   -7.01 KCAL/MOL
REMARK 924 INTRA-LIGAND FREE ENERGY PREDICTED BY IDOCK:   -1.10 KCAL/MOL
REMARK 927      BINDING AFFINITY PREDICTED BY RF-SCORE:    0.00 PKD
ROOT
HETATM    1  C   UNL     1     -10.171  11.062  63.294  1.00  0.00    -0.303 C  
HETATM    2  O   UNL     1      -9.740  11.693  64.494  1.00  0.00    -0.236 OA 
ENDROOT
BRANCH   2   3
HETATM    3  C   UNL     1     -10.097  11.102  65.674  1.00  0.00    -0.253 A  
HETATM    4  C   UNL     1     -10.669  11.743  66.774  1.00  0.00    -0.289 A  
HETATM    5  C   UNL     1     -10.956  11.016  67.957  1.00  0.00    -0.312 A  
HETATM    6  C   UNL     1     -10.628   9.659  68.020  1.00  0.00    -0.243 A  
HETATM    7  N   UNL     1     -10.869   9.209  69.331  1.00  0.00    -0.194 N  
HETATM    8  C   UNL     1     -10.168   8.986  66.870  1.00  0.00    -0.339 A  
HETATM    9  C   UNL     1     -10.465   7.954  69.879  1.00  0.00    -0.229 C  
HETATM   10  C   UNL     1      -9.885   9.730  65.720  1.00  0.00    -0.360 A  
HETATM   11  C   UNL     1     -11.604  10.219  69.984  1.00  0.00    -0.276 A  
HETATM   12  O   UNL     1     -11.115   7.505  70.822  1.00  0.00    -0.254 OA 
HETATM   13  C   UNL     1     -11.627  11.349  69.171  1.00  0.00    -0.381 A  
HETATM   14  C   UNL     1     -12.211  10.091  71.343  1.00  0.00    -0.510 C  
BRANCH   9  15
HETATM   15  C   UNL     1      -9.326   7.111  69.414  1.00  0.00    -0.147 A  
HETATM   16  C   UNL     1      -9.504   5.809  68.930  1.00  0.00    -0.149 A  
HETATM   17  C   UNL     1      -7.108   5.567  68.690  1.00  0.00    -0.065 A  
HETATM   18 CL   UNL     1      -5.741   4.583  68.345  1.00  0.00    -0.016 Cl 
HETATM   19  C   UNL     1      -8.392   5.028  68.600  1.00  0.00    -0.087 A  
HETATM   20  C   UNL     1      -6.928   6.895  69.069  1.00  0.00    -0.082 A  
HETATM   21  C   UNL     1      -8.036   7.666  69.429  1.00  0.00    -0.125 A  
ENDBRANCH   9  15
BRANCH  13  22
HETATM   22  C   UNL     1     -12.337  12.638  69.471  1.00  0.00    -0.002 C  
BRANCH  22  23
HETATM   23  C   UNL     1     -11.438  13.824  69.719  1.00  0.00    -0.199 C  
HETATM   24  O   UNL     1     -10.815  14.420  68.844  1.00  0.00    -0.242 OA 
BRANCH  23  25
HETATM   25  O   UNL     1     -11.439  14.206  71.024  1.00  0.00    -0.082 OA 
BRANCH  25  26
HETATM   26  C   UNL     1     -12.560  13.745  71.776  1.00  0.00    -0.226 C  
HETATM   27  C   UNL     1     -13.444  14.842  72.363  1.00  0.00    -0.428 C  
HETATM   28  O   UNL     1     -14.308  15.390  71.474  1.00  0.00    -0.508 OA 
HETATM   29  O   UNL     1     -13.396  15.202  73.531  1.00  0.00    -0.467 OA 
ENDBRANCH  25  26
ENDBRANCH  23  25
ENDBRANCH  22  23
ENDBRANCH  13  22
ENDBRANCH   2   3
TORSDOF 6
ENDMDL
MODEL       93
REMARK 921   NORMALIZED FREE ENERGY PREDICTED BY IDOCK:   -5.12 KCAL/MOL
REMARK 922        TOTAL FREE ENERGY PREDICTED BY IDOCK:   -8.07 KCAL/MOL
REMARK 923 INTER-LIGAND FREE ENERGY PREDICTED BY IDOCK:   -6.61 KCAL/MOL
REMARK 924 INTRA-LIGAND FREE ENERGY PREDICTED BY IDOCK:   -1.47 KCAL/MOL
REMARK 927      BINDING AFFINITY PREDICTED BY RF-SCORE:    0.00 PKD
ROOT
HETATM    1  C   UNL     1     -12.642  13.544  71.096  1.00  0.00    -0.355 C  
HETATM    2  O   UNL     1     -12.059  13.302  69.822  1.00  0.00    -0.316 OA 
ENDROOT
BRANCH   2   3
HETATM    3  C   UNL     1     -11.691  12.016  69.538  1.00  0.00    -0.342 A  
HETATM    4  C   UNL     1     -11.662  10.951  70.442  1.00  0.00    -0.444 A  
HETATM    5  C   UNL     1     -11.221   9.670  70.024  1.00  0.00    -0.271 A  
HETATM    6  C   UNL     1     -10.782   9.495  68.709  1.00  0.00    -0.190 A  
HETATM    7  N   UNL     1     -10.261   8.194  68.589  1.00  0.00    -0.204 N  
HETATM    8  C   UNL     1     -10.929  10.534  67.767  1.00  0.00    -0.372 A  
HETATM    9  C   UNL     1      -9.513   7.683  67.484  1.00  0.00    -0.140 C  
HETATM   10  C   UNL     1     -11.358  11.790  68.209  1.00  0.00    -0.343 A  
HETATM   11  C   UNL     1     -10.638   7.491  69.751  1.00  0.00    -0.241 A  
HETATM   12  O   UNL     1      -9.531   6.468  67.294  1.00  0.00    -0.121 OA 
HETATM   13  C   UNL     1     -11.187   8.393  70.657  1.00  0.00    -0.275 A  
HETATM   14  C   UNL     1     -10.432   6.027  69.969  1.00  0.00    -0.313 C  
BRANCH   9  15
HETATM   15  C   UNL     1      -8.711   8.482  66.514  1.00  0.00    -0.149 A  
HETATM   16  C   UNL     1      -9.159   8.759  65.216  1.00  0.00    -0.156 A  
HETATM   17  C   UNL     1      -7.070   9.879  64.729  1.00  0.00    -0.133 A  
HETATM   18 CL   UNL     1      -6.022  10.643  63.602  1.00  0.00    -0.059 Cl 
HETATM   19  C   UNL     1      -8.325   9.427  64.316  1.00  0.00    -0.176 A  
HETATM   20  C   UNL     1      -6.659   9.703  66.048  1.00  0.00    -0.079 A  
HETATM   21  C   UNL     1      -7.479   9.007  66.940  1.00  0.00    -0.090 A  
ENDBRANCH   9  15
BRANCH  13  22
HETATM   22  C   UNL     1     -11.755   8.054  72.007  1.00  0.00    -0.375 C  
BRANCH  22  23
HETATM   23  C   UNL     1     -10.737   7.676  73.055  1.00  0.00    -0.391 C  
HETATM   24  O   UNL     1     -10.858   6.733  73.833  1.00  0.00    -0.228 OA 
BRANCH  23  25
HETATM   25  O   UNL     1      -9.631   8.464  73.006  1.00  0.00    -0.246 OA 
BRANCH  25  26
HETATM   26  C   UNL     1      -8.396   7.751  72.969  1.00  0.00    -0.148 C  
HETATM   27  C   UNL     1      -7.461   8.130  71.824  1.00  0.00    -0.088 C  
HETATM   28  O   UNL     1      -6.760   9.270  72.037  1.00  0.00    -0.297 OA 
HETATM   29  O   UNL     1      -7.338   7.472  70.800  1.00  0.00    -0.066 OA 
ENDBRANCH  25  26
ENDBRANCH  23  25
ENDBRANCH  22  23
ENDBRANCH  13  22
ENDBRANCH   2   3
TORSDOF 6
ENDMDL
MODEL       94
REMARK 921   NORMALIZED FREE ENERGY PREDICTED BY IDOCK:   -5.11 KCAL/MOL
REMARK 922        TOTAL FREE ENERGY PREDICTED BY IDOCK:   -8.06 KCAL/MOL
REMARK 923 INTER-LIGAND FREE ENERGY PREDICTED BY IDOCK:   -6.95 KCAL/MOL
REMARK 924 INTRA-LIGAND FREE ENERGY PREDICTED BY IDOCK:   -1.10 KCAL/MOL
REMARK 927      BINDING AFFINITY PREDICTED BY RF-SCORE:    0.00 PKD
ROOT
HETATM    1  C   UNL     1      -5.428  16.139  69.861  1.00  0.00    -0.147 C  
HETATM    2  O   UNL     1      -5.605  14.754  70.130  1.00  0.00    -0.106 OA 
ENDROOT
BRANCH   2   3
HETATM    3  C   UNL     1      -6.631  14.119  69.485  1.00  0.00    -0.124 A  
HETATM    4  C   UNL     1      -7.779  14.725  68.973  1.00  0.00    -0.145 A  
HETATM    5  C   UNL     1      -8.789  13.942  68.359  1.00  0.00    -0.177 A  
HETATM    6  C   UNL     1      -8.637  12.553  68.304  1.00  0.00    -0.173 A  
HETATM    7  N   UNL     1      -9.824  12.001  67.792  1.00  0.00    -0.186 N  
HETATM    8  C   UNL     1      -7.425  11.956  68.708  1.00  0.00    -0.100 A  
HETATM    9  C   UNL     1     -10.172  10.616  67.778  1.00  0.00    -0.180 C  
HETATM   10  C   UNL     1      -6.450  12.752  69.318  1.00  0.00    -0.105 A  
HETATM   11  C   UNL     1     -10.586  13.069  67.277  1.00  0.00    -0.242 A  
HETATM   12  O   UNL     1     -10.968  10.235  66.920  1.00  0.00    -0.190 OA 
HETATM   13  C   UNL     1      -9.986  14.266  67.656  1.00  0.00    -0.225 A  
HETATM   14  C   UNL     1     -11.850  12.917  66.494  1.00  0.00    -0.473 C  
BRANCH   9  15
HETATM   15  C   UNL     1      -9.656   9.564  68.700  1.00  0.00    -0.151 A  
HETATM   16  C   UNL     1      -8.783   8.556  68.275  1.00  0.00    -0.143 A  
HETATM   17  C   UNL     1      -8.851   7.563  70.481  1.00  0.00    -0.147 A  
HETATM   18 CL   UNL     1      -8.440   6.277  71.545  1.00  0.00    -0.129 Cl 
HETATM   19  C   UNL     1      -8.408   7.538  69.158  1.00  0.00    -0.135 A  
HETATM   20  C   UNL     1      -9.632   8.619  70.942  1.00  0.00    -0.252 A  
HETATM   21  C   UNL     1     -10.033   9.620  70.052  1.00  0.00    -0.288 A  
ENDBRANCH   9  15
BRANCH  13  22
HETATM   22  C   UNL     1     -10.453  15.645  67.282  1.00  0.00    -0.292 C  
BRANCH  22  23
HETATM   23  C   UNL     1     -10.928  16.496  68.432  1.00  0.00    -0.348 C  
HETATM   24  O   UNL     1     -11.505  16.063  69.427  1.00  0.00    -0.333 OA 
BRANCH  23  25
HETATM   25  O   UNL     1     -10.592  17.804  68.279  1.00  0.00    -0.369 OA 
BRANCH  25  26
HETATM   26  C   UNL     1      -9.814  18.084  67.116  1.00  0.00    -0.316 C  
HETATM   27  C   UNL     1     -10.534  18.874  66.027  1.00  0.00    -0.446 C  
HETATM   28  O   UNL     1     -10.601  20.207  66.264  1.00  0.00    -0.390 OA 
HETATM   29  O   UNL     1     -11.009  18.367  65.020  1.00  0.00    -0.644 OA 
ENDBRANCH  25  26
ENDBRANCH  23  25
ENDBRANCH  22  23
ENDBRANCH  13  22
ENDBRANCH   2   3
TORSDOF 6
ENDMDL
MODEL       95
REMARK 921   NORMALIZED FREE ENERGY PREDICTED BY IDOCK:   -5.08 KCAL/MOL
REMARK 922        TOTAL FREE ENERGY PREDICTED BY IDOCK:   -8.02 KCAL/MOL
REMARK 923 INTER-LIGAND FREE ENERGY PREDICTED BY IDOCK:   -6.78 KCAL/MOL
REMARK 924 INTRA-LIGAND FREE ENERGY PREDICTED BY IDOCK:   -1.24 KCAL/MOL
REMARK 927      BINDING AFFINITY PREDICTED BY RF-SCORE:    0.00 PKD
ROOT
HETATM    1  C   UNL     1      -5.239  14.151  70.922  1.00  0.00    -0.128 C  
HETATM    2  O   UNL     1      -5.293  13.917  69.521  1.00  0.00    -0.083 OA 
ENDROOT
BRANCH   2   3
HETATM    3  C   UNL     1      -6.533  13.816  68.952  1.00  0.00    -0.100 A  
HETATM    4  C   UNL     1      -7.637  14.622  69.239  1.00  0.00    -0.113 A  
HETATM    5  C   UNL     1      -8.881  14.384  68.603  1.00  0.00    -0.167 A  
HETATM    6  C   UNL     1      -8.999  13.312  67.713  1.00  0.00    -0.196 A  
HETATM    7  N   UNL     1     -10.350  13.198  67.339  1.00  0.00    -0.237 N  
HETATM    8  C   UNL     1      -7.857  12.579  67.330  1.00  0.00    -0.175 A  
HETATM    9  C   UNL     1     -10.938  12.110  66.625  1.00  0.00    -0.282 C  
HETATM   10  C   UNL     1      -6.645  12.829  67.980  1.00  0.00    -0.101 A  
HETATM   11  C   UNL     1     -11.000  14.368  67.782  1.00  0.00    -0.274 A  
HETATM   12  O   UNL     1     -11.958  12.337  65.975  1.00  0.00    -0.570 OA 
HETATM   13  C   UNL     1     -10.125  15.082  68.595  1.00  0.00    -0.233 A  
HETATM   14  C   UNL     1     -12.411  14.737  67.456  1.00  0.00     0.198 C  
BRANCH   9  15
HETATM   15  C   UNL     1     -10.432  10.709  66.572  1.00  0.00    -0.285 A  
HETATM   16  C   UNL     1      -9.751  10.197  65.461  1.00  0.00    -0.344 A  
HETATM   17  C   UNL     1      -9.638   8.026  66.525  1.00  0.00    -0.226 A  
HETATM   18 CL   UNL     1      -9.245   6.355  66.452  1.00  0.00    -0.171 Cl 
HETATM   19  C   UNL     1      -9.385   8.848  65.426  1.00  0.00    -0.158 A  
HETATM   20  C   UNL     1     -10.218   8.551  67.677  1.00  0.00    -0.297 A  
HETATM   21  C   UNL     1     -10.613   9.892  67.701  1.00  0.00    -0.325 A  
ENDBRANCH   9  15
BRANCH  13  22
HETATM   22  C   UNL     1     -10.404  16.409  69.241  1.00  0.00    -0.292 C  
BRANCH  22  23
HETATM   23  C   UNL     1     -10.176  17.613  68.361  1.00  0.00    -0.381 C  
HETATM   24  O   UNL     1     -10.975  18.023  67.522  1.00  0.00    -0.314 OA 
BRANCH  23  25
HETATM   25  O   UNL     1      -9.002  18.240  68.640  1.00  0.00    -0.319 OA 
BRANCH  25  26
HETATM   26  C   UNL     1      -8.111  18.351  67.532  1.00  0.00    -0.247 C  
HETATM   27  C   UNL     1      -8.145  19.691  66.802  1.00  0.00    -0.297 C  
HETATM   28  O   UNL     1      -7.448  20.675  67.420  1.00  0.00    -0.326 OA 
HETATM   29  O   UNL     1      -8.738  19.876  65.748  1.00  0.00    -0.336 OA 
ENDBRANCH  25  26
ENDBRANCH  23  25
ENDBRANCH  22  23
ENDBRANCH  13  22
ENDBRANCH   2   3
TORSDOF 6
ENDMDL
MODEL       96
REMARK 921   NORMALIZED FREE ENERGY PREDICTED BY IDOCK:   -5.08 KCAL/MOL
REMARK 922        TOTAL FREE ENERGY PREDICTED BY IDOCK:   -8.02 KCAL/MOL
REMARK 923 INTER-LIGAND FREE ENERGY PREDICTED BY IDOCK:   -6.83 KCAL/MOL
REMARK 924 INTRA-LIGAND FREE ENERGY PREDICTED BY IDOCK:   -1.19 KCAL/MOL
REMARK 927      BINDING AFFINITY PREDICTED BY RF-SCORE:    0.00 PKD
ROOT
HETATM    1  C   UNL     1     -12.240  14.263  69.635  1.00  0.00    -0.323 C  
HETATM    2  O   UNL     1     -11.933  13.854  68.308  1.00  0.00    -0.359 OA 
ENDROOT
BRANCH   2   3
HETATM    3  C   UNL     1     -11.540  12.557  68.129  1.00  0.00    -0.340 A  
HETATM    4  C   UNL     1     -11.517  11.563  69.109  1.00  0.00    -0.362 A  
HETATM    5  C   UNL     1     -11.048  10.261  68.798  1.00  0.00    -0.276 A  
HETATM    6  C   UNL     1     -10.577   9.996  67.509  1.00  0.00    -0.280 A  
HETATM    7  N   UNL     1     -10.035   8.697  67.498  1.00  0.00    -0.184 N  
HETATM    8  C   UNL     1     -10.718  10.960  66.490  1.00  0.00    -0.270 A  
HETATM    9  C   UNL     1      -9.256   8.118  66.450  1.00  0.00    -0.199 C  
HETATM   10  C   UNL     1     -11.174  12.238  66.827  1.00  0.00    -0.371 A  
HETATM   11  C   UNL     1     -10.429   8.077  68.701  1.00  0.00    -0.167 A  
HETATM   12  O   UNL     1      -9.253   6.892  66.352  1.00  0.00    -0.161 OA 
HETATM   13  C   UNL     1     -11.011   9.036  69.526  1.00  0.00    -0.118 A  
HETATM   14  C   UNL     1     -10.207   6.637  69.032  1.00  0.00    -0.196 C  
BRANCH   9  15
HETATM   15  C   UNL     1      -8.444   8.855  65.440  1.00  0.00    -0.176 A  
HETATM   16  C   UNL     1      -8.755   8.846  64.075  1.00  0.00    -0.068 A  
HETATM   17  C   UNL     1      -6.778  10.163  63.613  1.00  0.00    -0.117 A  
HETATM   18 CL   UNL     1      -5.700  10.877  62.481  1.00  0.00    -0.160 Cl 
HETATM   19  C   UNL     1      -7.903   9.472  63.160  1.00  0.00    -0.132 A  
HETATM   20  C   UNL     1      -6.520  10.269  64.977  1.00  0.00    -0.120 A  
HETATM   21  C   UNL     1      -7.353   9.616  65.890  1.00  0.00    -0.099 A  
ENDBRANCH   9  15
BRANCH  13  22
HETATM   22  C   UNL     1     -11.603   8.789  70.884  1.00  0.00    -0.320 C  
BRANCH  22  23
HETATM   23  C   UNL     1     -10.602   8.608  71.998  1.00  0.00    -0.351 C  
HETATM   24  O   UNL     1      -9.510   9.168  72.049  1.00  0.00    -0.323 OA 
BRANCH  23  25
HETATM   25  O   UNL     1     -11.069   7.797  72.983  1.00  0.00    -0.398 OA 
BRANCH  25  26
HETATM   26  C   UNL     1     -11.642   6.574  72.524  1.00  0.00    -0.208 C  
HETATM   27  C   UNL     1     -10.867   5.313  72.896  1.00  0.00    -0.270 C  
HETATM   28  O   UNL     1     -11.073   4.893  74.168  1.00  0.00    -0.297 OA 
HETATM   29  O   UNL     1     -10.127   4.717  72.126  1.00  0.00    -0.181 OA 
ENDBRANCH  25  26
ENDBRANCH  23  25
ENDBRANCH  22  23
ENDBRANCH  13  22
ENDBRANCH   2   3
TORSDOF 6
ENDMDL
MODEL       97
REMARK 921   NORMALIZED FREE ENERGY PREDICTED BY IDOCK:   -5.07 KCAL/MOL
REMARK 922        TOTAL FREE ENERGY PREDICTED BY IDOCK:   -8.00 KCAL/MOL
REMARK 923 INTER-LIGAND FREE ENERGY PREDICTED BY IDOCK:   -7.03 KCAL/MOL
REMARK 924 INTRA-LIGAND FREE ENERGY PREDICTED BY IDOCK:   -0.97 KCAL/MOL
REMARK 927      BINDING AFFINITY PREDICTED BY RF-SCORE:    0.00 PKD
ROOT
HETATM    1  C   UNL     1     -12.955  12.027  63.490  1.00  0.00    -0.192 C  
HETATM    2  O   UNL     1     -13.008  12.648  64.768  1.00  0.00    -0.816 OA 
ENDROOT
BRANCH   2   3
HETATM    3  C   UNL     1     -11.821  12.828  65.425  1.00  0.00    -0.415 A  
HETATM    4  C   UNL     1     -11.207  11.909  66.278  1.00  0.00    -0.392 A  
HETATM    5  C   UNL     1      -9.991  12.239  66.928  1.00  0.00    -0.223 A  
HETATM    6  C   UNL     1      -9.434  13.506  66.732  1.00  0.00    -0.269 A  
HETATM    7  N   UNL     1      -8.329  13.638  67.592  1.00  0.00    -0.168 N  
HETATM    8  C   UNL     1      -9.986  14.384  65.777  1.00  0.00    -0.354 A  
HETATM    9  C   UNL     1      -7.615  14.844  67.869  1.00  0.00    -0.136 C  
HETATM   10  C   UNL     1     -11.190  14.037  65.157  1.00  0.00    -0.329 A  
HETATM   11  C   UNL     1      -8.050  12.354  68.104  1.00  0.00    -0.163 A  
HETATM   12  O   UNL     1      -6.445  14.744  68.235  1.00  0.00    -0.099 OA 
HETATM   13  C   UNL     1      -9.085  11.497  67.741  1.00  0.00    -0.165 A  
HETATM   14  C   UNL     1      -6.857  12.005  68.933  1.00  0.00    -0.103 C  
BRANCH   9  15
HETATM   15  C   UNL     1      -8.144  16.232  67.749  1.00  0.00    -0.160 A  
HETATM   16  C   UNL     1      -9.131  16.737  68.604  1.00  0.00    -0.254 A  
HETATM   17  C   UNL     1      -9.160  18.809  67.354  1.00  0.00    -0.276 A  
HETATM   18 CL   UNL     1      -9.857  20.349  67.047  1.00  0.00    -0.601 Cl 
HETATM   19  C   UNL     1      -9.661  18.012  68.384  1.00  0.00    -0.338 A  
HETATM   20  C   UNL     1      -8.104  18.358  66.566  1.00  0.00    -0.291 A  
HETATM   21  C   UNL     1      -7.595  17.071  66.764  1.00  0.00    -0.273 A  
ENDBRANCH   9  15
BRANCH  13  22
HETATM   22  C   UNL     1      -9.163  10.028  68.049  1.00  0.00    -0.139 C  
BRANCH  22  23
HETATM   23  C   UNL     1      -9.525   9.146  66.880  1.00  0.00    -0.171 C  
HETATM   24  O   UNL     1     -10.573   8.511  66.786  1.00  0.00    -0.283 OA 
BRANCH  23  25
HETATM   25  O   UNL     1      -8.583   9.175  65.902  1.00  0.00    -0.136 OA 
BRANCH  25  26
HETATM   26  C   UNL     1      -8.023   7.904  65.578  1.00  0.00    -0.119 C  
HETATM   27  C   UNL     1      -6.752   7.539  66.341  1.00  0.00    -0.057 C  
HETATM   28  O   UNL     1      -6.974   7.085  67.598  1.00  0.00    -0.077 OA 
HETATM   29  O   UNL     1      -5.627   7.636  65.873  1.00  0.00    -0.031 OA 
ENDBRANCH  25  26
ENDBRANCH  23  25
ENDBRANCH  22  23
ENDBRANCH  13  22
ENDBRANCH   2   3
TORSDOF 6
ENDMDL
MODEL       98
REMARK 921   NORMALIZED FREE ENERGY PREDICTED BY IDOCK:   -5.07 KCAL/MOL
REMARK 922        TOTAL FREE ENERGY PREDICTED BY IDOCK:   -8.00 KCAL/MOL
REMARK 923 INTER-LIGAND FREE ENERGY PREDICTED BY IDOCK:   -6.84 KCAL/MOL
REMARK 924 INTRA-LIGAND FREE ENERGY PREDICTED BY IDOCK:   -1.16 KCAL/MOL
REMARK 927      BINDING AFFINITY PREDICTED BY RF-SCORE:    0.00 PKD
ROOT
HETATM    1  C   UNL     1     -11.028   7.747  73.044  1.00  0.00    -0.381 C  
HETATM    2  O   UNL     1     -11.666   8.859  72.428  1.00  0.00    -0.331 OA 
ENDROOT
BRANCH   2   3
HETATM    3  C   UNL     1     -11.335   9.127  71.128  1.00  0.00    -0.322 A  
HETATM    4  C   UNL     1     -10.539   8.331  70.303  1.00  0.00    -0.230 A  
HETATM    5  C   UNL     1     -10.241   8.747  68.980  1.00  0.00    -0.218 A  
HETATM    6  C   UNL     1     -10.725   9.977  68.526  1.00  0.00    -0.231 A  
HETATM    7  N   UNL     1     -10.173  10.224  67.255  1.00  0.00    -0.206 N  
HETATM    8  C   UNL     1     -11.629  10.718  69.313  1.00  0.00    -0.376 A  
HETATM    9  C   UNL     1     -10.230  11.458  66.537  1.00  0.00    -0.221 C  
HETATM   10  C   UNL     1     -11.898  10.290  70.617  1.00  0.00    -0.439 A  
HETATM   11  C   UNL     1      -9.580   9.021  66.823  1.00  0.00    -0.200 A  
HETATM   12  O   UNL     1     -10.140  11.410  65.311  1.00  0.00    -0.242 OA 
HETATM   13  C   UNL     1      -9.574   8.121  67.885  1.00  0.00    -0.179 A  
HETATM   14  C   UNL     1      -9.016   8.788  65.459  1.00  0.00    -0.231 C  
BRANCH   9  15
HETATM   15  C   UNL     1     -10.402  12.817  67.125  1.00  0.00    -0.237 A  
HETATM   16  C   UNL     1      -9.326  13.561  67.624  1.00  0.00    -0.216 A  
HETATM   17  C   UNL     1     -10.851  15.304  68.326  1.00  0.00    -0.262 A  
HETATM   18 CL   UNL     1     -11.138  16.781  69.156  1.00  0.00    -0.219 Cl 
HETATM   19  C   UNL     1      -9.556  14.788  68.253  1.00  0.00    -0.215 A  
HETATM   20  C   UNL     1     -11.914  14.622  67.737  1.00  0.00    -0.302 A  
HETATM   21  C   UNL     1     -11.689  13.380  67.136  1.00  0.00    -0.424 A  
ENDBRANCH   9  15
BRANCH  13  22
HETATM   22  C   UNL     1      -9.070   6.707  67.841  1.00  0.00    -0.114 C  
BRANCH  22  23
HETATM   23  C   UNL     1     -10.139   5.643  67.853  1.00  0.00    -0.168 C  
HETATM   24  O   UNL     1     -11.122   5.637  67.117  1.00  0.00    -0.131 OA 
BRANCH  23  25
HETATM   25  O   UNL     1      -9.863   4.646  68.735  1.00  0.00    -0.167 OA 
BRANCH  25  26
HETATM   26  C   UNL     1     -10.193   4.944  70.090  1.00  0.00    -0.240 C  
HETATM   27  C   UNL     1      -9.035   4.841  71.079  1.00  0.00    -0.126 C  
HETATM   28  O   UNL     1      -8.209   5.916  71.077  1.00  0.00    -0.118 OA 
HETATM   29  O   UNL     1      -8.856   3.884  71.820  1.00  0.00    -0.100 OA 
ENDBRANCH  25  26
ENDBRANCH  23  25
ENDBRANCH  22  23
ENDBRANCH  13  22
ENDBRANCH   2   3
TORSDOF 6
ENDMDL
MODEL       99
REMARK 921   NORMALIZED FREE ENERGY PREDICTED BY IDOCK:   -5.05 KCAL/MOL
REMARK 922        TOTAL FREE ENERGY PREDICTED BY IDOCK:   -7.98 KCAL/MOL
REMARK 923 INTER-LIGAND FREE ENERGY PREDICTED BY IDOCK:   -6.82 KCAL/MOL
REMARK 924 INTRA-LIGAND FREE ENERGY PREDICTED BY IDOCK:   -1.16 KCAL/MOL
REMARK 927      BINDING AFFINITY PREDICTED BY RF-SCORE:    0.00 PKD
ROOT
HETATM    1  C   UNL     1      -5.937  16.080  68.519  1.00  0.00    -0.105 C  
HETATM    2  O   UNL     1      -6.172  14.865  69.220  1.00  0.00    -0.101 OA 
ENDROOT
BRANCH   2   3
HETATM    3  C   UNL     1      -7.026  13.966  68.643  1.00  0.00    -0.108 A  
HETATM    4  C   UNL     1      -7.929  14.236  67.614  1.00  0.00    -0.191 A  
HETATM    5  C   UNL     1      -8.789  13.217  67.131  1.00  0.00    -0.223 A  
HETATM    6  C   UNL     1      -8.746  11.951  67.721  1.00  0.00    -0.158 A  
HETATM    7  N   UNL     1      -9.784  11.175  67.174  1.00  0.00    -0.176 N  
HETATM    8  C   UNL     1      -7.750  11.645  68.671  1.00  0.00    -0.134 A  
HETATM    9  C   UNL     1     -10.230   9.906  67.653  1.00  0.00    -0.208 C  
HETATM   10  C   UNL     1      -6.921  12.671  69.136  1.00  0.00    -0.019 A  
HETATM   11  C   UNL     1     -10.279  11.878  66.057  1.00  0.00    -0.229 A  
HETATM   12  O   UNL     1     -10.783   9.154  66.852  1.00  0.00    -0.203 OA 
HETATM   13  C   UNL     1      -9.710  13.149  66.044  1.00  0.00    -0.234 A  
HETATM   14  C   UNL     1     -11.281  11.344  65.086  1.00  0.00    -0.146 C  
BRANCH   9  15
HETATM   15  C   UNL     1     -10.083   9.382  69.042  1.00  0.00    -0.202 A  
HETATM   16  C   UNL     1     -10.842   9.869  70.112  1.00  0.00    -0.356 A  
HETATM   17  C   UNL     1      -9.636   8.422  71.631  1.00  0.00    -0.221 A  
HETATM   18 CL   UNL     1      -9.289   7.909  73.234  1.00  0.00    -0.334 Cl 
HETATM   19  C   UNL     1     -10.594   9.412  71.410  1.00  0.00    -0.381 A  
HETATM   20  C   UNL     1      -8.951   7.854  70.559  1.00  0.00    -0.145 A  
HETATM   21  C   UNL     1      -9.176   8.333  69.266  1.00  0.00    -0.151 A  
ENDBRANCH   9  15
BRANCH  13  22
HETATM   22  C   UNL     1      -9.936  14.206  65.000  1.00  0.00    -0.216 C  
BRANCH  22  23
HETATM   23  C   UNL     1     -11.016  15.208  65.324  1.00  0.00    -0.395 C  
HETATM   24  O   UNL     1     -12.139  14.914  65.728  1.00  0.00    -0.169 OA 
BRANCH  23  25
HETATM   25  O   UNL     1     -10.589  16.490  65.178  1.00  0.00    -0.632 OA 
BRANCH  25  26
HETATM   26  C   UNL     1     -10.486  17.223  66.397  1.00  0.00    -0.263 C  
HETATM   27  C   UNL     1      -9.943  18.643  66.258  1.00  0.00    -0.372 C  
HETATM   28  O   UNL     1     -10.859  19.545  65.831  1.00  0.00    -0.436 OA 
HETATM   29  O   UNL     1      -8.788  18.957  66.512  1.00  0.00    -0.307 OA 
ENDBRANCH  25  26
ENDBRANCH  23  25
ENDBRANCH  22  23
ENDBRANCH  13  22
ENDBRANCH   2   3
TORSDOF 6
ENDMDL
MODEL      100
REMARK 921   NORMALIZED FREE ENERGY PREDICTED BY IDOCK:   -5.05 KCAL/MOL
REMARK 922        TOTAL FREE ENERGY PREDICTED BY IDOCK:   -7.98 KCAL/MOL
REMARK 923 INTER-LIGAND FREE ENERGY PREDICTED BY IDOCK:   -6.33 KCAL/MOL
REMARK 924 INTRA-LIGAND FREE ENERGY PREDICTED BY IDOCK:   -1.65 KCAL/MOL
REMARK 927      BINDING AFFINITY PREDICTED BY RF-SCORE:    0.00 PKD
ROOT
HETATM    1  C   UNL     1     -10.575   5.205  66.394  1.00  0.00    -0.276 C  
HETATM    2  O   UNL     1     -11.046   6.050  67.436  1.00  0.00    -0.302 OA 
ENDROOT
BRANCH   2   3
HETATM    3  C   UNL     1     -10.280   7.138  67.752  1.00  0.00    -0.184 A  
HETATM    4  C   UNL     1      -9.419   7.247  68.846  1.00  0.00    -0.143 A  
HETATM    5  C   UNL     1      -8.708   8.451  69.080  1.00  0.00    -0.142 A  
HETATM    6  C   UNL     1      -8.907   9.539  68.224  1.00  0.00    -0.124 A  
HETATM    7  N   UNL     1      -8.216  10.645  68.751  1.00  0.00    -0.133 N  
HETATM    8  C   UNL     1      -9.677   9.388  67.053  1.00  0.00    -0.233 A  
HETATM    9  C   UNL     1      -8.332  11.999  68.312  1.00  0.00    -0.163 C  
HETATM   10  C   UNL     1     -10.374   8.192  66.852  1.00  0.00    -0.401 A  
HETATM   11  C   UNL     1      -7.374  10.156  69.771  1.00  0.00    -0.158 A  
HETATM   12  O   UNL     1      -7.378  12.749  68.512  1.00  0.00    -0.107 OA 
HETATM   13  C   UNL     1      -7.697   8.824  70.014  1.00  0.00    -0.082 A  
HETATM   14  C   UNL     1      -6.344  10.966  70.489  1.00  0.00    -0.020 C  
BRANCH   9  15
HETATM   15  C   UNL     1      -9.502  12.605  67.615  1.00  0.00    -0.189 A  
HETATM   16  C   UNL     1     -10.738  12.791  68.245  1.00  0.00    -0.257 A  
HETATM   17  C   UNL     1     -11.671  13.633  66.177  1.00  0.00    -0.364 A  
HETATM   18 CL   UNL     1     -13.029  14.165  65.268  1.00  0.00    -0.391 Cl 
HETATM   19  C   UNL     1     -11.830  13.273  67.516  1.00  0.00    -0.403 A  
HETATM   20  C   UNL     1     -10.420  13.553  65.571  1.00  0.00    -0.304 A  
HETATM   21  C   UNL     1      -9.336  13.041  66.290  1.00  0.00    -0.149 A  
ENDBRANCH   9  15
BRANCH  13  22
HETATM   22  C   UNL     1      -7.014   7.915  70.996  1.00  0.00    -0.049 C  
BRANCH  22  23
HETATM   23  C   UNL     1      -7.531   7.993  72.411  1.00  0.00    -0.109 C  
HETATM   24  O   UNL     1      -7.026   8.674  73.300  1.00  0.00    -0.293 OA 
BRANCH  23  25
HETATM   25  O   UNL     1      -8.668   7.268  72.584  1.00  0.00    -0.119 OA 
BRANCH  25  26
HETATM   26  C   UNL     1      -9.770   8.008  73.105  1.00  0.00    -0.270 C  
HETATM   27  C   UNL     1     -10.831   8.403  72.081  1.00  0.00    -0.337 C  
HETATM   28  O   UNL     1     -11.691   7.406  71.764  1.00  0.00    -0.268 OA 
HETATM   29  O   UNL     1     -10.915   9.518  71.584  1.00  0.00    -0.362 OA 
ENDBRANCH  25  26
ENDBRANCH  23  25
ENDBRANCH  22  23
ENDBRANCH  13  22
ENDBRANCH   2   3
TORSDOF 6
ENDMDL
MODEL      101
REMARK 921   NORMALIZED FREE ENERGY PREDICTED BY IDOCK:   -5.03 KCAL/MOL
REMARK 922        TOTAL FREE ENERGY PREDICTED BY IDOCK:   -7.94 KCAL/MOL
REMARK 923 INTER-LIGAND FREE ENERGY PREDICTED BY IDOCK:   -6.96 KCAL/MOL
REMARK 924 INTRA-LIGAND FREE ENERGY PREDICTED BY IDOCK:   -0.98 KCAL/MOL
REMARK 927      BINDING AFFINITY PREDICTED BY RF-SCORE:    0.00 PKD
ROOT
HETATM    1  C   UNL     1     -10.962   7.657  72.805  1.00  0.00    -0.377 C  
HETATM    2  O   UNL     1     -11.379   8.910  72.277  1.00  0.00    -0.345 OA 
ENDROOT
BRANCH   2   3
HETATM    3  C   UNL     1     -11.116   9.150  70.957  1.00  0.00    -0.305 A  
HETATM    4  C   UNL     1     -10.305   8.374  70.126  1.00  0.00    -0.214 A  
HETATM    5  C   UNL     1     -10.085   8.758  68.779  1.00  0.00    -0.213 A  
HETATM    6  C   UNL     1     -10.660   9.940  68.304  1.00  0.00    -0.229 A  
HETATM    7  N   UNL     1     -10.175  10.174  67.004  1.00  0.00    -0.222 N  
HETATM    8  C   UNL     1     -11.577  10.654  69.102  1.00  0.00    -0.342 A  
HETATM    9  C   UNL     1     -10.335  11.375  66.248  1.00  0.00    -0.243 C  
HETATM   10  C   UNL     1     -11.768  10.258  70.430  1.00  0.00    -0.404 A  
HETATM   11  C   UNL     1      -9.527   8.993  66.589  1.00  0.00    -0.194 A  
HETATM   12  O   UNL     1     -10.290  11.288  65.022  1.00  0.00    -0.271 OA 
HETATM   13  C   UNL     1      -9.425   8.135  67.680  1.00  0.00    -0.172 A  
HETATM   14  C   UNL     1      -9.003   8.745  65.211  1.00  0.00    -0.184 C  
BRANCH   9  15
HETATM   15  C   UNL     1     -10.566  12.742  66.796  1.00  0.00    -0.266 A  
HETATM   16  C   UNL     1     -11.802  13.392  66.695  1.00  0.00    -0.443 A  
HETATM   17  C   UNL     1     -10.856  15.359  67.742  1.00  0.00    -0.302 A  
HETATM   18 CL   UNL     1     -11.006  17.001  68.227  1.00  0.00    -0.335 Cl 
HETATM   19  C   UNL     1     -11.936  14.711  67.138  1.00  0.00    -0.310 A  
HETATM   20  C   UNL     1      -9.655  14.684  67.943  1.00  0.00    -0.212 A  
HETATM   21  C   UNL     1      -9.511  13.376  67.472  1.00  0.00    -0.219 A  
ENDBRANCH   9  15
BRANCH  13  22
HETATM   22  C   UNL     1      -8.837   6.752  67.663  1.00  0.00    -0.117 C  
BRANCH  22  23
HETATM   23  C   UNL     1      -9.812   5.636  67.941  1.00  0.00    -0.133 C  
HETATM   24  O   UNL     1     -11.034   5.766  67.951  1.00  0.00    -0.232 OA 
BRANCH  23  25
HETATM   25  O   UNL     1      -9.190   4.441  68.121  1.00  0.00    -0.121 OA 
BRANCH  25  26
HETATM   26  C   UNL     1      -9.609   3.413  67.226  1.00  0.00    -0.089 C  
HETATM   27  C   UNL     1      -9.366   3.700  65.746  1.00  0.00    -0.164 C  
HETATM   28  O   UNL     1      -8.090   3.486  65.344  1.00  0.00    -0.095 OA 
HETATM   29  O   UNL     1     -10.236   4.083  64.976  1.00  0.00    -0.210 OA 
ENDBRANCH  25  26
ENDBRANCH  23  25
ENDBRANCH  22  23
ENDBRANCH  13  22
ENDBRANCH   2   3
TORSDOF 6
ENDMDL
MODEL      102
REMARK 921   NORMALIZED FREE ENERGY PREDICTED BY IDOCK:   -4.98 KCAL/MOL
REMARK 922        TOTAL FREE ENERGY PREDICTED BY IDOCK:   -7.88 KCAL/MOL
REMARK 923 INTER-LIGAND FREE ENERGY PREDICTED BY IDOCK:   -6.58 KCAL/MOL
REMARK 924 INTRA-LIGAND FREE ENERGY PREDICTED BY IDOCK:   -1.31 KCAL/MOL
REMARK 927      BINDING AFFINITY PREDICTED BY RF-SCORE:    0.00 PKD
ROOT
HETATM    1  C   UNL     1     -11.149  13.235  64.415  1.00  0.00    -0.384 C  
HETATM    2  O   UNL     1     -11.811  12.542  65.466  1.00  0.00    -0.398 OA 
ENDROOT
BRANCH   2   3
HETATM    3  C   UNL     1     -11.028  12.016  66.457  1.00  0.00    -0.295 A  
HETATM    4  C   UNL     1      -9.656  11.770  66.376  1.00  0.00    -0.234 A  
HETATM    5  C   UNL     1      -8.969  11.183  67.469  1.00  0.00    -0.139 A  
HETATM    6  C   UNL     1      -9.687  10.822  68.612  1.00  0.00    -0.186 A  
HETATM    7  N   UNL     1      -8.819  10.132  69.477  1.00  0.00    -0.193 N  
HETATM    8  C   UNL     1     -11.044  11.184  68.742  1.00  0.00    -0.291 A  
HETATM    9  C   UNL     1      -9.197   9.403  70.646  1.00  0.00    -0.242 C  
HETATM   10  C   UNL     1     -11.698  11.754  67.645  1.00  0.00    -0.320 A  
HETATM   11  C   UNL     1      -7.512  10.318  68.983  1.00  0.00    -0.097 A  
HETATM   12  O   UNL     1      -8.353   9.262  71.529  1.00  0.00    -0.323 OA 
HETATM   13  C   UNL     1      -7.592  10.922  67.731  1.00  0.00    -0.095 A  
HETATM   14  C   UNL     1      -6.264   9.891  69.685  1.00  0.00    -0.047 C  
BRANCH   9  15
HETATM   15  C   UNL     1     -10.531   8.796  70.918  1.00  0.00    -0.278 A  
HETATM   16  C   UNL     1     -11.507   9.441  71.687  1.00  0.00    -0.463 A  
HETATM   17  C   UNL     1     -12.954   7.513  71.476  1.00  0.00    -0.359 A  
HETATM   18 CL   UNL     1     -14.397   6.684  71.906  1.00  0.00    -0.298 Cl 
HETATM   19  C   UNL     1     -12.703   8.785  71.993  1.00  0.00    -0.444 A  
HETATM   20  C   UNL     1     -12.036   6.908  70.622  1.00  0.00    -0.400 A  
HETATM   21  C   UNL     1     -10.826   7.549  70.342  1.00  0.00    -0.255 A  
ENDBRANCH   9  15
BRANCH  13  22
HETATM   22  C   UNL     1      -6.429  11.334  66.874  1.00  0.00    -0.128 C  
BRANCH  22  23
HETATM   23  C   UNL     1      -5.970  10.301  65.875  1.00  0.00    -0.094 C  
HETATM   24  O   UNL     1      -5.619  10.554  64.725  1.00  0.00    -0.129 OA 
BRANCH  23  25
HETATM   25  O   UNL     1      -5.927   9.052  66.408  1.00  0.00    -0.057 OA 
BRANCH  25  26
HETATM   26  C   UNL     1      -6.426   8.025  65.554  1.00  0.00    -0.045 C  
HETATM   27  C   UNL     1      -7.837   7.540  65.875  1.00  0.00    -0.107 C  
HETATM   28  O   UNL     1      -8.819   8.354  65.417  1.00  0.00    -0.170 OA 
HETATM   29  O   UNL     1      -8.079   6.508  66.486  1.00  0.00    -0.107 OA 
ENDBRANCH  25  26
ENDBRANCH  23  25
ENDBRANCH  22  23
ENDBRANCH  13  22
ENDBRANCH   2   3
TORSDOF 6
ENDMDL
MODEL      103
REMARK 921   NORMALIZED FREE ENERGY PREDICTED BY IDOCK:   -4.94 KCAL/MOL
REMARK 922        TOTAL FREE ENERGY PREDICTED BY IDOCK:   -7.82 KCAL/MOL
REMARK 923 INTER-LIGAND FREE ENERGY PREDICTED BY IDOCK:   -6.81 KCAL/MOL
REMARK 924 INTRA-LIGAND FREE ENERGY PREDICTED BY IDOCK:   -1.01 KCAL/MOL
REMARK 927      BINDING AFFINITY PREDICTED BY RF-SCORE:    0.00 PKD
ROOT
HETATM    1  C   UNL     1      -7.562  10.255  69.560  1.00  0.00    -0.150 C  
HETATM    2  O   UNL     1      -7.213  11.578  69.173  1.00  0.00    -0.115 OA 
ENDROOT
BRANCH   2   3
HETATM    3  C   UNL     1      -8.052  12.216  68.302  1.00  0.00    -0.166 A  
HETATM    4  C   UNL     1      -8.583  11.676  67.129  1.00  0.00    -0.164 A  
HETATM    5  C   UNL     1      -9.413  12.463  66.291  1.00  0.00    -0.220 A  
HETATM    6  C   UNL     1      -9.665  13.794  66.635  1.00  0.00    -0.289 A  
HETATM    7  N   UNL     1     -10.379  14.393  65.582  1.00  0.00    -0.323 N  
HETATM    8  C   UNL     1      -9.234  14.299  67.879  1.00  0.00    -0.194 A  
HETATM    9  C   UNL     1     -10.644  15.788  65.429  1.00  0.00    -0.421 C  
HETATM   10  C   UNL     1      -8.409  13.504  68.681  1.00  0.00    -0.024 A  
HETATM   11  C   UNL     1     -10.800  13.354  64.727  1.00  0.00    -0.375 A  
HETATM   12  O   UNL     1     -11.629  16.114  64.768  1.00  0.00    -0.207 OA 
HETATM   13  C   UNL     1     -10.180  12.173  65.124  1.00  0.00    -0.308 A  
HETATM   14  C   UNL     1     -11.726  13.524  63.566  1.00  0.00    -0.202 C  
BRANCH   9  15
HETATM   15  C   UNL     1      -9.846  16.908  66.004  1.00  0.00    -0.281 A  
HETATM   16  C   UNL     1      -8.446  16.921  65.985  1.00  0.00    -0.186 A  
HETATM   17  C   UNL     1      -8.444  18.997  67.228  1.00  0.00    -0.277 A  
HETATM   18 CL   UNL     1      -7.584  20.224  68.070  1.00  0.00    -0.285 Cl 
HETATM   19  C   UNL     1      -7.748  17.949  66.626  1.00  0.00    -0.275 A  
HETATM   20  C   UNL     1      -9.834  19.049  67.160  1.00  0.00    -0.383 A  
HETATM   21  C   UNL     1     -10.534  18.006  66.547  1.00  0.00    -0.341 A  
ENDBRANCH   9  15
BRANCH  13  22
HETATM   22  C   UNL     1     -10.383  10.818  64.506  1.00  0.00    -0.401 C  
BRANCH  22  23
HETATM   23  C   UNL     1      -9.448  10.483  63.371  1.00  0.00    -0.316 C  
HETATM   24  O   UNL     1      -9.167  11.249  62.452  1.00  0.00    -0.304 OA 
BRANCH  23  25
HETATM   25  O   UNL     1      -8.895   9.249  63.506  1.00  0.00    -0.205 OA 
BRANCH  25  26
HETATM   26  C   UNL     1      -8.161   9.057  64.714  1.00  0.00    -0.144 C  
HETATM   27  C   UNL     1      -6.642   9.048  64.557  1.00  0.00    -0.074 C  
HETATM   28  O   UNL     1      -6.090  10.281  64.454  1.00  0.00    -0.131 OA 
HETATM   29  O   UNL     1      -5.967   8.029  64.530  1.00  0.00    -0.051 OA 
ENDBRANCH  25  26
ENDBRANCH  23  25
ENDBRANCH  22  23
ENDBRANCH  13  22
ENDBRANCH   2   3
TORSDOF 6
ENDMDL
MODEL      104
REMARK 921   NORMALIZED FREE ENERGY PREDICTED BY IDOCK:   -4.85 KCAL/MOL
REMARK 922        TOTAL FREE ENERGY PREDICTED BY IDOCK:   -7.71 KCAL/MOL
REMARK 923 INTER-LIGAND FREE ENERGY PREDICTED BY IDOCK:   -6.01 KCAL/MOL
REMARK 924 INTRA-LIGAND FREE ENERGY PREDICTED BY IDOCK:   -1.69 KCAL/MOL
REMARK 927      BINDING AFFINITY PREDICTED BY RF-SCORE:    0.00 PKD
ROOT
HETATM    1  C   UNL     1     -10.162   4.290  65.054  1.00  0.00    -0.196 C  
HETATM    2  O   UNL     1     -10.904   4.722  66.188  1.00  0.00    -0.258 OA 
ENDROOT
BRANCH   2   3
HETATM    3  C   UNL     1     -10.299   5.620  67.024  1.00  0.00    -0.254 A  
HETATM    4  C   UNL     1      -9.845   5.359  68.318  1.00  0.00    -0.196 A  
HETATM    5  C   UNL     1      -9.269   6.395  69.096  1.00  0.00    -0.133 A  
HETATM    6  C   UNL     1      -9.192   7.686  68.565  1.00  0.00    -0.143 A  
HETATM    7  N   UNL     1      -8.727   8.549  69.573  1.00  0.00    -0.134 N  
HETATM    8  C   UNL     1      -9.533   7.919  67.217  1.00  0.00    -0.188 A  
HETATM    9  C   UNL     1      -8.713   9.977  69.520  1.00  0.00    -0.192 C  
HETATM   10  C   UNL     1     -10.108   6.882  66.476  1.00  0.00    -0.140 A  
HETATM   11  C   UNL     1      -8.259   7.738  70.626  1.00  0.00    -0.115 A  
HETATM   12  O   UNL     1      -7.888  10.566  70.216  1.00  0.00    -0.024 OA 
HETATM   13  C   UNL     1      -8.624   6.420  70.368  1.00  0.00    -0.142 A  
HETATM   14  C   UNL     1      -7.532   8.238  71.832  1.00  0.00    -0.118 C  
BRANCH   9  15
HETATM   15  C   UNL     1      -9.599  10.840  68.689  1.00  0.00    -0.187 A  
HETATM   16  C   UNL     1     -10.958  11.018  68.975  1.00  0.00    -0.284 A  
HETATM   17  C   UNL     1     -11.203  12.378  66.988  1.00  0.00    -0.303 A  
HETATM   18 CL   UNL     1     -12.208  13.234  65.888  1.00  0.00    -0.487 Cl 
HETATM   19  C   UNL     1     -11.764  11.759  68.106  1.00  0.00    -0.377 A  
HETATM   20  C   UNL     1      -9.832  12.296  66.754  1.00  0.00    -0.218 A  
HETATM   21  C   UNL     1      -9.031  11.529  67.604  1.00  0.00    -0.160 A  
ENDBRANCH   9  15
BRANCH  13  22
HETATM   22  C   UNL     1      -8.287   5.227  71.218  1.00  0.00    -0.123 C  
BRANCH  22  23
HETATM   23  C   UNL     1      -9.204   4.997  72.393  1.00  0.00    -0.133 C  
HETATM   24  O   UNL     1      -8.884   5.161  73.568  1.00  0.00    -0.116 OA 
BRANCH  23  25
HETATM   25  O   UNL     1     -10.457   4.641  72.006  1.00  0.00    -0.192 OA 
BRANCH  25  26
HETATM   26  C   UNL     1     -11.500   5.429  72.578  1.00  0.00    -0.195 C  
HETATM   27  C   UNL     1     -11.670   6.820  71.973  1.00  0.00    -0.306 C  
HETATM   28  O   UNL     1     -12.346   6.834  70.799  1.00  0.00    -0.377 OA 
HETATM   29  O   UNL     1     -11.245   7.843  72.492  1.00  0.00    -0.318 OA 
ENDBRANCH  25  26
ENDBRANCH  23  25
ENDBRANCH  22  23
ENDBRANCH  13  22
ENDBRANCH   2   3
TORSDOF 6
ENDMDL
MODEL      105
REMARK 921   NORMALIZED FREE ENERGY PREDICTED BY IDOCK:   -4.85 KCAL/MOL
REMARK 922        TOTAL FREE ENERGY PREDICTED BY IDOCK:   -7.70 KCAL/MOL
REMARK 923 INTER-LIGAND FREE ENERGY PREDICTED BY IDOCK:   -6.16 KCAL/MOL
REMARK 924 INTRA-LIGAND FREE ENERGY PREDICTED BY IDOCK:   -1.54 KCAL/MOL
REMARK 927      BINDING AFFINITY PREDICTED BY RF-SCORE:    0.00 PKD
ROOT
HETATM    1  C   UNL     1      -9.938  11.215  63.610  1.00  0.00    -0.363 C  
HETATM    2  O   UNL     1     -10.648  11.007  64.824  1.00  0.00    -0.319 OA 
ENDROOT
BRANCH   2   3
HETATM    3  C   UNL     1     -10.083  10.166  65.742  1.00  0.00    -0.254 A  
HETATM    4  C   UNL     1      -9.182   9.136  65.466  1.00  0.00    -0.287 A  
HETATM    5  C   UNL     1      -8.699   8.308  66.512  1.00  0.00    -0.157 A  
HETATM    6  C   UNL     1      -9.164   8.513  67.814  1.00  0.00    -0.135 A  
HETATM    7  N   UNL     1      -8.660   7.482  68.628  1.00  0.00    -0.129 N  
HETATM    8  C   UNL     1      -9.974   9.628  68.111  1.00  0.00    -0.185 A  
HETATM    9  C   UNL     1      -9.065   7.190  69.966  1.00  0.00    -0.145 C  
HETATM   10  C   UNL     1     -10.442  10.422  67.060  1.00  0.00    -0.309 A  
HETATM   11  C   UNL     1      -7.669   6.815  67.880  1.00  0.00    -0.112 A  
HETATM   12  O   UNL     1      -8.260   6.610  70.693  1.00  0.00    -0.121 OA 
HETATM   13  C   UNL     1      -7.712   7.280  66.569  1.00  0.00    -0.093 A  
HETATM   14  C   UNL     1      -6.762   5.755  68.417  1.00  0.00    -0.054 C  
BRANCH   9  15
HETATM   15  C   UNL     1     -10.377   7.528  70.587  1.00  0.00    -0.211 A  
HETATM   16  C   UNL     1     -11.541   6.792  70.334  1.00  0.00    -0.422 A  
HETATM   17  C   UNL     1     -12.815   8.328  71.702  1.00  0.00    -0.329 A  
HETATM   18 CL   UNL     1     -14.329   8.879  72.301  1.00  0.00    -0.473 Cl 
HETATM   19  C   UNL     1     -12.764   7.212  70.866  1.00  0.00    -0.225 A  
HETATM   20  C   UNL     1     -11.647   9.004  72.047  1.00  0.00    -0.413 A  
HETATM   21  C   UNL     1     -10.429   8.603  71.491  1.00  0.00    -0.344 A  
ENDBRANCH   9  15
BRANCH  13  22
HETATM   22  C   UNL     1      -6.798   6.861  65.453  1.00  0.00    -0.052 C  
BRANCH  22  23
HETATM   23  C   UNL     1      -7.090   5.506  64.858  1.00  0.00    -0.061 C  
HETATM   24  O   UNL     1      -6.350   4.530  64.954  1.00  0.00    -0.033 OA 
BRANCH  23  25
HETATM   25  O   UNL     1      -8.304   5.463  64.247  1.00  0.00    -0.133 OA 
BRANCH  25  26
HETATM   26  C   UNL     1      -9.059   4.282  64.511  1.00  0.00    -0.150 C  
HETATM   27  C   UNL     1      -9.610   4.165  65.930  1.00  0.00    -0.191 C  
HETATM   28  O   UNL     1     -10.732   4.893  66.148  1.00  0.00    -0.317 OA 
HETATM   29  O   UNL     1      -9.100   3.477  66.803  1.00  0.00    -0.140 OA 
ENDBRANCH  25  26
ENDBRANCH  23  25
ENDBRANCH  22  23
ENDBRANCH  13  22
ENDBRANCH   2   3
TORSDOF 6
ENDMDL
MODEL      106
REMARK 921   NORMALIZED FREE ENERGY PREDICTED BY IDOCK:   -4.82 KCAL/MOL
REMARK 922        TOTAL FREE ENERGY PREDICTED BY IDOCK:   -7.67 KCAL/MOL
REMARK 923 INTER-LIGAND FREE ENERGY PREDICTED BY IDOCK:   -6.47 KCAL/MOL
REMARK 924 INTRA-LIGAND FREE ENERGY PREDICTED BY IDOCK:   -1.19 KCAL/MOL
REMARK 927      BINDING AFFINITY PREDICTED BY RF-SCORE:    0.00 PKD
ROOT
HETATM    1  C   UNL     1     -12.533  15.576  63.988  1.00  0.00     0.297 C  
HETATM    2  O   UNL     1     -12.718  14.375  64.727  1.00  0.00    -0.635 OA 
ENDROOT
BRANCH   2   3
HETATM    3  C   UNL     1     -11.671  13.948  65.497  1.00  0.00    -0.349 A  
HETATM    4  C   UNL     1     -11.662  12.817  66.316  1.00  0.00    -0.460 A  
HETATM    5  C   UNL     1     -10.519  12.507  67.095  1.00  0.00    -0.237 A  
HETATM    6  C   UNL     1      -9.416  13.366  67.060  1.00  0.00    -0.247 A  
HETATM    7  N   UNL     1      -8.487  12.927  68.021  1.00  0.00    -0.169 N  
HETATM    8  C   UNL     1      -9.378  14.435  66.141  1.00  0.00    -0.221 A  
HETATM    9  C   UNL     1      -7.331  13.640  68.463  1.00  0.00    -0.114 C  
HETATM   10  C   UNL     1     -10.523  14.722  65.392  1.00  0.00    -0.401 A  
HETATM   11  C   UNL     1      -8.901  11.647  68.439  1.00  0.00    -0.161 A  
HETATM   12  O   UNL     1      -6.394  12.985  68.918  1.00  0.00    -0.081 OA 
HETATM   13  C   UNL     1     -10.166  11.395  67.915  1.00  0.00    -0.201 A  
HETATM   14  C   UNL     1      -8.115  10.744  69.334  1.00  0.00    -0.053 C  
BRANCH   9  15
HETATM   15  C   UNL     1      -7.132  15.117  68.420  1.00  0.00    -0.107 A  
HETATM   16  C   UNL     1      -7.985  16.009  69.082  1.00  0.00    -0.238 A  
HETATM   17  C   UNL     1      -6.747  17.877  68.167  1.00  0.00    -0.200 A  
HETATM   18 CL   UNL     1      -6.574  19.570  67.927  1.00  0.00    -0.252 Cl 
HETATM   19  C   UNL     1      -7.810  17.388  68.927  1.00  0.00    -0.196 A  
HETATM   20  C   UNL     1      -5.831  16.999  67.593  1.00  0.00    -0.149 A  
HETATM   21  C   UNL     1      -6.023  15.620  67.721  1.00  0.00    -0.171 A  
ENDBRANCH   9  15
BRANCH  13  22
HETATM   22  C   UNL     1     -10.956  10.128  68.084  1.00  0.00    -0.313 C  
BRANCH  22  23
HETATM   23  C   UNL     1     -10.542   8.989  67.186  1.00  0.00    -0.220 C  
HETATM   24  O   UNL     1     -10.099   9.125  66.048  1.00  0.00    -0.284 OA 
BRANCH  23  25
HETATM   25  O   UNL     1     -10.656   7.782  67.801  1.00  0.00    -0.225 OA 
BRANCH  25  26
HETATM   26  C   UNL     1     -10.157   7.747  69.136  1.00  0.00    -0.196 C  
HETATM   27  C   UNL     1     -11.041   7.014  70.142  1.00  0.00    -0.285 C  
HETATM   28  O   UNL     1     -10.926   5.664  70.098  1.00  0.00    -0.313 OA 
HETATM   29  O   UNL     1     -11.787   7.578  70.929  1.00  0.00    -0.292 OA 
ENDBRANCH  25  26
ENDBRANCH  23  25
ENDBRANCH  22  23
ENDBRANCH  13  22
ENDBRANCH   2   3
TORSDOF 6
ENDMDL
MODEL      107
REMARK 921   NORMALIZED FREE ENERGY PREDICTED BY IDOCK:   -4.82 KCAL/MOL
REMARK 922        TOTAL FREE ENERGY PREDICTED BY IDOCK:   -7.66 KCAL/MOL
REMARK 923 INTER-LIGAND FREE ENERGY PREDICTED BY IDOCK:   -6.43 KCAL/MOL
REMARK 924 INTRA-LIGAND FREE ENERGY PREDICTED BY IDOCK:   -1.23 KCAL/MOL
REMARK 927      BINDING AFFINITY PREDICTED BY RF-SCORE:    0.00 PKD
ROOT
HETATM    1  C   UNL     1     -12.056  13.254  64.129  1.00  0.00    -0.432 C  
HETATM    2  O   UNL     1     -12.480  12.585  65.311  1.00  0.00    -0.608 OA 
ENDROOT
BRANCH   2   3
HETATM    3  C   UNL     1     -11.539  11.866  65.994  1.00  0.00    -0.227 A  
HETATM    4  C   UNL     1     -10.384  11.300  65.450  1.00  0.00    -0.328 A  
HETATM    5  C   UNL     1      -9.507  10.542  66.267  1.00  0.00    -0.217 A  
HETATM    6  C   UNL     1      -9.830  10.340  67.612  1.00  0.00    -0.171 A  
HETATM    7  N   UNL     1      -8.893   9.443  68.159  1.00  0.00    -0.125 N  
HETATM    8  C   UNL     1     -10.925  11.015  68.188  1.00  0.00    -0.301 A  
HETATM    9  C   UNL     1      -8.984   8.803  69.432  1.00  0.00    -0.145 C  
HETATM   10  C   UNL     1     -11.779  11.748  67.357  1.00  0.00    -0.304 A  
HETATM   11  C   UNL     1      -7.846   9.321  67.224  1.00  0.00    -0.099 A  
HETATM   12  O   UNL     1      -7.937   8.444  69.967  1.00  0.00    -0.103 OA 
HETATM   13  C   UNL     1      -8.228   9.952  66.043  1.00  0.00    -0.119 A  
HETATM   14  C   UNL     1      -6.565   8.592  67.466  1.00  0.00    -0.058 C  
BRANCH   9  15
HETATM   15  C   UNL     1     -10.234   8.529  70.198  1.00  0.00    -0.202 A  
HETATM   16  C   UNL     1     -10.963   7.343  70.046  1.00  0.00    -0.264 A  
HETATM   17  C   UNL     1     -12.636   8.171  71.587  1.00  0.00    -0.320 A  
HETATM   18 CL   UNL     1     -14.162   7.995  72.358  1.00  0.00    -0.250 Cl 
HETATM   19  C   UNL     1     -12.180   7.181  70.715  1.00  0.00    -0.308 A  
HETATM   20  C   UNL     1     -11.865   9.306  71.827  1.00  0.00    -0.454 A  
HETATM   21  C   UNL     1     -10.664   9.484  71.134  1.00  0.00    -0.408 A  
ENDBRANCH   9  15
BRANCH  13  22
HETATM   22  C   UNL     1      -7.388  10.091  64.805  1.00  0.00    -0.143 C  
BRANCH  22  23
HETATM   23  C   UNL     1      -7.808   9.223  63.644  1.00  0.00    -0.130 C  
HETATM   24  O   UNL     1      -8.881   9.324  63.053  1.00  0.00    -0.225 OA 
BRANCH  23  25
HETATM   25  O   UNL     1      -6.836   8.348  63.277  1.00  0.00    -0.087 OA 
BRANCH  25  26
HETATM   26  C   UNL     1      -6.659   7.249  64.170  1.00  0.00    -0.044 C  
HETATM   27  C   UNL     1      -7.895   6.379  64.382  1.00  0.00    -0.115 C  
HETATM   28  O   UNL     1      -8.123   5.490  63.385  1.00  0.00    -0.099 OA 
HETATM   29  O   UNL     1      -8.623   6.459  65.363  1.00  0.00    -0.146 OA 
ENDBRANCH  25  26
ENDBRANCH  23  25
ENDBRANCH  22  23
ENDBRANCH  13  22
ENDBRANCH   2   3
TORSDOF 6
ENDMDL
MODEL      108
REMARK 921   NORMALIZED FREE ENERGY PREDICTED BY IDOCK:   -4.76 KCAL/MOL
REMARK 922        TOTAL FREE ENERGY PREDICTED BY IDOCK:   -7.58 KCAL/MOL
REMARK 923 INTER-LIGAND FREE ENERGY PREDICTED BY IDOCK:   -6.64 KCAL/MOL
REMARK 924 INTRA-LIGAND FREE ENERGY PREDICTED BY IDOCK:   -0.95 KCAL/MOL
REMARK 927      BINDING AFFINITY PREDICTED BY RF-SCORE:    0.00 PKD
ROOT
HETATM    1  C   UNL     1     -14.371   8.335  71.986  1.00  0.00    -0.450 C  
HETATM    2  O   UNL     1     -13.896   9.664  71.815  1.00  0.00    -0.290 OA 
ENDROOT
BRANCH   2   3
HETATM    3  C   UNL     1     -12.725   9.825  71.126  1.00  0.00    -0.340 A  
HETATM    4  C   UNL     1     -12.556  10.570  69.957  1.00  0.00    -0.192 A  
HETATM    5  C   UNL     1     -11.291  10.623  69.319  1.00  0.00    -0.346 A  
HETATM    6  C   UNL     1     -10.225   9.893  69.855  1.00  0.00    -0.257 A  
HETATM    7  N   UNL     1      -9.138   9.989  68.968  1.00  0.00    -0.160 N  
HETATM    8  C   UNL     1     -10.364   9.246  71.099  1.00  0.00    -0.392 A  
HETATM    9  C   UNL     1      -7.936   9.219  69.022  1.00  0.00    -0.097 C  
HETATM   10  C   UNL     1     -11.625   9.202  71.701  1.00  0.00    -0.449 A  
HETATM   11  C   UNL     1      -9.452  11.000  68.038  1.00  0.00    -0.166 A  
HETATM   12  O   UNL     1      -6.924   9.703  68.517  1.00  0.00    -0.064 OA 
HETATM   13  C   UNL     1     -10.784  11.367  68.213  1.00  0.00    -0.240 A  
HETATM   14  C   UNL     1      -8.509  11.543  67.014  1.00  0.00    -0.164 C  
BRANCH   9  15
HETATM   15  C   UNL     1      -7.773   7.875  69.647  1.00  0.00    -0.103 A  
HETATM   16  C   UNL     1      -7.230   7.702  70.926  1.00  0.00    -0.062 A  
HETATM   17  C   UNL     1      -7.390   5.301  70.673  1.00  0.00    -0.070 A  
HETATM   18 CL   UNL     1      -7.059   3.720  71.260  1.00  0.00    -0.032 Cl 
HETATM   19  C   UNL     1      -7.009   6.414  71.423  1.00  0.00    -0.076 A  
HETATM   20  C   UNL     1      -8.029   5.464  69.447  1.00  0.00    -0.089 A  
HETATM   21  C   UNL     1      -8.222   6.750  68.935  1.00  0.00    -0.121 A  
ENDBRANCH   9  15
BRANCH  13  22
HETATM   22  C   UNL     1     -11.511  12.440  67.454  1.00  0.00    -0.418 C  
BRANCH  22  23
HETATM   23  C   UNL     1     -11.677  13.747  68.189  1.00  0.00    -0.357 C  
HETATM   24  O   UNL     1     -12.352  13.892  69.205  1.00  0.00    -0.323 OA 
BRANCH  23  25
HETATM   25  O   UNL     1     -10.941  14.746  67.636  1.00  0.00    -0.274 OA 
BRANCH  25  26
HETATM   26  C   UNL     1     -11.343  16.061  68.017  1.00  0.00    -0.266 C  
HETATM   27  C   UNL     1     -10.657  16.615  69.263  1.00  0.00    -0.343 C  
HETATM   28  O   UNL     1      -9.410  17.096  69.040  1.00  0.00    -0.237 OA 
HETATM   29  O   UNL     1     -11.174  16.636  70.371  1.00  0.00    -0.260 OA 
ENDBRANCH  25  26
ENDBRANCH  23  25
ENDBRANCH  22  23
ENDBRANCH  13  22
ENDBRANCH   2   3
TORSDOF 6
ENDMDL
MODEL      109
REMARK 921   NORMALIZED FREE ENERGY PREDICTED BY IDOCK:   -4.73 KCAL/MOL
REMARK 922        TOTAL FREE ENERGY PREDICTED BY IDOCK:   -7.55 KCAL/MOL
REMARK 923 INTER-LIGAND FREE ENERGY PREDICTED BY IDOCK:   -6.24 KCAL/MOL
REMARK 924 INTRA-LIGAND FREE ENERGY PREDICTED BY IDOCK:   -1.31 KCAL/MOL
REMARK 927      BINDING AFFINITY PREDICTED BY RF-SCORE:    0.00 PKD
ROOT
HETATM    1  C   UNL     1      -5.240   8.582  66.556  1.00  0.00    -0.027 C  
HETATM    2  O   UNL     1      -6.501   8.880  65.969  1.00  0.00    -0.059 OA 
ENDROOT
BRANCH   2   3
HETATM    3  C   UNL     1      -7.456   9.424  66.783  1.00  0.00    -0.094 A  
HETATM    4  C   UNL     1      -8.173   8.748  67.771  1.00  0.00    -0.111 A  
HETATM    5  C   UNL     1      -9.168   9.425  68.522  1.00  0.00    -0.131 A  
HETATM    6  C   UNL     1      -9.445  10.765  68.236  1.00  0.00    -0.164 A  
HETATM    7  N   UNL     1     -10.558  11.157  69.003  1.00  0.00    -0.215 N  
HETATM    8  C   UNL     1      -8.637  11.479  67.328  1.00  0.00    -0.150 A  
HETATM    9  C   UNL     1     -11.300  12.368  68.853  1.00  0.00    -0.294 C  
HETATM   10  C   UNL     1      -7.669  10.784  66.595  1.00  0.00    -0.141 A  
HETATM   11  C   UNL     1     -10.780  10.142  69.954  1.00  0.00    -0.295 A  
HETATM   12  O   UNL     1     -11.908  12.791  69.835  1.00  0.00    -0.324 OA 
HETATM   13  C   UNL     1      -9.966   9.056  69.645  1.00  0.00    -0.196 A  
HETATM   14  C   UNL     1     -11.764  10.222  71.076  1.00  0.00    -0.461 C  
BRANCH   9  15
HETATM   15  C   UNL     1     -11.408  13.193  67.616  1.00  0.00    -0.335 A  
HETATM   16  C   UNL     1     -10.795  14.446  67.492  1.00  0.00    -0.285 A  
HETATM   17  C   UNL     1     -11.781  14.717  65.299  1.00  0.00    -0.346 A  
HETATM   18 CL   UNL     1     -12.096  15.696  63.922  1.00  0.00     0.017 Cl 
HETATM   19  C   UNL     1     -11.010  15.220  66.348  1.00  0.00    -0.299 A  
HETATM   20  C   UNL     1     -12.306  13.428  65.367  1.00  0.00    -0.522 A  
HETATM   21  C   UNL     1     -12.118  12.667  66.523  1.00  0.00    -0.296 A  
ENDBRANCH   9  15
BRANCH  13  22
HETATM   22  C   UNL     1      -9.862   7.778  70.429  1.00  0.00    -0.183 C  
BRANCH  22  23
HETATM   23  C   UNL     1     -10.449   6.562  69.757  1.00  0.00    -0.211 C  
HETATM   24  O   UNL     1     -11.651   6.320  69.684  1.00  0.00    -0.430 OA 
BRANCH  23  25
HETATM   25  O   UNL     1      -9.496   5.783  69.180  1.00  0.00    -0.124 OA 
BRANCH  25  26
HETATM   26  C   UNL     1      -9.990   4.868  68.203  1.00  0.00    -0.108 C  
HETATM   27  C   UNL     1     -10.182   5.450  66.805  1.00  0.00    -0.241 C  
HETATM   28  O   UNL     1      -9.038   5.551  66.086  1.00  0.00    -0.142 OA 
HETATM   29  O   UNL     1     -11.266   5.795  66.355  1.00  0.00    -0.071 OA 
ENDBRANCH  25  26
ENDBRANCH  23  25
ENDBRANCH  22  23
ENDBRANCH  13  22
ENDBRANCH   2   3
TORSDOF 6
ENDMDL
MODEL      110
REMARK 921   NORMALIZED FREE ENERGY PREDICTED BY IDOCK:   -4.73 KCAL/MOL
REMARK 922        TOTAL FREE ENERGY PREDICTED BY IDOCK:   -7.54 KCAL/MOL
REMARK 923 INTER-LIGAND FREE ENERGY PREDICTED BY IDOCK:   -6.24 KCAL/MOL
REMARK 924 INTRA-LIGAND FREE ENERGY PREDICTED BY IDOCK:   -1.31 KCAL/MOL
REMARK 927      BINDING AFFINITY PREDICTED BY RF-SCORE:    0.00 PKD
ROOT
HETATM    1  C   UNL     1      -6.977   6.589  65.104  1.00  0.00    -0.052 C  
HETATM    2  O   UNL     1      -8.395   6.687  65.124  1.00  0.00    -0.137 OA 
ENDROOT
BRANCH   2   3
HETATM    3  C   UNL     1      -8.958   7.380  66.160  1.00  0.00    -0.149 A  
HETATM    4  C   UNL     1      -9.732   6.837  67.188  1.00  0.00    -0.191 A  
HETATM    5  C   UNL     1     -10.291   7.677  68.184  1.00  0.00    -0.250 A  
HETATM    6  C   UNL     1     -10.087   9.058  68.105  1.00  0.00    -0.191 A  
HETATM    7  N   UNL     1     -10.858   9.673  69.107  1.00  0.00    -0.214 N  
HETATM    8  C   UNL     1      -9.206   9.591  67.142  1.00  0.00    -0.158 A  
HETATM    9  C   UNL     1     -11.112  11.073  69.235  1.00  0.00    -0.254 C  
HETATM   10  C   UNL     1      -8.676   8.741  66.167  1.00  0.00    -0.184 A  
HETATM   11  C   UNL     1     -11.307   8.651  69.967  1.00  0.00    -0.017 A  
HETATM   12  O   UNL     1     -11.378  11.506  70.356  1.00  0.00    -0.121 OA 
HETATM   13  C   UNL     1     -11.005   7.420  69.391  1.00  0.00    -0.126 A  
HETATM   14  C   UNL     1     -12.027   8.874  71.258  1.00  0.00    -0.365 C  
BRANCH   9  15
HETATM   15  C   UNL     1     -11.076  12.083  68.139  1.00  0.00    -0.294 A  
HETATM   16  C   UNL     1     -11.910  12.005  67.018  1.00  0.00    -0.251 A  
HETATM   17  C   UNL     1     -10.835  13.958  66.077  1.00  0.00    -0.290 A  
HETATM   18 CL   UNL     1     -10.617  15.046  64.765  1.00  0.00    -0.388 Cl 
HETATM   19  C   UNL     1     -11.766  12.923  65.974  1.00  0.00    -0.456 A  
HETATM   20  C   UNL     1     -10.076  14.108  67.235  1.00  0.00    -0.256 A  
HETATM   21  C   UNL     1     -10.197  13.172  68.266  1.00  0.00    -0.250 A  
ENDBRANCH   9  15
BRANCH  13  22
HETATM   22  C   UNL     1     -11.275   6.072  69.996  1.00  0.00    -0.425 C  
BRANCH  22  23
HETATM   23  C   UNL     1     -10.059   5.349  70.521  1.00  0.00    -0.236 C  
HETATM   24  O   UNL     1      -9.604   4.314  70.039  1.00  0.00    -0.170 OA 
BRANCH  23  25
HETATM   25  O   UNL     1      -9.478   6.005  71.560  1.00  0.00    -0.149 OA 
BRANCH  25  26
HETATM   26  C   UNL     1     -10.227   5.976  72.773  1.00  0.00    -0.188 C  
HETATM   27  C   UNL     1     -10.072   4.705  73.603  1.00  0.00    -0.165 C  
HETATM   28  O   UNL     1      -8.936   4.662  74.341  1.00  0.00    -0.110 OA 
HETATM   29  O   UNL     1     -10.893   3.798  73.619  1.00  0.00    -0.201 OA 
ENDBRANCH  25  26
ENDBRANCH  23  25
ENDBRANCH  22  23
ENDBRANCH  13  22
ENDBRANCH   2   3
TORSDOF 6
ENDMDL
MODEL      111
REMARK 921   NORMALIZED FREE ENERGY PREDICTED BY IDOCK:   -4.72 KCAL/MOL
REMARK 922        TOTAL FREE ENERGY PREDICTED BY IDOCK:   -7.53 KCAL/MOL
REMARK 923 INTER-LIGAND FREE ENERGY PREDICTED BY IDOCK:   -6.97 KCAL/MOL
REMARK 924 INTRA-LIGAND FREE ENERGY PREDICTED BY IDOCK:   -0.56 KCAL/MOL
REMARK 927      BINDING AFFINITY PREDICTED BY RF-SCORE:    0.00 PKD
ROOT
HETATM    1  C   UNL     1     -13.561  13.476  72.254  1.00  0.00    -0.592 C  
HETATM    2  O   UNL     1     -13.467  12.066  72.097  1.00  0.00    -0.476 OA 
ENDROOT
BRANCH   2   3
HETATM    3  C   UNL     1     -12.704  11.602  71.062  1.00  0.00    -0.298 A  
HETATM    4  C   UNL     1     -11.958  10.422  71.056  1.00  0.00    -0.481 A  
HETATM    5  C   UNL     1     -11.174  10.076  69.926  1.00  0.00    -0.327 A  
HETATM    6  C   UNL     1     -11.131  10.947  68.833  1.00  0.00    -0.252 A  
HETATM    7  N   UNL     1     -10.180  10.458  67.919  1.00  0.00    -0.170 N  
HETATM    8  C   UNL     1     -11.979  12.072  68.788  1.00  0.00    -0.299 A  
HETATM    9  C   UNL     1      -9.668  11.154  66.782  1.00  0.00    -0.193 C  
HETATM   10  C   UNL     1     -12.734  12.394  69.921  1.00  0.00     0.371 A  
HETATM   11  C   UNL     1      -9.852   9.149  68.327  1.00  0.00    -0.160 A  
HETATM   12  O   UNL     1      -9.235  10.482  65.847  1.00  0.00    -0.166 OA 
HETATM   13  C   UNL     1     -10.419   8.918  69.577  1.00  0.00    -0.229 A  
HETATM   14  C   UNL     1      -8.999   8.200  67.549  1.00  0.00    -0.143 C  
BRANCH   9  15
HETATM   15  C   UNL     1      -9.613  12.633  66.600  1.00  0.00    -0.249 A  
HETATM   16  C   UNL     1      -8.781  13.454  67.370  1.00  0.00    -0.209 A  
HETATM   17  C   UNL     1      -9.684  15.410  66.268  1.00  0.00    -0.299 A  
HETATM   18 CL   UNL     1      -9.803  17.119  66.138  1.00  0.00    -0.295 Cl 
HETATM   19  C   UNL     1      -8.842  14.843  67.226  1.00  0.00    -0.216 A  
HETATM   20  C   UNL     1     -10.436  14.597  65.424  1.00  0.00    -0.400 A  
HETATM   21  C   UNL     1     -10.399  13.210  65.589  1.00  0.00    -0.291 A  
ENDBRANCH   9  15
BRANCH  13  22
HETATM   22  C   UNL     1     -10.347   7.634  70.355  1.00  0.00    -0.214 C  
BRANCH  22  23
HETATM   23  C   UNL     1     -10.919   7.696  71.749  1.00  0.00    -0.239 C  
HETATM   24  O   UNL     1     -12.043   7.306  72.058  1.00  0.00    -0.296 OA 
BRANCH  23  25
HETATM   25  O   UNL     1     -10.026   8.179  72.652  1.00  0.00    -0.259 OA 
BRANCH  25  26
HETATM   26  C   UNL     1      -9.902   7.399  73.840  1.00  0.00    -0.225 C  
HETATM   27  C   UNL     1      -9.187   6.062  73.668  1.00  0.00    -0.127 C  
HETATM   28  O   UNL     1      -7.836   6.159  73.629  1.00  0.00    -0.095 OA 
HETATM   29  O   UNL     1      -9.765   4.988  73.578  1.00  0.00    -0.138 OA 
ENDBRANCH  25  26
ENDBRANCH  23  25
ENDBRANCH  22  23
ENDBRANCH  13  22
ENDBRANCH   2   3
TORSDOF 6
ENDMDL
MODEL      112
REMARK 921   NORMALIZED FREE ENERGY PREDICTED BY IDOCK:   -4.70 KCAL/MOL
REMARK 922        TOTAL FREE ENERGY PREDICTED BY IDOCK:   -7.50 KCAL/MOL
REMARK 923 INTER-LIGAND FREE ENERGY PREDICTED BY IDOCK:   -6.55 KCAL/MOL
REMARK 924 INTRA-LIGAND FREE ENERGY PREDICTED BY IDOCK:   -0.95 KCAL/MOL
REMARK 927      BINDING AFFINITY PREDICTED BY RF-SCORE:    0.00 PKD
ROOT
HETATM    1  C   UNL     1     -13.240  10.687  71.455  1.00  0.00    -0.323 C  
HETATM    2  O   UNL     1     -12.253   9.677  71.624  1.00  0.00    -0.360 OA 
ENDROOT
BRANCH   2   3
HETATM    3  C   UNL     1     -11.446   9.407  70.554  1.00  0.00    -0.262 A  
HETATM    4  C   UNL     1     -11.482  10.050  69.315  1.00  0.00    -0.111 A  
HETATM    5  C   UNL     1     -10.611   9.644  68.272  1.00  0.00    -0.268 A  
HETATM    6  C   UNL     1      -9.741   8.572  68.489  1.00  0.00    -0.163 A  
HETATM    7  N   UNL     1      -9.101   8.272  67.272  1.00  0.00    -0.136 N  
HETATM    8  C   UNL     1      -9.617   8.007  69.775  1.00  0.00    -0.171 A  
HETATM    9  C   UNL     1      -8.307   7.117  66.999  1.00  0.00    -0.118 C  
HETATM   10  C   UNL     1     -10.495   8.420  70.781  1.00  0.00    -0.230 A  
HETATM   11  C   UNL     1      -9.374   9.338  66.391  1.00  0.00    -0.192 A  
HETATM   12  O   UNL     1      -7.458   7.204  66.114  1.00  0.00    -0.076 OA 
HETATM   13  C   UNL     1     -10.333  10.163  66.974  1.00  0.00    -0.303 A  
HETATM   14  C   UNL     1      -8.758   9.509  65.040  1.00  0.00    -0.205 C  
BRANCH   9  15
HETATM   15  C   UNL     1      -8.392   5.801  67.693  1.00  0.00    -0.104 A  
HETATM   16  C   UNL     1      -7.500   5.426  68.706  1.00  0.00    -0.075 A  
HETATM   17  C   UNL     1      -8.559   3.254  68.840  1.00  0.00    -0.080 A  
HETATM   18 CL   UNL     1      -8.594   1.655  69.470  1.00  0.00    -0.083 Cl 
HETATM   19  C   UNL     1      -7.564   4.142  69.254  1.00  0.00    -0.054 A  
HETATM   20  C   UNL     1      -9.516   3.654  67.912  1.00  0.00    -0.224 A  
HETATM   21  C   UNL     1      -9.434   4.927  67.340  1.00  0.00    -0.156 A  
ENDBRANCH   9  15
BRANCH  13  22
HETATM   22  C   UNL     1     -10.877  11.434  66.387  1.00  0.00    -0.323 C  
BRANCH  22  23
HETATM   23  C   UNL     1     -10.148  12.691  66.791  1.00  0.00    -0.237 C  
HETATM   24  O   UNL     1      -8.925  12.819  66.786  1.00  0.00    -0.218 OA 
BRANCH  23  25
HETATM   25  O   UNL     1     -10.999  13.702  67.107  1.00  0.00    -0.282 OA 
BRANCH  25  26
HETATM   26  C   UNL     1     -11.287  14.594  66.032  1.00  0.00    -0.344 C  
HETATM   27  C   UNL     1     -12.315  14.087  65.024  1.00  0.00    -0.441 C  
HETATM   28  O   UNL     1     -13.600  14.216  65.433  1.00  0.00    -0.568 OA 
HETATM   29  O   UNL     1     -12.022  13.609  63.936  1.00  0.00    -0.445 OA 
ENDBRANCH  25  26
ENDBRANCH  23  25
ENDBRANCH  22  23
ENDBRANCH  13  22
ENDBRANCH   2   3
TORSDOF 6
ENDMDL
MODEL      113
REMARK 921   NORMALIZED FREE ENERGY PREDICTED BY IDOCK:   -4.69 KCAL/MOL
REMARK 922        TOTAL FREE ENERGY PREDICTED BY IDOCK:   -7.49 KCAL/MOL
REMARK 923 INTER-LIGAND FREE ENERGY PREDICTED BY IDOCK:   -6.27 KCAL/MOL
REMARK 924 INTRA-LIGAND FREE ENERGY PREDICTED BY IDOCK:   -1.22 KCAL/MOL
REMARK 927      BINDING AFFINITY PREDICTED BY RF-SCORE:    0.00 PKD
ROOT
HETATM    1  C   UNL     1     -12.784  14.030  65.285  1.00  0.00    -0.439 C  
HETATM    2  O   UNL     1     -12.604  12.660  65.621  1.00  0.00    -0.611 OA 
ENDROOT
BRANCH   2   3
HETATM    3  C   UNL     1     -11.497  12.337  66.356  1.00  0.00    -0.378 A  
HETATM    4  C   UNL     1     -11.404  11.304  67.291  1.00  0.00    -0.329 A  
HETATM    5  C   UNL     1     -10.202  11.101  68.016  1.00  0.00    -0.201 A  
HETATM    6  C   UNL     1      -9.125  11.968  67.808  1.00  0.00    -0.187 A  
HETATM    7  N   UNL     1      -8.121  11.653  68.742  1.00  0.00    -0.115 N  
HETATM    8  C   UNL     1      -9.176  12.929  66.777  1.00  0.00    -0.230 A  
HETATM    9  C   UNL     1      -6.955  12.430  69.019  1.00  0.00    -0.071 C  
HETATM   10  C   UNL     1     -10.377  13.114  66.085  1.00  0.00    -0.287 A  
HETATM   11  C   UNL     1      -8.475  10.421  69.326  1.00  0.00    -0.154 A  
HETATM   12  O   UNL     1      -5.974  11.844  69.475  1.00  0.00    -0.077 OA 
HETATM   13  C   UNL     1      -9.767  10.093  68.925  1.00  0.00    -0.189 A  
HETATM   14  C   UNL     1      -7.608   9.636  70.256  1.00  0.00    -0.175 C  
BRANCH   9  15
HETATM   15  C   UNL     1      -6.795  13.896  68.801  1.00  0.00    -0.105 A  
HETATM   16  C   UNL     1      -7.477  14.848  69.568  1.00  0.00    -0.162 A  
HETATM   17  C   UNL     1      -6.524  16.620  68.222  1.00  0.00    -0.133 A  
HETATM   18 CL   UNL     1      -6.439  18.284  67.801  1.00  0.00    -0.191 Cl 
HETATM   19  C   UNL     1      -7.366  16.207  69.256  1.00  0.00    -0.231 A  
HETATM   20  C   UNL     1      -5.759  15.689  67.524  1.00  0.00    -0.083 A  
HETATM   21  C   UNL     1      -5.893  14.328  67.814  1.00  0.00    -0.090 A  
ENDBRANCH   9  15
BRANCH  13  22
HETATM   22  C   UNL     1     -10.513   8.840  69.288  1.00  0.00    -0.228 C  
BRANCH  22  23
HETATM   23  C   UNL     1     -11.348   8.930  70.541  1.00  0.00    -0.234 C  
HETATM   24  O   UNL     1     -11.982   9.925  70.884  1.00  0.00    -0.300 OA 
BRANCH  23  25
HETATM   25  O   UNL     1     -11.373   7.758  71.228  1.00  0.00    -0.255 OA 
BRANCH  25  26
HETATM   26  C   UNL     1     -10.915   6.627  70.489  1.00  0.00    -0.286 C  
HETATM   27  C   UNL     1      -9.963   5.700  71.242  1.00  0.00    -0.195 C  
HETATM   28  O   UNL     1     -10.581   4.851  72.098  1.00  0.00    -0.208 OA 
HETATM   29  O   UNL     1      -8.749   5.706  71.093  1.00  0.00    -0.131 OA 
ENDBRANCH  25  26
ENDBRANCH  23  25
ENDBRANCH  22  23
ENDBRANCH  13  22
ENDBRANCH   2   3
TORSDOF 6
ENDMDL
MODEL      114
REMARK 921   NORMALIZED FREE ENERGY PREDICTED BY IDOCK:   -4.68 KCAL/MOL
REMARK 922        TOTAL FREE ENERGY PREDICTED BY IDOCK:   -7.48 KCAL/MOL
REMARK 923 INTER-LIGAND FREE ENERGY PREDICTED BY IDOCK:   -6.40 KCAL/MOL
REMARK 924 INTRA-LIGAND FREE ENERGY PREDICTED BY IDOCK:   -1.08 KCAL/MOL
REMARK 927      BINDING AFFINITY PREDICTED BY RF-SCORE:    0.00 PKD
ROOT
HETATM    1  C   UNL     1      -8.988   8.158  73.493  1.00  0.00    -0.225 C  
HETATM    2  O   UNL     1     -10.043   8.386  72.567  1.00  0.00    -0.295 OA 
ENDROOT
BRANCH   2   3
HETATM    3  C   UNL     1      -9.696   8.555  71.255  1.00  0.00    -0.208 A  
HETATM    4  C   UNL     1      -9.937   9.693  70.482  1.00  0.00    -0.318 A  
HETATM    5  C   UNL     1      -9.558   9.723  69.116  1.00  0.00    -0.192 A  
HETATM    6  C   UNL     1      -8.973   8.590  68.544  1.00  0.00    -0.139 A  
HETATM    7  N   UNL     1      -8.831   8.817  67.163  1.00  0.00    -0.126 N  
HETATM    8  C   UNL     1      -8.616   7.491  69.353  1.00  0.00    -0.133 A  
HETATM    9  C   UNL     1      -8.484   7.841  66.180  1.00  0.00    -0.138 C  
HETATM   10  C   UNL     1      -9.010   7.485  70.695  1.00  0.00    -0.154 A  
HETATM   11  C   UNL     1      -9.072  10.188  66.945  1.00  0.00    -0.142 A  
HETATM   12  O   UNL     1      -7.950   8.237  65.145  1.00  0.00    -0.112 OA 
HETATM   13  C   UNL     1      -9.562  10.747  68.122  1.00  0.00    -0.167 A  
HETATM   14  C   UNL     1      -8.872  10.894  65.643  1.00  0.00    -0.201 C  
BRANCH   9  15
HETATM   15  C   UNL     1      -8.692   6.368  66.282  1.00  0.00    -0.146 A  
HETATM   16  C   UNL     1      -9.966   5.794  66.370  1.00  0.00    -0.173 A  
HETATM   17  C   UNL     1      -8.968   3.603  66.602  1.00  0.00    -0.141 A  
HETATM   18 CL   UNL     1      -9.134   1.919  66.904  1.00  0.00    -0.123 Cl 
HETATM   19  C   UNL     1     -10.101   4.416  66.563  1.00  0.00    -0.217 A  
HETATM   20  C   UNL     1      -7.702   4.150  66.409  1.00  0.00    -0.090 A  
HETATM   21  C   UNL     1      -7.565   5.531  66.247  1.00  0.00    -0.091 A  
ENDBRANCH   9  15
BRANCH  13  22
HETATM   22  C   UNL     1      -9.909  12.193  68.336  1.00  0.00    -0.200 C  
BRANCH  22  23
HETATM   23  C   UNL     1     -11.385  12.491  68.430  1.00  0.00    -0.291 C  
HETATM   24  O   UNL     1     -12.222  12.128  67.607  1.00  0.00    -0.462 OA 
BRANCH  23  25
HETATM   25  O   UNL     1     -11.703  13.162  69.568  1.00  0.00    -0.296 OA 
BRANCH  25  26
HETATM   26  C   UNL     1     -11.976  14.550  69.382  1.00  0.00    -0.322 C  
HETATM   27  C   UNL     1     -12.471  15.287  70.623  1.00  0.00    -0.406 C  
HETATM   28  O   UNL     1     -11.487  15.630  71.491  1.00  0.00    -0.368 OA 
HETATM   29  O   UNL     1     -13.645  15.559  70.831  1.00  0.00    -0.520 OA 
ENDBRANCH  25  26
ENDBRANCH  23  25
ENDBRANCH  22  23
ENDBRANCH  13  22
ENDBRANCH   2   3
TORSDOF 6
ENDMDL
MODEL      115
REMARK 921   NORMALIZED FREE ENERGY PREDICTED BY IDOCK:   -4.68 KCAL/MOL
REMARK 922        TOTAL FREE ENERGY PREDICTED BY IDOCK:   -7.47 KCAL/MOL
REMARK 923 INTER-LIGAND FREE ENERGY PREDICTED BY IDOCK:   -6.27 KCAL/MOL
REMARK 924 INTRA-LIGAND FREE ENERGY PREDICTED BY IDOCK:   -1.20 KCAL/MOL
REMARK 927      BINDING AFFINITY PREDICTED BY RF-SCORE:    0.00 PKD
ROOT
HETATM    1  C   UNL     1     -12.255  14.576  65.133  1.00  0.00    -0.346 C  
HETATM    2  O   UNL     1     -11.464  13.395  65.100  1.00  0.00    -0.290 OA 
ENDROOT
BRANCH   2   3
HETATM    3  C   UNL     1     -10.454  13.294  66.017  1.00  0.00    -0.286 A  
HETATM    4  C   UNL     1      -9.364  14.158  66.136  1.00  0.00    -0.166 A  
HETATM    5  C   UNL     1      -8.362  13.916  67.110  1.00  0.00    -0.171 A  
HETATM    6  C   UNL     1      -8.461  12.783  67.923  1.00  0.00    -0.173 A  
HETATM    7  N   UNL     1      -7.285  12.689  68.689  1.00  0.00    -0.109 N  
HETATM    8  C   UNL     1      -9.621  11.983  67.888  1.00  0.00    -0.196 A  
HETATM    9  C   UNL     1      -6.882  11.570  69.481  1.00  0.00    -0.075 C  
HETATM   10  C   UNL     1     -10.589  12.239  66.911  1.00  0.00    -0.249 A  
HETATM   11  C   UNL     1      -6.599  13.911  68.543  1.00  0.00    -0.098 A  
HETATM   12  O   UNL     1      -6.125  11.782  70.427  1.00  0.00    -0.195 OA 
HETATM   13  C   UNL     1      -7.223  14.655  67.546  1.00  0.00    -0.216 A  
HETATM   14  C   UNL     1      -5.379  14.304  69.312  1.00  0.00    -0.081 C  
BRANCH   9  15
HETATM   15  C   UNL     1      -7.299  10.152  69.286  1.00  0.00    -0.098 A  
HETATM   16  C   UNL     1      -6.857   9.381  68.204  1.00  0.00    -0.064 A  
HETATM   17  C   UNL     1      -8.245   7.542  68.943  1.00  0.00    -0.128 A  
HETATM   18 CL   UNL     1      -8.906   5.978  68.674  1.00  0.00    -0.110 Cl 
HETATM   19  C   UNL     1      -7.356   8.089  68.016  1.00  0.00    -0.096 A  
HETATM   20  C   UNL     1      -8.607   8.261  70.079  1.00  0.00    -0.128 A  
HETATM   21  C   UNL     1      -8.133   9.564  70.251  1.00  0.00    -0.200 A  
ENDBRANCH   9  15
BRANCH  13  22
HETATM   22  C   UNL     1      -6.836  16.038  67.102  1.00  0.00    -0.223 C  
BRANCH  22  23
HETATM   23  C   UNL     1      -7.615  17.159  67.743  1.00  0.00    -0.176 C  
HETATM   24  O   UNL     1      -7.639  17.389  68.950  1.00  0.00    -0.258 OA 
BRANCH  23  25
HETATM   25  O   UNL     1      -8.248  17.937  66.825  1.00  0.00    -0.232 OA 
BRANCH  25  26
HETATM   26  C   UNL     1      -9.634  18.151  67.084  1.00  0.00    -0.277 C  
HETATM   27  C   UNL     1     -10.451  18.637  65.889  1.00  0.00    -0.356 C  
HETATM   28  O   UNL     1     -10.798  17.655  65.022  1.00  0.00    -0.758 OA 
HETATM   29  O   UNL     1     -10.778  19.803  65.718  1.00  0.00    -0.512 OA 
ENDBRANCH  25  26
ENDBRANCH  23  25
ENDBRANCH  22  23
ENDBRANCH  13  22
ENDBRANCH   2   3
TORSDOF 6
ENDMDL
MODEL      116
REMARK 921   NORMALIZED FREE ENERGY PREDICTED BY IDOCK:   -4.68 KCAL/MOL
REMARK 922        TOTAL FREE ENERGY PREDICTED BY IDOCK:   -7.47 KCAL/MOL
REMARK 923 INTER-LIGAND FREE ENERGY PREDICTED BY IDOCK:   -6.12 KCAL/MOL
REMARK 924 INTRA-LIGAND FREE ENERGY PREDICTED BY IDOCK:   -1.35 KCAL/MOL
REMARK 927      BINDING AFFINITY PREDICTED BY RF-SCORE:    0.00 PKD
ROOT
HETATM    1  C   UNL     1      -9.816   3.722  65.243  1.00  0.00    -0.146 C  
HETATM    2  O   UNL     1     -10.832   4.495  65.868  1.00  0.00    -0.208 OA 
ENDROOT
BRANCH   2   3
HETATM    3  C   UNL     1     -10.427   5.518  66.681  1.00  0.00    -0.294 A  
HETATM    4  C   UNL     1     -10.395   5.494  68.077  1.00  0.00    -0.237 A  
HETATM    5  C   UNL     1      -9.988   6.642  68.803  1.00  0.00    -0.150 A  
HETATM    6  C   UNL     1      -9.654   7.807  68.106  1.00  0.00    -0.151 A  
HETATM    7  N   UNL     1      -9.435   8.832  69.044  1.00  0.00    -0.159 N  
HETATM    8  C   UNL     1      -9.566   7.792  66.699  1.00  0.00    -0.286 A  
HETATM    9  C   UNL     1      -9.290  10.223  68.754  1.00  0.00    -0.166 C  
HETATM   10  C   UNL     1      -9.982   6.649  66.009  1.00  0.00     0.281 A  
HETATM   11  C   UNL     1      -9.364   8.222  70.312  1.00  0.00    -0.159 A  
HETATM   12  O   UNL     1      -8.659  10.912  69.555  1.00  0.00     0.014 OA 
HETATM   13  C   UNL     1      -9.744   6.889  70.186  1.00  0.00    -0.175 A  
HETATM   14  C   UNL     1      -8.983   8.921  71.578  1.00  0.00    -0.275 C  
BRANCH   9  15
HETATM   15  C   UNL     1      -9.820  10.938  67.558  1.00  0.00    -0.192 A  
HETATM   16  C   UNL     1     -11.187  11.175  67.369  1.00  0.00    -0.363 A  
HETATM   17  C   UNL     1     -10.720  12.173  65.214  1.00  0.00    -0.288 A  
HETATM   18 CL   UNL     1     -11.281  12.835  63.731  1.00  0.00    -0.480 Cl 
HETATM   19  C   UNL     1     -11.637  11.762  66.183  1.00  0.00    -0.215 A  
HETATM   20  C   UNL     1      -9.352  12.039  65.440  1.00  0.00     0.004 A  
HETATM   21  C   UNL     1      -8.903  11.424  66.611  1.00  0.00    -0.183 A  
ENDBRANCH   9  15
BRANCH  13  22
HETATM   22  C   UNL     1      -9.769   5.869  71.290  1.00  0.00    -0.206 C  
BRANCH  22  23
HETATM   23  C   UNL     1     -11.037   5.838  72.106  1.00  0.00    -0.271 C  
HETATM   24  O   UNL     1     -11.157   5.258  73.183  1.00  0.00    -0.282 OA 
BRANCH  23  25
HETATM   25  O   UNL     1     -12.029   6.579  71.546  1.00  0.00    -0.326 OA 
BRANCH  25  26
HETATM   26  C   UNL     1     -12.379   7.752  72.279  1.00  0.00    -0.221 C  
HETATM   27  C   UNL     1     -13.041   8.857  71.460  1.00  0.00    -0.329 C  
HETATM   28  O   UNL     1     -14.359   8.652  71.220  1.00  0.00    -0.340 OA 
HETATM   29  O   UNL     1     -12.452   9.849  71.054  1.00  0.00    -0.315 OA 
ENDBRANCH  25  26
ENDBRANCH  23  25
ENDBRANCH  22  23
ENDBRANCH  13  22
ENDBRANCH   2   3
TORSDOF 6
ENDMDL
MODEL      117
REMARK 921   NORMALIZED FREE ENERGY PREDICTED BY IDOCK:   -4.61 KCAL/MOL
REMARK 922        TOTAL FREE ENERGY PREDICTED BY IDOCK:   -7.38 KCAL/MOL
REMARK 923 INTER-LIGAND FREE ENERGY PREDICTED BY IDOCK:   -5.71 KCAL/MOL
REMARK 924 INTRA-LIGAND FREE ENERGY PREDICTED BY IDOCK:   -1.67 KCAL/MOL
REMARK 927      BINDING AFFINITY PREDICTED BY RF-SCORE:    0.00 PKD
ROOT
HETATM    1  C   UNL     1      -5.855  15.826  68.381  1.00  0.00    -0.109 C  
HETATM    2  O   UNL     1      -7.131  15.357  68.796  1.00  0.00    -0.115 OA 
ENDROOT
BRANCH   2   3
HETATM    3  C   UNL     1      -7.522  14.127  68.342  1.00  0.00    -0.124 A  
HETATM    4  C   UNL     1      -8.312  13.881  67.217  1.00  0.00    -0.199 A  
HETATM    5  C   UNL     1      -8.679  12.554  66.877  1.00  0.00    -0.182 A  
HETATM    6  C   UNL     1      -8.270  11.501  67.701  1.00  0.00    -0.131 A  
HETATM    7  N   UNL     1      -8.880  10.320  67.240  1.00  0.00    -0.132 N  
HETATM    8  C   UNL     1      -7.371  11.737  68.761  1.00  0.00    -0.114 A  
HETATM    9  C   UNL     1      -8.907   9.064  67.920  1.00  0.00    -0.129 C  
HETATM   10  C   UNL     1      -7.034  13.056  69.079  1.00  0.00    -0.056 A  
HETATM   11  C   UNL     1      -9.432  10.609  65.976  1.00  0.00    -0.193 A  
HETATM   12  O   UNL     1      -9.041   8.048  67.239  1.00  0.00    -0.131 OA 
HETATM   13  C   UNL     1      -9.356  11.982  65.760  1.00  0.00    -0.133 A  
HETATM   14  C   UNL     1     -10.036   9.597  65.056  1.00  0.00    -0.002 C  
BRANCH   9  15
HETATM   15  C   UNL     1      -8.777   8.851  69.390  1.00  0.00    -0.142 A  
HETATM   16  C   UNL     1      -7.615   8.330  69.973  1.00  0.00    -0.072 A  
HETATM   17  C   UNL     1      -8.684   8.367  72.144  1.00  0.00    -0.205 A  
HETATM   18 CL   UNL     1      -8.664   7.973  73.816  1.00  0.00    -0.333 Cl 
HETATM   19  C   UNL     1      -7.583   8.058  71.344  1.00  0.00    -0.081 A  
HETATM   20  C   UNL     1      -9.803   8.984  71.591  1.00  0.00    -0.366 A  
HETATM   21  C   UNL     1      -9.849   9.227  70.215  1.00  0.00    -0.265 A  
ENDBRANCH   9  15
BRANCH  13  22
HETATM   22  C   UNL     1      -9.796  12.706  64.520  1.00  0.00    -0.068 C  
BRANCH  22  23
HETATM   23  C   UNL     1     -11.245  13.124  64.500  1.00  0.00    -0.354 C  
HETATM   24  O   UNL     1     -12.117  12.581  63.825  1.00  0.00    -0.442 OA 
BRANCH  23  25
HETATM   25  O   UNL     1     -11.500  14.140  65.366  1.00  0.00    -0.311 OA 
BRANCH  25  26
HETATM   26  C   UNL     1     -12.566  13.887  66.280  1.00  0.00    -0.330 C  
HETATM   27  C   UNL     1     -12.138  13.373  67.652  1.00  0.00    -0.269 C  
HETATM   28  O   UNL     1     -11.691  14.339  68.490  1.00  0.00    -0.304 OA 
HETATM   29  O   UNL     1     -12.192  12.197  67.984  1.00  0.00    -0.419 OA 
ENDBRANCH  25  26
ENDBRANCH  23  25
ENDBRANCH  22  23
ENDBRANCH  13  22
ENDBRANCH   2   3
TORSDOF 6
ENDMDL
MODEL      118
REMARK 921   NORMALIZED FREE ENERGY PREDICTED BY IDOCK:   -4.59 KCAL/MOL
REMARK 922        TOTAL FREE ENERGY PREDICTED BY IDOCK:   -7.35 KCAL/MOL
REMARK 923 INTER-LIGAND FREE ENERGY PREDICTED BY IDOCK:   -6.31 KCAL/MOL
REMARK 924 INTRA-LIGAND FREE ENERGY PREDICTED BY IDOCK:   -1.04 KCAL/MOL
REMARK 927      BINDING AFFINITY PREDICTED BY RF-SCORE:    0.00 PKD
ROOT
HETATM    1  C   UNL     1      -5.248  11.308  71.199  1.00  0.00    -0.096 C  
HETATM    2  O   UNL     1      -5.774  10.123  71.782  1.00  0.00    -0.281 OA 
ENDROOT
BRANCH   2   3
HETATM    3  C   UNL     1      -6.650   9.391  71.028  1.00  0.00    -0.081 A  
HETATM    4  C   UNL     1      -7.423   9.872  69.969  1.00  0.00    -0.173 A  
HETATM    5  C   UNL     1      -8.324   9.012  69.293  1.00  0.00    -0.122 A  
HETATM    6  C   UNL     1      -8.454   7.687  69.721  1.00  0.00    -0.134 A  
HETATM    7  N   UNL     1      -9.504   7.093  68.997  1.00  0.00    -0.144 N  
HETATM    8  C   UNL     1      -7.586   7.171  70.704  1.00  0.00    -0.092 A  
HETATM    9  C   UNL     1     -10.109   5.829  69.274  1.00  0.00    -0.205 C  
HETATM   10  C   UNL     1      -6.713   8.044  71.361  1.00  0.00    -0.048 A  
HETATM   11  C   UNL     1      -9.823   7.969  67.940  1.00  0.00    -0.167 A  
HETATM   12  O   UNL     1     -10.651   5.238  68.342  1.00  0.00    -0.124 OA 
HETATM   13  C   UNL     1      -9.140   9.167  68.134  1.00  0.00    -0.134 A  
HETATM   14  C   UNL     1     -10.774   7.658  66.830  1.00  0.00    -0.271 C  
BRANCH   9  15
HETATM   15  C   UNL     1     -10.144   5.135  70.593  1.00  0.00    -0.309 A  
HETATM   16  C   UNL     1      -9.531   3.894  70.805  1.00  0.00    -0.233 A  
HETATM   17  C   UNL     1     -10.380   3.857  73.071  1.00  0.00    -0.166 A  
HETATM   18 CL   UNL     1     -10.614   3.026  74.557  1.00  0.00    -0.211 Cl 
HETATM   19  C   UNL     1      -9.679   3.242  72.033  1.00  0.00    -0.235 A  
HETATM   20  C   UNL     1     -10.901   5.138  72.905  1.00  0.00    -0.324 A  
HETATM   21  C   UNL     1     -10.782   5.777  71.668  1.00  0.00    -0.314 A  
ENDBRANCH   9  15
BRANCH  13  22
HETATM   22  C   UNL     1      -9.166  10.356  67.216  1.00  0.00    -0.157 C  
BRANCH  22  23
HETATM   23  C   UNL     1     -10.205  11.399  67.546  1.00  0.00    -0.185 C  
HETATM   24  O   UNL     1     -10.198  12.091  68.561  1.00  0.00    -0.215 OA 
BRANCH  23  25
HETATM   25  O   UNL     1     -11.128  11.537  66.558  1.00  0.00    -0.293 OA 
BRANCH  25  26
HETATM   26  C   UNL     1     -10.637  12.151  65.368  1.00  0.00    -0.272 C  
HETATM   27  C   UNL     1     -11.699  12.487  64.324  1.00  0.00    -0.382 C  
HETATM   28  O   UNL     1     -12.391  13.622  64.586  1.00  0.00    -0.466 OA 
HETATM   29  O   UNL     1     -11.915  11.807  63.331  1.00  0.00    -0.474 OA 
ENDBRANCH  25  26
ENDBRANCH  23  25
ENDBRANCH  22  23
ENDBRANCH  13  22
ENDBRANCH   2   3
TORSDOF 6
ENDMDL
MODEL      119
REMARK 921   NORMALIZED FREE ENERGY PREDICTED BY IDOCK:   -4.54 KCAL/MOL
REMARK 922        TOTAL FREE ENERGY PREDICTED BY IDOCK:   -7.29 KCAL/MOL
REMARK 923 INTER-LIGAND FREE ENERGY PREDICTED BY IDOCK:   -6.17 KCAL/MOL
REMARK 924 INTRA-LIGAND FREE ENERGY PREDICTED BY IDOCK:   -1.13 KCAL/MOL
REMARK 927      BINDING AFFINITY PREDICTED BY RF-SCORE:    0.00 PKD
ROOT
HETATM    1  C   UNL     1      -5.204  17.431  68.082  1.00  0.00    -0.129 C  
HETATM    2  O   UNL     1      -5.180  16.087  68.548  1.00  0.00    -0.093 OA 
ENDROOT
BRANCH   2   3
HETATM    3  C   UNL     1      -6.355  15.389  68.499  1.00  0.00    -0.097 A  
HETATM    4  C   UNL     1      -7.614  15.875  68.856  1.00  0.00    -0.190 A  
HETATM    5  C   UNL     1      -8.751  15.030  68.795  1.00  0.00    -0.186 A  
HETATM    6  C   UNL     1      -8.590  13.696  68.408  1.00  0.00    -0.151 A  
HETATM    7  N   UNL     1      -9.823  13.039  68.573  1.00  0.00    -0.194 N  
HETATM    8  C   UNL     1      -7.344  13.242  67.930  1.00  0.00    -0.134 A  
HETATM    9  C   UNL     1     -10.042  11.629  68.504  1.00  0.00    -0.206 C  
HETATM   10  C   UNL     1      -6.238  14.094  68.010  1.00  0.00    -0.150 A  
HETATM   11  C   UNL     1     -10.794  14.035  68.792  1.00  0.00    -0.263 A  
HETATM   12  O   UNL     1     -11.169  11.240  68.200  1.00  0.00    -0.239 OA 
HETATM   13  C   UNL     1     -10.148  15.254  68.975  1.00  0.00    -0.239 A  
HETATM   14  C   UNL     1     -12.268  13.793  68.858  1.00  0.00    -0.235 C  
BRANCH   9  15
HETATM   15  C   UNL     1      -9.030  10.563  68.753  1.00  0.00    -0.166 A  
HETATM   16  C   UNL     1      -8.542  10.276  70.034  1.00  0.00     0.103 A  
HETATM   17  C   UNL     1      -7.036   8.630  69.095  1.00  0.00    -0.063 A  
HETATM   18 CL   UNL     1      -5.740   7.519  69.291  1.00  0.00    -0.025 Cl 
HETATM   19  C   UNL     1      -7.522   9.334  70.198  1.00  0.00    -0.098 A  
HETATM   20  C   UNL     1      -7.591   8.831  67.833  1.00  0.00    -0.097 A  
HETATM   21  C   UNL     1      -8.588   9.795  67.663  1.00  0.00    -0.125 A  
ENDBRANCH   9  15
BRANCH  13  22
HETATM   22  C   UNL     1     -10.814  16.583  69.196  1.00  0.00    -0.334 C  
BRANCH  22  23
HETATM   23  C   UNL     1     -10.418  17.669  68.228  1.00  0.00    -0.375 C  
HETATM   24  O   UNL     1      -9.572  18.531  68.457  1.00  0.00    -0.327 OA 
BRANCH  23  25
HETATM   25  O   UNL     1     -11.060  17.556  67.035  1.00  0.00    -0.012 OA 
BRANCH  25  26
HETATM   26  C   UNL     1     -10.241  17.100  65.961  1.00  0.00    -0.321 C  
HETATM   27  C   UNL     1     -10.899  16.090  65.025  1.00  0.00    -0.404 C  
HETATM   28  O   UNL     1     -11.732  16.645  64.111  1.00  0.00    -1.034 OA 
HETATM   29  O   UNL     1     -10.699  14.884  65.076  1.00  0.00    -0.380 OA 
ENDBRANCH  25  26
ENDBRANCH  23  25
ENDBRANCH  22  23
ENDBRANCH  13  22
ENDBRANCH   2   3
TORSDOF 6
ENDMDL
MODEL      120
REMARK 921   NORMALIZED FREE ENERGY PREDICTED BY IDOCK:   -4.48 KCAL/MOL
REMARK 922        TOTAL FREE ENERGY PREDICTED BY IDOCK:   -7.20 KCAL/MOL
REMARK 923 INTER-LIGAND FREE ENERGY PREDICTED BY IDOCK:   -5.95 KCAL/MOL
REMARK 924 INTRA-LIGAND FREE ENERGY PREDICTED BY IDOCK:   -1.26 KCAL/MOL
REMARK 927      BINDING AFFINITY PREDICTED BY RF-SCORE:    0.00 PKD
ROOT
HETATM    1  C   UNL     1      -9.349   3.573  66.656  1.00  0.00    -0.175 C  
HETATM    2  O   UNL     1     -10.086   4.518  67.422  1.00  0.00    -0.151 OA 
ENDROOT
BRANCH   2   3
HETATM    3  C   UNL     1      -9.521   5.750  67.605  1.00  0.00    -0.112 A  
HETATM    4  C   UNL     1      -8.941   6.220  68.785  1.00  0.00    -0.125 A  
HETATM    5  C   UNL     1      -8.424   7.538  68.852  1.00  0.00    -0.129 A  
HETATM    6  C   UNL     1      -8.533   8.372  67.735  1.00  0.00    -0.131 A  
HETATM    7  N   UNL     1      -8.090   9.656  68.100  1.00  0.00    -0.105 N  
HETATM    8  C   UNL     1      -9.003   7.858  66.509  1.00  0.00    -0.192 A  
HETATM    9  C   UNL     1      -8.239  10.850  67.331  1.00  0.00    -0.117 C  
HETATM   10  C   UNL     1      -9.516   6.557  66.475  1.00  0.00    -0.190 A  
HETATM   11  C   UNL     1      -7.453   9.531  69.351  1.00  0.00    -0.088 A  
HETATM   12  O   UNL     1      -7.432  11.758  67.523  1.00  0.00    -0.114 OA 
HETATM   13  C   UNL     1      -7.688   8.250  69.844  1.00  0.00    -0.097 A  
HETATM   14  C   UNL     1      -6.694  10.621  70.037  1.00  0.00    -0.156 C  
BRANCH   9  15
HETATM   15  C   UNL     1      -9.278  11.110  66.294  1.00  0.00    -0.211 A  
HETATM   16  C   UNL     1      -9.046  10.903  64.929  1.00  0.00    -0.201 A  
HETATM   17  C   UNL     1     -11.253  11.755  64.420  1.00  0.00    -0.316 A  
HETATM   18 CL   UNL     1     -12.424  12.249  63.263  1.00  0.00    -0.590 Cl 
HETATM   19  C   UNL     1     -10.021  11.257  63.992  1.00  0.00    -0.362 A  
HETATM   20  C   UNL     1     -11.533  11.864  65.780  1.00  0.00    -0.326 A  
HETATM   21  C   UNL     1     -10.547  11.541  66.716  1.00  0.00    -0.289 A  
ENDBRANCH   9  15
BRANCH  13  22
HETATM   22  C   UNL     1      -7.155   7.688  71.132  1.00  0.00    -0.054 C  
BRANCH  22  23
HETATM   23  C   UNL     1      -8.197   7.373  72.176  1.00  0.00    -0.098 C  
HETATM   24  O   UNL     1      -8.194   6.367  72.881  1.00  0.00    -0.113 OA 
BRANCH  23  25
HETATM   25  O   UNL     1      -9.120   8.364  72.298  1.00  0.00    -0.202 OA 
BRANCH  25  26
HETATM   26  C   UNL     1     -10.346   7.962  72.904  1.00  0.00    -0.347 C  
HETATM   27  C   UNL     1     -11.567   7.998  71.988  1.00  0.00    -0.316 C  
HETATM   28  O   UNL     1     -11.665   6.933  71.156  1.00  0.00    -0.298 OA 
HETATM   29  O   UNL     1     -12.396   8.897  71.995  1.00  0.00    -0.344 OA 
ENDBRANCH  25  26
ENDBRANCH  23  25
ENDBRANCH  22  23
ENDBRANCH  13  22
ENDBRANCH   2   3
TORSDOF 6
ENDMDL
MODEL      121
REMARK 921   NORMALIZED FREE ENERGY PREDICTED BY IDOCK:   -4.47 KCAL/MOL
REMARK 922        TOTAL FREE ENERGY PREDICTED BY IDOCK:   -7.20 KCAL/MOL
REMARK 923 INTER-LIGAND FREE ENERGY PREDICTED BY IDOCK:   -6.07 KCAL/MOL
REMARK 924 INTRA-LIGAND FREE ENERGY PREDICTED BY IDOCK:   -1.13 KCAL/MOL
REMARK 927      BINDING AFFINITY PREDICTED BY RF-SCORE:    0.00 PKD
ROOT
HETATM    1  C   UNL     1     -10.897   7.091  70.255  1.00  0.00    -0.254 C  
HETATM    2  O   UNL     1     -10.023   8.205  70.120  1.00  0.00    -0.184 OA 
ENDROOT
BRANCH   2   3
HETATM    3  C   UNL     1     -10.069   8.894  68.940  1.00  0.00    -0.197 A  
HETATM    4  C   UNL     1      -9.506   8.486  67.729  1.00  0.00    -0.168 A  
HETATM    5  C   UNL     1      -9.593   9.319  66.584  1.00  0.00    -0.263 A  
HETATM    6  C   UNL     1     -10.216  10.565  66.692  1.00  0.00    -0.233 A  
HETATM    7  N   UNL     1     -10.040  11.251  65.476  1.00  0.00    -0.244 N  
HETATM    8  C   UNL     1     -10.891  10.921  67.877  1.00  0.00    -0.295 A  
HETATM    9  C   UNL     1     -10.325  12.630  65.238  1.00  0.00    -0.289 C  
HETATM   10  C   UNL     1     -10.781  10.085  68.993  1.00  0.00    -0.244 A  
HETATM   11  C   UNL     1      -9.554  10.315  64.542  1.00  0.00    -0.316 A  
HETATM   12  O   UNL     1     -10.572  12.971  64.082  1.00  0.00    -0.402 OA 
HETATM   13  C   UNL     1      -9.234   9.139  65.215  1.00  0.00    -0.243 A  
HETATM   14  C   UNL     1      -9.379  10.577  63.081  1.00  0.00    -0.344 C  
BRANCH   9  15
HETATM   15  C   UNL     1     -10.367  13.715  66.260  1.00  0.00    -0.293 A  
HETATM   16  C   UNL     1      -9.207  14.277  66.807  1.00  0.00    -0.282 A  
HETATM   17  C   UNL     1     -10.558  15.655  68.267  1.00  0.00    -0.262 A  
HETATM   18 CL   UNL     1     -10.674  16.768  69.571  1.00  0.00    -0.324 Cl 
HETATM   19  C   UNL     1      -9.304  15.221  67.833  1.00  0.00    -0.189 A  
HETATM   20  C   UNL     1     -11.716  15.182  67.655  1.00  0.00    -0.233 A  
HETATM   21  C   UNL     1     -11.620  14.214  66.651  1.00  0.00    -0.399 A  
ENDBRANCH   9  15
BRANCH  13  22
HETATM   22  C   UNL     1      -8.722   7.874  64.588  1.00  0.00     0.240 C  
BRANCH  22  23
HETATM   23  C   UNL     1      -7.381   7.403  65.094  1.00  0.00    -0.077 C  
HETATM   24  O   UNL     1      -6.473   8.149  65.455  1.00  0.00    -0.048 OA 
BRANCH  23  25
HETATM   25  O   UNL     1      -7.304   6.048  65.165  1.00  0.00    -0.068 OA 
BRANCH  25  26
HETATM   26  C   UNL     1      -8.554   5.393  65.370  1.00  0.00    -0.150 C  
HETATM   27  C   UNL     1      -8.474   4.052  66.094  1.00  0.00    -0.109 C  
HETATM   28  O   UNL     1      -8.345   4.157  67.439  1.00  0.00    -0.098 OA 
HETATM   29  O   UNL     1      -8.526   2.969  65.527  1.00  0.00    -0.098 OA 
ENDBRANCH  25  26
ENDBRANCH  23  25
ENDBRANCH  22  23
ENDBRANCH  13  22
ENDBRANCH   2   3
TORSDOF 6
ENDMDL
MODEL      122
REMARK 921   NORMALIZED FREE ENERGY PREDICTED BY IDOCK:   -4.46 KCAL/MOL
REMARK 922        TOTAL FREE ENERGY PREDICTED BY IDOCK:   -7.17 KCAL/MOL
REMARK 923 INTER-LIGAND FREE ENERGY PREDICTED BY IDOCK:   -5.78 KCAL/MOL
REMARK 924 INTRA-LIGAND FREE ENERGY PREDICTED BY IDOCK:   -1.39 KCAL/MOL
REMARK 927      BINDING AFFINITY PREDICTED BY RF-SCORE:    0.00 PKD
ROOT
HETATM    1  C   UNL     1     -13.067   7.780  71.745  1.00  0.00    -0.322 C  
HETATM    2  O   UNL     1     -12.253   6.746  71.204  1.00  0.00    -0.368 OA 
ENDROOT
BRANCH   2   3
HETATM    3  C   UNL     1     -11.226   7.124  70.384  1.00  0.00    -0.287 A  
HETATM    4  C   UNL     1     -11.033   8.397  69.844  1.00  0.00    -0.166 A  
HETATM    5  C   UNL     1      -9.943   8.647  68.972  1.00  0.00    -0.197 A  
HETATM    6  C   UNL     1      -9.087   7.595  68.632  1.00  0.00    -0.135 A  
HETATM    7  N   UNL     1      -8.191   8.057  67.650  1.00  0.00    -0.123 N  
HETATM    8  C   UNL     1      -9.208   6.346  69.273  1.00  0.00    -0.135 A  
HETATM    9  C   UNL     1      -7.302   7.253  66.875  1.00  0.00    -0.092 C  
HETATM   10  C   UNL     1     -10.298   6.125  70.122  1.00  0.00    -0.269 A  
HETATM   11  C   UNL     1      -8.325   9.460  67.599  1.00  0.00    -0.119 A  
HETATM   12  O   UNL     1      -6.291   7.790  66.425  1.00  0.00    -0.044 OA 
HETATM   13  C   UNL     1      -9.423   9.830  68.370  1.00  0.00    -0.146 A  
HETATM   14  C   UNL     1      -7.447  10.373  66.806  1.00  0.00    -0.110 C  
BRANCH   9  15
HETATM   15  C   UNL     1      -7.466   5.805  66.558  1.00  0.00    -0.083 A  
HETATM   16  C   UNL     1      -6.571   4.830  67.013  1.00  0.00    -0.050 A  
HETATM   17  C   UNL     1      -7.794   3.133  65.796  1.00  0.00    -0.085 A  
HETATM   18 CL   UNL     1      -7.935   1.512  65.244  1.00  0.00    -0.071 Cl 
HETATM   19  C   UNL     1      -6.718   3.501  66.604  1.00  0.00    -0.049 A  
HETATM   20  C   UNL     1      -8.751   4.076  65.427  1.00  0.00    -0.120 A  
HETATM   21  C   UNL     1      -8.587   5.411  65.808  1.00  0.00    -0.139 A  
ENDBRANCH   9  15
BRANCH  13  22
HETATM   22  C   UNL     1      -9.893  11.235  68.618  1.00  0.00    -0.208 C  
BRANCH  22  23
HETATM   23  C   UNL     1     -11.117  11.650  67.839  1.00  0.00    -0.247 C  
HETATM   24  O   UNL     1     -12.266  11.315  68.118  1.00  0.00    -0.622 OA 
BRANCH  23  25
HETATM   25  O   UNL     1     -10.815  12.495  66.818  1.00  0.00    -0.240 OA 
BRANCH  25  26
HETATM   26  C   UNL     1     -11.469  12.194  65.587  1.00  0.00    -0.355 C  
HETATM   27  C   UNL     1     -10.572  11.610  64.500  1.00  0.00    -0.318 C  
HETATM   28  O   UNL     1     -10.314  10.288  64.648  1.00  0.00    -0.266 OA 
HETATM   29  O   UNL     1     -10.122  12.260  63.567  1.00  0.00    -0.416 OA 
ENDBRANCH  25  26
ENDBRANCH  23  25
ENDBRANCH  22  23
ENDBRANCH  13  22
ENDBRANCH   2   3
TORSDOF 6
ENDMDL
MODEL      123
REMARK 921   NORMALIZED FREE ENERGY PREDICTED BY IDOCK:   -4.46 KCAL/MOL
REMARK 922        TOTAL FREE ENERGY PREDICTED BY IDOCK:   -7.17 KCAL/MOL
REMARK 923 INTER-LIGAND FREE ENERGY PREDICTED BY IDOCK:   -5.98 KCAL/MOL
REMARK 924 INTRA-LIGAND FREE ENERGY PREDICTED BY IDOCK:   -1.20 KCAL/MOL
REMARK 927      BINDING AFFINITY PREDICTED BY RF-SCORE:    0.00 PKD
ROOT
HETATM    1  C   UNL     1      -7.314  14.140  67.944  1.00  0.00    -0.157 C  
HETATM    2  O   UNL     1      -7.035  13.096  68.869  1.00  0.00    -0.101 OA 
ENDROOT
BRANCH   2   3
HETATM    3  C   UNL     1      -7.312  11.818  68.469  1.00  0.00    -0.103 A  
HETATM    4  C   UNL     1      -7.580  11.406  67.162  1.00  0.00    -0.145 A  
HETATM    5  C   UNL     1      -7.892  10.050  66.889  1.00  0.00    -0.106 A  
HETATM    6  C   UNL     1      -7.962   9.139  67.948  1.00  0.00    -0.101 A  
HETATM    7  N   UNL     1      -8.430   7.913  67.442  1.00  0.00    -0.122 N  
HETATM    8  C   UNL     1      -7.570   9.528  69.245  1.00  0.00    -0.084 A  
HETATM    9  C   UNL     1      -8.853   6.789  68.215  1.00  0.00    -0.125 C  
HETATM   10  C   UNL     1      -7.276  10.874  69.487  1.00  0.00    -0.113 A  
HETATM   11  C   UNL     1      -8.377   8.000  66.036  1.00  0.00    -0.126 A  
HETATM   12  O   UNL     1      -8.784   5.677  67.693  1.00  0.00    -0.109 OA 
HETATM   13  C   UNL     1      -8.092   9.316  65.683  1.00  0.00    -0.112 A  
HETATM   14  C   UNL     1      -8.632   6.864  65.099  1.00  0.00     0.046 C  
BRANCH   9  15
HETATM   15  C   UNL     1      -9.368   6.820  69.614  1.00  0.00    -0.144 A  
HETATM   16  C   UNL     1     -10.639   7.308  69.936  1.00  0.00    -0.244 A  
HETATM   17  C   UNL     1     -10.184   6.955  72.287  1.00  0.00    -0.186 A  
HETATM   18 CL   UNL     1     -10.645   7.135  73.932  1.00  0.00    -0.330 Cl 
HETATM   19  C   UNL     1     -11.032   7.406  71.274  1.00  0.00    -0.263 A  
HETATM   20  C   UNL     1      -8.962   6.368  71.970  1.00  0.00    -0.137 A  
HETATM   21  C   UNL     1      -8.554   6.300  70.635  1.00  0.00    -0.139 A  
ENDBRANCH   9  15
BRANCH  13  22
HETATM   22  C   UNL     1      -7.906   9.834  64.285  1.00  0.00    -0.134 C  
BRANCH  22  23
HETATM   23  C   UNL     1      -9.181  10.095  63.522  1.00  0.00    -0.286 C  
HETATM   24  O   UNL     1      -9.401   9.700  62.379  1.00  0.00    -0.271 OA 
BRANCH  23  25
HETATM   25  O   UNL     1     -10.097  10.770  64.265  1.00  0.00    -0.318 OA 
BRANCH  25  26
HETATM   26  C   UNL     1     -10.614  11.946  63.645  1.00  0.00    -0.446 C  
HETATM   27  C   UNL     1     -12.066  12.275  63.983  1.00  0.00    -0.471 C  
HETATM   28  O   UNL     1     -12.230  12.876  65.186  1.00  0.00    -0.415 OA 
HETATM   29  O   UNL     1     -13.008  12.030  63.243  1.00  0.00    -0.736 OA 
ENDBRANCH  25  26
ENDBRANCH  23  25
ENDBRANCH  22  23
ENDBRANCH  13  22
ENDBRANCH   2   3
TORSDOF 6
ENDMDL
MODEL      124
REMARK 921   NORMALIZED FREE ENERGY PREDICTED BY IDOCK:   -4.42 KCAL/MOL
REMARK 922        TOTAL FREE ENERGY PREDICTED BY IDOCK:   -7.13 KCAL/MOL
REMARK 923 INTER-LIGAND FREE ENERGY PREDICTED BY IDOCK:   -5.57 KCAL/MOL
REMARK 924 INTRA-LIGAND FREE ENERGY PREDICTED BY IDOCK:   -1.55 KCAL/MOL
REMARK 927      BINDING AFFINITY PREDICTED BY RF-SCORE:    0.00 PKD
ROOT
HETATM    1  C   UNL     1      -5.143  13.636  70.433  1.00  0.00    -0.098 C  
HETATM    2  O   UNL     1      -6.340  14.160  69.871  1.00  0.00    -0.134 OA 
ENDROOT
BRANCH   2   3
HETATM    3  C   UNL     1      -7.076  13.324  69.078  1.00  0.00    -0.044 A  
HETATM    4  C   UNL     1      -8.011  13.715  68.118  1.00  0.00    -0.148 A  
HETATM    5  C   UNL     1      -8.738  12.741  67.388  1.00  0.00    -0.196 A  
HETATM    6  C   UNL     1      -8.532  11.386  67.666  1.00  0.00    -0.130 A  
HETATM    7  N   UNL     1      -9.467  10.639  66.927  1.00  0.00    -0.163 N  
HETATM    8  C   UNL     1      -7.502  10.990  68.543  1.00  0.00    -0.106 A  
HETATM    9  C   UNL     1      -9.747   9.247  67.084  1.00  0.00    -0.172 C  
HETATM   10  C   UNL     1      -6.807  11.973  69.256  1.00  0.00    -0.066 A  
HETATM   11  C   UNL     1     -10.051  11.518  65.993  1.00  0.00    -0.232 A  
HETATM   12  O   UNL     1     -10.204   8.643  66.115  1.00  0.00    -0.210 OA 
HETATM   13  C   UNL     1      -9.647  12.817  66.292  1.00  0.00    -0.242 A  
HETATM   14  C   UNL     1     -10.982  11.108  64.899  1.00  0.00    -0.191 C  
BRANCH   9  15
HETATM   15  C   UNL     1      -9.529   8.434  68.314  1.00  0.00    -0.147 A  
HETATM   16  C   UNL     1     -10.384   8.502  69.421  1.00  0.00    -0.218 A  
HETATM   17  C   UNL     1      -8.956   6.963  70.624  1.00  0.00    -0.151 A  
HETATM   18 CL   UNL     1      -8.548   6.142  72.078  1.00  0.00    -0.132 Cl 
HETATM   19  C   UNL     1     -10.078   7.792  70.586  1.00  0.00    -0.191 A  
HETATM   20  C   UNL     1      -8.160   6.805  69.493  1.00  0.00    -0.126 A  
HETATM   21  C   UNL     1      -8.447   7.539  68.339  1.00  0.00    -0.125 A  
ENDBRANCH   9  15
BRANCH  13  22
HETATM   22  C   UNL     1     -10.009  14.053  65.520  1.00  0.00    -0.302 C  
BRANCH  22  23
HETATM   23  C   UNL     1     -11.243  14.774  66.002  1.00  0.00    -0.341 C  
HETATM   24  O   UNL     1     -12.388  14.514  65.637  1.00  0.00    -0.340 OA 
BRANCH  23  25
HETATM   25  O   UNL     1     -10.957  15.714  66.941  1.00  0.00    -0.315 OA 
BRANCH  25  26
HETATM   26  C   UNL     1     -11.760  15.641  68.117  1.00  0.00    -0.199 C  
HETATM   27  C   UNL     1     -11.191  14.781  69.242  1.00  0.00    -0.283 C  
HETATM   28  O   UNL     1     -10.230  15.395  69.974  1.00  0.00    -0.296 OA 
HETATM   29  O   UNL     1     -11.561  13.640  69.479  1.00  0.00    -0.279 OA 
ENDBRANCH  25  26
ENDBRANCH  23  25
ENDBRANCH  22  23
ENDBRANCH  13  22
ENDBRANCH   2   3
TORSDOF 6
ENDMDL
MODEL      125
REMARK 921   NORMALIZED FREE ENERGY PREDICTED BY IDOCK:   -4.41 KCAL/MOL
REMARK 922        TOTAL FREE ENERGY PREDICTED BY IDOCK:   -7.12 KCAL/MOL
REMARK 923 INTER-LIGAND FREE ENERGY PREDICTED BY IDOCK:   -6.09 KCAL/MOL
REMARK 924 INTRA-LIGAND FREE ENERGY PREDICTED BY IDOCK:   -1.02 KCAL/MOL
REMARK 927      BINDING AFFINITY PREDICTED BY RF-SCORE:    0.00 PKD
ROOT
HETATM    1  C   UNL     1      -6.360   9.322  70.444  1.00  0.00    -0.060 C  
HETATM    2  O   UNL     1      -6.094   9.569  69.069  1.00  0.00    -0.042 OA 
ENDROOT
BRANCH   2   3
HETATM    3  C   UNL     1      -7.138  10.002  68.299  1.00  0.00    -0.072 A  
HETATM    4  C   UNL     1      -7.131  10.140  66.910  1.00  0.00    -0.091 A  
HETATM    5  C   UNL     1      -8.274  10.640  66.235  1.00  0.00    -0.153 A  
HETATM    6  C   UNL     1      -9.392  11.025  66.980  1.00  0.00    -0.172 A  
HETATM    7  N   UNL     1     -10.319  11.620  66.105  1.00  0.00    -0.233 N  
HETATM    8  C   UNL     1      -9.444  10.769  68.366  1.00  0.00    -0.174 A  
HETATM    9  C   UNL     1     -11.491  12.344  66.483  1.00  0.00    -0.371 C  
HETATM   10  C   UNL     1      -8.300  10.285  69.006  1.00  0.00    -0.148 A  
HETATM   11  C   UNL     1      -9.884  11.342  64.794  1.00  0.00    -0.259 A  
HETATM   12  O   UNL     1     -12.418  12.392  65.676  1.00  0.00    -0.640 OA 
HETATM   13  C   UNL     1      -8.611  10.782  64.857  1.00  0.00    -0.097 A  
HETATM   14  C   UNL     1     -10.658  11.649  63.553  1.00  0.00    -0.496 C  
BRANCH   9  15
HETATM   15  C   UNL     1     -11.717  13.047  67.778  1.00  0.00    -0.405 A  
HETATM   16  C   UNL     1     -11.611  14.437  67.906  1.00  0.00    -0.374 A  
HETATM   17  C   UNL     1     -12.032  14.255  70.282  1.00  0.00    -0.329 A  
HETATM   18 CL   UNL     1     -12.122  14.986  71.835  1.00  0.00    -0.408 Cl 
HETATM   19  C   UNL     1     -11.736  15.036  69.163  1.00  0.00    -0.345 A  
HETATM   20  C   UNL     1     -12.246  12.886  70.147  1.00  0.00    -0.336 A  
HETATM   21  C   UNL     1     -12.090  12.283  68.896  1.00  0.00    -0.177 A  
ENDBRANCH   9  15
BRANCH  13  22
HETATM   22  C   UNL     1      -7.799  10.302  63.687  1.00  0.00    -0.125 C  
BRANCH  22  23
HETATM   23  C   UNL     1      -7.926   8.832  63.377  1.00  0.00    -0.161 C  
HETATM   24  O   UNL     1      -8.777   8.349  62.634  1.00  0.00    -0.097 OA 
BRANCH  23  25
HETATM   25  O   UNL     1      -6.949   8.094  63.967  1.00  0.00    -0.069 OA 
BRANCH  25  26
HETATM   26  C   UNL     1      -7.357   6.793  64.383  1.00  0.00    -0.087 C  
HETATM   27  C   UNL     1      -8.049   6.733  65.743  1.00  0.00    -0.123 C  
HETATM   28  O   UNL     1      -9.353   7.098  65.715  1.00  0.00     0.030 OA 
HETATM   29  O   UNL     1      -7.493   6.382  66.774  1.00  0.00    -0.083 OA 
ENDBRANCH  25  26
ENDBRANCH  23  25
ENDBRANCH  22  23
ENDBRANCH  13  22
ENDBRANCH   2   3
TORSDOF 6
ENDMDL
MODEL      126
REMARK 921   NORMALIZED FREE ENERGY PREDICTED BY IDOCK:   -4.39 KCAL/MOL
REMARK 922        TOTAL FREE ENERGY PREDICTED BY IDOCK:   -7.08 KCAL/MOL
REMARK 923 INTER-LIGAND FREE ENERGY PREDICTED BY IDOCK:   -5.46 KCAL/MOL
REMARK 924 INTRA-LIGAND FREE ENERGY PREDICTED BY IDOCK:   -1.62 KCAL/MOL
REMARK 927      BINDING AFFINITY PREDICTED BY RF-SCORE:    0.00 PKD
ROOT
HETATM    1  C   UNL     1     -11.680  11.949  68.785  1.00  0.00    -0.321 C  
HETATM    2  O   UNL     1     -10.895  11.119  67.937  1.00  0.00    -0.203 OA 
ENDROOT
BRANCH   2   3
HETATM    3  C   UNL     1     -10.766   9.806  68.295  1.00  0.00    -0.233 A  
HETATM    4  C   UNL     1     -10.787   9.304  69.597  1.00  0.00    -0.228 A  
HETATM    5  C   UNL     1     -10.602   7.918  69.833  1.00  0.00    -0.242 A  
HETATM    6  C   UNL     1     -10.364   7.067  68.749  1.00  0.00    -0.187 A  
HETATM    7  N   UNL     1     -10.067   5.787  69.252  1.00  0.00    -0.187 N  
HETATM    8  C   UNL     1     -10.468   7.553  67.430  1.00  0.00    -0.367 A  
HETATM    9  C   UNL     1      -9.551   4.686  68.503  1.00  0.00    -0.158 C  
HETATM   10  C   UNL     1     -10.642   8.925  67.227  1.00  0.00    -0.304 A  
HETATM   11  C   UNL     1     -10.398   5.797  70.622  1.00  0.00    -0.245 A  
HETATM   12  O   UNL     1      -9.778   3.553  68.924  1.00  0.00    -0.125 OA 
HETATM   13  C   UNL     1     -10.684   7.105  71.002  1.00  0.00    -0.252 A  
HETATM   14  C   UNL     1     -10.391   4.595  71.511  1.00  0.00    -0.174 C  
BRANCH   9  15
HETATM   15  C   UNL     1      -8.765   4.766  67.239  1.00  0.00    -0.103 A  
HETATM   16  C   UNL     1      -7.455   5.257  67.199  1.00  0.00    -0.084 A  
HETATM   17  C   UNL     1      -7.426   4.996  64.793  1.00  0.00    -0.075 A  
HETATM   18 CL   UNL     1      -6.643   5.235  63.282  1.00  0.00    -0.026 Cl 
HETATM   19  C   UNL     1      -6.799   5.402  65.973  1.00  0.00    -0.058 A  
HETATM   20  C   UNL     1      -8.687   4.407  64.834  1.00  0.00    -0.135 A  
HETATM   21  C   UNL     1      -9.356   4.291  66.056  1.00  0.00    -0.163 A  
ENDBRANCH   9  15
BRANCH  13  22
HETATM   22  C   UNL     1     -11.122   7.552  72.368  1.00  0.00    -0.349 C  
BRANCH  22  23
HETATM   23  C   UNL     1     -10.031   7.602  73.408  1.00  0.00    -0.314 C  
HETATM   24  O   UNL     1      -9.958   6.850  74.377  1.00  0.00    -0.309 OA 
BRANCH  23  25
HETATM   25  O   UNL     1      -9.090   8.541  73.122  1.00  0.00    -0.257 OA 
BRANCH  25  26
HETATM   26  C   UNL     1      -7.744   8.076  73.204  1.00  0.00    -0.150 C  
HETATM   27  C   UNL     1      -7.300   7.164  72.064  1.00  0.00    -0.081 C  
HETATM   28  O   UNL     1      -6.970   7.821  70.927  1.00  0.00    -0.048 OA 
HETATM   29  O   UNL     1      -7.237   5.945  72.154  1.00  0.00    -0.085 OA 
ENDBRANCH  25  26
ENDBRANCH  23  25
ENDBRANCH  22  23
ENDBRANCH  13  22
ENDBRANCH   2   3
TORSDOF 6
ENDMDL
MODEL      127
REMARK 921   NORMALIZED FREE ENERGY PREDICTED BY IDOCK:   -4.38 KCAL/MOL
REMARK 922        TOTAL FREE ENERGY PREDICTED BY IDOCK:   -7.07 KCAL/MOL
REMARK 923 INTER-LIGAND FREE ENERGY PREDICTED BY IDOCK:   -5.83 KCAL/MOL
REMARK 924 INTRA-LIGAND FREE ENERGY PREDICTED BY IDOCK:   -1.24 KCAL/MOL
REMARK 927      BINDING AFFINITY PREDICTED BY RF-SCORE:    0.00 PKD
ROOT
HETATM    1  C   UNL     1     -12.529  15.112  63.857  1.00  0.00     0.313 C  
HETATM    2  O   UNL     1     -12.676  13.868  64.530  1.00  0.00    -0.649 OA 
ENDROOT
BRANCH   2   3
HETATM    3  C   UNL     1     -11.669  13.493  65.377  1.00  0.00    -0.332 A  
HETATM    4  C   UNL     1     -11.684  12.389  66.232  1.00  0.00    -0.457 A  
HETATM    5  C   UNL     1     -10.584  12.135  67.091  1.00  0.00    -0.254 A  
HETATM    6  C   UNL     1      -9.503  13.022  67.096  1.00  0.00    -0.230 A  
HETATM    7  N   UNL     1      -8.626  12.638  68.126  1.00  0.00    -0.184 N  
HETATM    8  C   UNL     1      -9.434  14.062  66.146  1.00  0.00    -0.210 A  
HETATM    9  C   UNL     1      -7.518  13.396  68.616  1.00  0.00    -0.104 C  
HETATM   10  C   UNL     1     -10.536  14.295  65.318  1.00  0.00    -0.396 A  
HETATM   11  C   UNL     1      -9.034  11.361  68.560  1.00  0.00    -0.158 A  
HETATM   12  O   UNL     1      -6.596  12.781  69.150  1.00  0.00    -0.099 OA 
HETATM   13  C   UNL     1     -10.257  11.059  67.967  1.00  0.00    -0.201 A  
HETATM   14  C   UNL     1      -8.284  10.508  69.532  1.00  0.00    -0.092 C  
BRANCH   9  15
HETATM   15  C   UNL     1      -7.354  14.875  68.537  1.00  0.00    -0.119 A  
HETATM   16  C   UNL     1      -8.119  15.758  69.308  1.00  0.00    -0.241 A  
HETATM   17  C   UNL     1      -7.057  17.639  68.215  1.00  0.00    -0.223 A  
HETATM   18 CL   UNL     1      -6.950  19.332  67.944  1.00  0.00    -0.258 Cl 
HETATM   19  C   UNL     1      -7.993  17.138  69.122  1.00  0.00    -0.041 A  
HETATM   20  C   UNL     1      -6.216  16.771  67.523  1.00  0.00    -0.188 A  
HETATM   21  C   UNL     1      -6.364  15.391  67.684  1.00  0.00    -0.177 A  
ENDBRANCH   9  15
BRANCH  13  22
HETATM   22  C   UNL     1     -11.024   9.778  68.129  1.00  0.00    -0.228 C  
BRANCH  22  23
HETATM   23  C   UNL     1     -10.534   8.625  67.288  1.00  0.00    -0.289 C  
HETATM   24  O   UNL     1     -10.879   7.456  67.442  1.00  0.00    -0.274 OA 
BRANCH  23  25
HETATM   25  O   UNL     1      -9.706   9.031  66.290  1.00  0.00    -0.235 OA 
BRANCH  25  26
HETATM   26  C   UNL     1      -8.452   8.353  66.246  1.00  0.00    -0.127 C  
HETATM   27  C   UNL     1      -8.209   7.516  64.993  1.00  0.00    -0.103 C  
HETATM   28  O   UNL     1      -7.820   8.237  63.914  1.00  0.00    -0.133 OA 
HETATM   29  O   UNL     1      -8.342   6.301  64.951  1.00  0.00    -0.137 OA 
ENDBRANCH  25  26
ENDBRANCH  23  25
ENDBRANCH  22  23
ENDBRANCH  13  22
ENDBRANCH   2   3
TORSDOF 6
ENDMDL
MODEL      128
REMARK 921   NORMALIZED FREE ENERGY PREDICTED BY IDOCK:   -4.38 KCAL/MOL
REMARK 922        TOTAL FREE ENERGY PREDICTED BY IDOCK:   -7.06 KCAL/MOL
REMARK 923 INTER-LIGAND FREE ENERGY PREDICTED BY IDOCK:   -6.16 KCAL/MOL
REMARK 924 INTRA-LIGAND FREE ENERGY PREDICTED BY IDOCK:   -0.91 KCAL/MOL
REMARK 927      BINDING AFFINITY PREDICTED BY RF-SCORE:    0.00 PKD
ROOT
HETATM    1  C   UNL     1      -9.122   7.909  73.363  1.00  0.00    -0.283 C  
HETATM    2  O   UNL     1     -10.244   8.550  72.768  1.00  0.00    -0.256 OA 
ENDROOT
BRANCH   2   3
HETATM    3  C   UNL     1     -10.164   8.835  71.433  1.00  0.00    -0.280 A  
HETATM    4  C   UNL     1     -10.891   9.818  70.758  1.00  0.00    -0.403 A  
HETATM    5  C   UNL     1     -10.742   9.984  69.358  1.00  0.00    -0.258 A  
HETATM    6  C   UNL     1      -9.885   9.130  68.657  1.00  0.00    -0.164 A  
HETATM    7  N   UNL     1     -10.026   9.397  67.283  1.00  0.00    -0.182 N  
HETATM    8  C   UNL     1      -9.060   8.224  69.354  1.00  0.00    -0.154 A  
HETATM    9  C   UNL     1      -9.503   8.608  66.213  1.00  0.00    -0.241 C  
HETATM   10  C   UNL     1      -9.235   8.075  70.734  1.00  0.00    -0.165 A  
HETATM   11  C   UNL     1     -10.757  10.597  67.170  1.00  0.00    -0.272 A  
HETATM   12  O   UNL     1      -9.291   9.170  65.140  1.00  0.00    -0.218 OA 
HETATM   13  C   UNL     1     -11.239  10.944  68.429  1.00  0.00    -0.347 A  
HETATM   14  C   UNL     1     -10.998  11.333  65.892  1.00  0.00    -0.221 C  
BRANCH   9  15
HETATM   15  C   UNL     1      -9.172   7.156  66.265  1.00  0.00    -0.169 A  
HETATM   16  C   UNL     1     -10.125   6.178  66.572  1.00  0.00    -0.179 A  
HETATM   17  C   UNL     1      -8.414   4.470  66.463  1.00  0.00    -0.109 A  
HETATM   18 CL   UNL     1      -7.929   2.836  66.687  1.00  0.00    -0.076 Cl 
HETATM   19  C   UNL     1      -9.738   4.841  66.703  1.00  0.00    -0.205 A  
HETATM   20  C   UNL     1      -7.482   5.419  66.051  1.00  0.00    -0.082 A  
HETATM   21  C   UNL     1      -7.860   6.760  65.951  1.00  0.00    -0.103 A  
ENDBRANCH   9  15
BRANCH  13  22
HETATM   22  C   UNL     1     -12.034  12.176  68.761  1.00  0.00    -0.292 C  
BRANCH  22  23
HETATM   23  C   UNL     1     -11.456  13.471  68.246  1.00  0.00    -0.310 C  
HETATM   24  O   UNL     1     -11.958  14.151  67.355  1.00  0.00    -0.395 OA 
BRANCH  23  25
HETATM   25  O   UNL     1     -10.338  13.841  68.924  1.00  0.00    -0.219 OA 
BRANCH  25  26
HETATM   26  C   UNL     1      -9.283  14.337  68.103  1.00  0.00    -0.202 C  
HETATM   27  C   UNL     1      -7.873  14.079  68.629  1.00  0.00    -0.130 C  
HETATM   28  O   UNL     1      -7.419  12.824  68.399  1.00  0.00    -0.112 OA 
HETATM   29  O   UNL     1      -7.197  14.922  69.204  1.00  0.00    -0.130 OA 
ENDBRANCH  25  26
ENDBRANCH  23  25
ENDBRANCH  22  23
ENDBRANCH  13  22
ENDBRANCH   2   3
TORSDOF 6
ENDMDL
MODEL      129
REMARK 921   NORMALIZED FREE ENERGY PREDICTED BY IDOCK:   -4.33 KCAL/MOL
REMARK 922        TOTAL FREE ENERGY PREDICTED BY IDOCK:   -7.01 KCAL/MOL
REMARK 923 INTER-LIGAND FREE ENERGY PREDICTED BY IDOCK:   -5.93 KCAL/MOL
REMARK 924 INTRA-LIGAND FREE ENERGY PREDICTED BY IDOCK:   -1.08 KCAL/MOL
REMARK 927      BINDING AFFINITY PREDICTED BY RF-SCORE:    0.00 PKD
ROOT
HETATM    1  C   UNL     1     -12.785  13.781  64.916  1.00  0.00    -0.271 C  
HETATM    2  O   UNL     1     -12.092  12.713  65.550  1.00  0.00    -0.436 OA 
ENDROOT
BRANCH   2   3
HETATM    3  C   UNL     1     -10.946  13.026  66.227  1.00  0.00    -0.284 A  
HETATM    4  C   UNL     1     -10.208  14.204  66.091  1.00  0.00    -0.313 A  
HETATM    5  C   UNL     1      -9.011  14.387  66.828  1.00  0.00    -0.256 A  
HETATM    6  C   UNL     1      -8.561  13.361  67.665  1.00  0.00    -0.193 A  
HETATM    7  N   UNL     1      -7.294  13.721  68.158  1.00  0.00    -0.108 N  
HETATM    8  C   UNL     1      -9.368  12.229  67.897  1.00  0.00    -0.190 A  
HETATM    9  C   UNL     1      -6.391  12.869  68.864  1.00  0.00    -0.090 C  
HETATM   10  C   UNL     1     -10.539  12.070  67.149  1.00  0.00    -0.255 A  
HETATM   11  C   UNL     1      -7.101  15.082  67.845  1.00  0.00    -0.151 A  
HETATM   12  O   UNL     1      -5.577  13.399  69.619  1.00  0.00    -0.088 OA 
HETATM   13  C   UNL     1      -8.123  15.491  66.993  1.00  0.00    -0.272 A  
HETATM   14  C   UNL     1      -5.956  15.915  68.323  1.00  0.00    -0.111 C  
BRANCH   9  15
HETATM   15  C   UNL     1      -6.338  11.381  68.791  1.00  0.00    -0.053 A  
HETATM   16  C   UNL     1      -5.882  10.701  67.656  1.00  0.00    -0.044 A  
HETATM   17  C   UNL     1      -6.403   8.585  68.709  1.00  0.00    -0.049 A  
HETATM   18 CL   UNL     1      -6.541   6.874  68.618  1.00  0.00    -0.052 Cl 
HETATM   19  C   UNL     1      -5.946   9.305  67.604  1.00  0.00    -0.053 A  
HETATM   20  C   UNL     1      -6.758   9.247  69.881  1.00  0.00    -0.050 A  
HETATM   21  C   UNL     1      -6.724  10.644  69.923  1.00  0.00    -0.147 A  
ENDBRANCH   9  15
BRANCH  13  22
HETATM   22  C   UNL     1      -8.318  16.879  66.451  1.00  0.00    -0.333 C  
BRANCH  22  23
HETATM   23  C   UNL     1      -8.773  17.904  67.459  1.00  0.00    -0.243 C  
HETATM   24  O   UNL     1      -9.730  17.759  68.216  1.00  0.00    -0.290 OA 
BRANCH  23  25
HETATM   25  O   UNL     1      -7.964  18.996  67.483  1.00  0.00    -0.249 OA 
BRANCH  25  26
HETATM   26  C   UNL     1      -8.112  19.870  66.366  1.00  0.00    -0.331 C  
HETATM   27  C   UNL     1      -6.839  20.118  65.561  1.00  0.00    -0.298 C  
HETATM   28  O   UNL     1      -6.527  19.121  64.699  1.00  0.00    -0.467 OA 
HETATM   29  O   UNL     1      -6.153  21.125  65.668  1.00  0.00    -0.251 OA 
ENDBRANCH  25  26
ENDBRANCH  23  25
ENDBRANCH  22  23
ENDBRANCH  13  22
ENDBRANCH   2   3
TORSDOF 6
ENDMDL
MODEL      130
REMARK 921   NORMALIZED FREE ENERGY PREDICTED BY IDOCK:   -4.32 KCAL/MOL
REMARK 922        TOTAL FREE ENERGY PREDICTED BY IDOCK:   -6.98 KCAL/MOL
REMARK 923 INTER-LIGAND FREE ENERGY PREDICTED BY IDOCK:   -5.68 KCAL/MOL
REMARK 924 INTRA-LIGAND FREE ENERGY PREDICTED BY IDOCK:   -1.30 KCAL/MOL
REMARK 927      BINDING AFFINITY PREDICTED BY RF-SCORE:    0.00 PKD
ROOT
HETATM    1  C   UNL     1      -9.704  10.639  63.075  1.00  0.00    -0.323 C  
HETATM    2  O   UNL     1     -10.485  10.873  64.240  1.00  0.00    -0.362 OA 
ENDROOT
BRANCH   2   3
HETATM    3  C   UNL     1      -9.837  10.838  65.444  1.00  0.00    -0.262 A  
HETATM    4  C   UNL     1      -8.831  11.712  65.861  1.00  0.00    -0.057 A  
HETATM    5  C   UNL     1      -8.213  11.541  67.125  1.00  0.00    -0.161 A  
HETATM    6  C   UNL     1      -8.597  10.466  67.933  1.00  0.00    -0.118 A  
HETATM    7  N   UNL     1      -7.743  10.428  69.049  1.00  0.00    -0.105 N  
HETATM    8  C   UNL     1      -9.696   9.662  67.567  1.00  0.00    -0.195 A  
HETATM    9  C   UNL     1      -7.647   9.368  70.002  1.00  0.00    -0.113 C  
HETATM   10  C   UNL     1     -10.281   9.848  66.311  1.00  0.00    -0.282 A  
HETATM   11  C   UNL     1      -7.024  11.640  69.059  1.00  0.00    -0.111 A  
HETATM   12  O   UNL     1      -7.241   9.647  71.129  1.00  0.00    -0.328 OA 
HETATM   13  C   UNL     1      -7.268  12.312  67.864  1.00  0.00    -0.106 A  
HETATM   14  C   UNL     1      -6.119  12.089  70.161  1.00  0.00    -0.131 C  
BRANCH   9  15
HETATM   15  C   UNL     1      -8.004   7.939  69.774  1.00  0.00    -0.114 A  
HETATM   16  C   UNL     1      -7.247   7.098  68.949  1.00  0.00    -0.090 A  
HETATM   17  C   UNL     1      -8.835   5.308  69.310  1.00  0.00    -0.100 A  
HETATM   18 CL   UNL     1      -9.401   3.727  68.942  1.00  0.00    -0.221 Cl 
HETATM   19  C   UNL     1      -7.682   5.794  68.692  1.00  0.00    -0.090 A  
HETATM   20  C   UNL     1      -9.535   6.101  70.216  1.00  0.00    -0.178 A  
HETATM   21  C   UNL     1      -9.119   7.415  70.448  1.00  0.00    -0.157 A  
ENDBRANCH   9  15
BRANCH  13  22
HETATM   22  C   UNL     1      -6.729  13.662  67.484  1.00  0.00    -0.139 C  
BRANCH  22  23
HETATM   23  C   UNL     1      -7.620  14.829  67.826  1.00  0.00    -0.160 C  
HETATM   24  O   UNL     1      -7.942  15.146  68.969  1.00  0.00    -0.159 OA 
BRANCH  23  25
HETATM   25  O   UNL     1      -7.985  15.539  66.726  1.00  0.00    -0.233 OA 
BRANCH  25  26
HETATM   26  C   UNL     1      -9.389  15.573  66.481  1.00  0.00    -0.283 C  
HETATM   27  C   UNL     1     -10.045  16.942  66.641  1.00  0.00    -0.304 C  
HETATM   28  O   UNL     1      -9.872  17.765  65.580  1.00  0.00    -0.439 OA 
HETATM   29  O   UNL     1     -10.679  17.280  67.631  1.00  0.00    -0.359 OA 
ENDBRANCH  25  26
ENDBRANCH  23  25
ENDBRANCH  22  23
ENDBRANCH  13  22
ENDBRANCH   2   3
TORSDOF 6
ENDMDL
MODEL      131
REMARK 921   NORMALIZED FREE ENERGY PREDICTED BY IDOCK:   -4.32 KCAL/MOL
REMARK 922        TOTAL FREE ENERGY PREDICTED BY IDOCK:   -6.98 KCAL/MOL
REMARK 923 INTER-LIGAND FREE ENERGY PREDICTED BY IDOCK:   -5.80 KCAL/MOL
REMARK 924 INTRA-LIGAND FREE ENERGY PREDICTED BY IDOCK:   -1.18 KCAL/MOL
REMARK 927      BINDING AFFINITY PREDICTED BY RF-SCORE:    0.00 PKD
ROOT
HETATM    1  C   UNL     1     -10.386   7.961  70.210  1.00  0.00    -0.212 C  
HETATM    2  O   UNL     1      -9.570   9.112  70.031  1.00  0.00    -0.174 OA 
ENDROOT
BRANCH   2   3
HETATM    3  C   UNL     1      -9.754   9.835  68.885  1.00  0.00    -0.171 A  
HETATM    4  C   UNL     1      -9.329   9.469  67.606  1.00  0.00    -0.141 A  
HETATM    5  C   UNL     1      -9.550  10.333  66.504  1.00  0.00    -0.228 A  
HETATM    6  C   UNL     1     -10.166  11.570  66.719  1.00  0.00    -0.219 A  
HETATM    7  N   UNL     1     -10.134  12.293  65.512  1.00  0.00    -0.255 N  
HETATM    8  C   UNL     1     -10.706  11.883  67.983  1.00  0.00    -0.242 A  
HETATM    9  C   UNL     1     -10.454  13.675  65.349  1.00  0.00    -0.324 C  
HETATM   10  C   UNL     1     -10.464  11.017  69.054  1.00  0.00    -0.242 A  
HETATM   11  C   UNL     1      -9.750  11.389  64.501  1.00  0.00    -0.233 A  
HETATM   12  O   UNL     1     -10.833  14.047  64.240  1.00  0.00    -0.313 OA 
HETATM   13  C   UNL     1      -9.347  10.198  65.099  1.00  0.00    -0.290 A  
HETATM   14  C   UNL     1      -9.743  11.696  63.039  1.00  0.00    -0.331 C  
BRANCH   9  15
HETATM   15  C   UNL     1     -10.388  14.729  66.402  1.00  0.00    -0.297 A  
HETATM   16  C   UNL     1     -11.496  15.084  67.180  1.00  0.00    -0.304 A  
HETATM   17  C   UNL     1     -10.190  16.811  68.259  1.00  0.00    -0.295 A  
HETATM   18 CL   UNL     1     -10.097  18.157  69.324  1.00  0.00    -0.212 Cl 
HETATM   19  C   UNL     1     -11.404  16.147  68.084  1.00  0.00    -0.270 A  
HETATM   20  C   UNL     1      -9.054  16.396  67.569  1.00  0.00    -0.196 A  
HETATM   21  C   UNL     1      -9.153  15.354  66.642  1.00  0.00    -0.310 A  
ENDBRANCH   9  15
BRANCH  13  22
HETATM   22  C   UNL     1      -8.900   8.957  64.380  1.00  0.00    -0.047 C  
BRANCH  22  23
HETATM   23  C   UNL     1      -7.416   8.862  64.124  1.00  0.00    -0.111 C  
HETATM   24  O   UNL     1      -6.695   9.818  63.849  1.00  0.00    -0.109 OA 
BRANCH  23  25
HETATM   25  O   UNL     1      -6.944   7.599  64.293  1.00  0.00    -0.057 OA 
BRANCH  25  26
HETATM   26  C   UNL     1      -7.559   6.873  65.357  1.00  0.00    -0.093 C  
HETATM   27  C   UNL     1      -6.621   6.458  66.488  1.00  0.00    -0.048 C  
HETATM   28  O   UNL     1      -6.344   7.450  67.368  1.00  0.00    -0.051 OA 
HETATM   29  O   UNL     1      -6.157   5.333  66.608  1.00  0.00    -0.028 OA 
ENDBRANCH  25  26
ENDBRANCH  23  25
ENDBRANCH  22  23
ENDBRANCH  13  22
ENDBRANCH   2   3
TORSDOF 6
ENDMDL
MODEL      132
REMARK 921   NORMALIZED FREE ENERGY PREDICTED BY IDOCK:   -4.31 KCAL/MOL
REMARK 922        TOTAL FREE ENERGY PREDICTED BY IDOCK:   -6.97 KCAL/MOL
REMARK 923 INTER-LIGAND FREE ENERGY PREDICTED BY IDOCK:   -5.69 KCAL/MOL
REMARK 924 INTRA-LIGAND FREE ENERGY PREDICTED BY IDOCK:   -1.29 KCAL/MOL
REMARK 927      BINDING AFFINITY PREDICTED BY RF-SCORE:    0.00 PKD
ROOT
HETATM    1  C   UNL     1      -9.851   3.970  65.154  1.00  0.00    -0.201 C  
HETATM    2  O   UNL     1     -10.787   4.875  65.726  1.00  0.00    -0.262 OA 
ENDROOT
BRANCH   2   3
HETATM    3  C   UNL     1     -10.437   5.473  66.905  1.00  0.00    -0.287 A  
HETATM    4  C   UNL     1     -10.404   4.859  68.159  1.00  0.00    -0.035 A  
HETATM    5  C   UNL     1     -10.059   5.608  69.313  1.00  0.00    -0.281 A  
HETATM    6  C   UNL     1      -9.788   6.973  69.185  1.00  0.00    -0.158 A  
HETATM    7  N   UNL     1      -9.624   7.511  70.474  1.00  0.00    -0.168 N  
HETATM    8  C   UNL     1      -9.699   7.562  67.907  1.00  0.00    -0.170 A  
HETATM    9  C   UNL     1      -9.553   8.899  70.806  1.00  0.00    -0.229 C  
HETATM   10  C   UNL     1     -10.053   6.803  66.787  1.00  0.00    -0.250 A  
HETATM   11  C   UNL     1      -9.520   6.423  71.364  1.00  0.00    -0.155 A  
HETATM   12  O   UNL     1      -8.960   9.210  71.837  1.00  0.00    -0.340 OA 
HETATM   13  C   UNL     1      -9.828   5.254  70.675  1.00  0.00    -0.264 A  
HETATM   14  C   UNL     1      -9.177   6.535  72.814  1.00  0.00    -0.143 C  
BRANCH   9  15
HETATM   15  C   UNL     1     -10.121  10.028  70.015  1.00  0.00    -0.289 A  
HETATM   16  C   UNL     1      -9.374  10.726  69.059  1.00  0.00    -0.168 A  
HETATM   17  C   UNL     1     -11.243  12.215  68.679  1.00  0.00    -0.269 A  
HETATM   18 CL   UNL     1     -11.895  13.621  67.937  1.00  0.00    -0.393 Cl 
HETATM   19  C   UNL     1      -9.925  11.839  68.417  1.00  0.00    -0.202 A  
HETATM   20  C   UNL     1     -12.029  11.463  69.548  1.00  0.00    -0.409 A  
HETATM   21  C   UNL     1     -11.469  10.369  70.214  1.00  0.00    -0.406 A  
ENDBRANCH   9  15
BRANCH  13  22
HETATM   22  C   UNL     1      -9.798   3.862  71.240  1.00  0.00    -0.227 C  
BRANCH  22  23
HETATM   23  C   UNL     1      -8.487   3.133  71.084  1.00  0.00    -0.066 C  
HETATM   24  O   UNL     1      -8.284   1.979  71.454  1.00  0.00    -0.046 OA 
BRANCH  23  25
HETATM   25  O   UNL     1      -7.558   3.878  70.428  1.00  0.00    -0.044 OA 
BRANCH  25  26
HETATM   26  C   UNL     1      -6.794   3.158  69.463  1.00  0.00    -0.037 C  
HETATM   27  C   UNL     1      -7.369   3.155  68.049  1.00  0.00    -0.053 C  
HETATM   28  O   UNL     1      -7.123   4.290  67.350  1.00  0.00    -0.065 OA 
HETATM   29  O   UNL     1      -7.993   2.218  67.571  1.00  0.00    -0.064 OA 
ENDBRANCH  25  26
ENDBRANCH  23  25
ENDBRANCH  22  23
ENDBRANCH  13  22
ENDBRANCH   2   3
TORSDOF 6
ENDMDL
MODEL      133
REMARK 921   NORMALIZED FREE ENERGY PREDICTED BY IDOCK:   -4.30 KCAL/MOL
REMARK 922        TOTAL FREE ENERGY PREDICTED BY IDOCK:   -6.96 KCAL/MOL
REMARK 923 INTER-LIGAND FREE ENERGY PREDICTED BY IDOCK:   -5.92 KCAL/MOL
REMARK 924 INTRA-LIGAND FREE ENERGY PREDICTED BY IDOCK:   -1.04 KCAL/MOL
REMARK 927      BINDING AFFINITY PREDICTED BY RF-SCORE:    0.00 PKD
ROOT
HETATM    1  C   UNL     1     -12.645  14.758  64.102  1.00  0.00     0.064 C  
HETATM    2  O   UNL     1     -12.795  14.005  65.299  1.00  0.00    -0.686 OA 
ENDROOT
BRANCH   2   3
HETATM    3  C   UNL     1     -11.660  13.727  66.009  1.00  0.00    -0.346 A  
HETATM    4  C   UNL     1     -10.867  14.656  66.685  1.00  0.00    -0.312 A  
HETATM    5  C   UNL     1      -9.688  14.238  67.353  1.00  0.00    -0.235 A  
HETATM    6  C   UNL     1      -9.311  12.893  67.296  1.00  0.00    -0.212 A  
HETATM    7  N   UNL     1      -8.047  12.765  67.899  1.00  0.00    -0.146 N  
HETATM    8  C   UNL     1     -10.175  11.938  66.722  1.00  0.00    -0.232 A  
HETATM    9  C   UNL     1      -7.206  11.611  67.858  1.00  0.00    -0.083 C  
HETATM   10  C   UNL     1     -11.326  12.380  66.062  1.00  0.00    -0.397 A  
HETATM   11  C   UNL     1      -7.784  13.978  68.566  1.00  0.00    -0.139 A  
HETATM   12  O   UNL     1      -6.395  11.461  68.771  1.00  0.00    -0.048 OA 
HETATM   13  C   UNL     1      -8.758  14.905  68.205  1.00  0.00    -0.164 A  
HETATM   14  C   UNL     1      -6.620  14.221  69.472  1.00  0.00    -0.134 C  
BRANCH   9  15
HETATM   15  C   UNL     1      -7.217  10.545  66.815  1.00  0.00    -0.114 A  
HETATM   16  C   UNL     1      -6.550  10.684  65.593  1.00  0.00    -0.079 A  
HETATM   17  C   UNL     1      -7.409   8.538  64.875  1.00  0.00    -0.087 A  
HETATM   18 CL   UNL     1      -7.613   7.356  63.645  1.00  0.00    -0.115 Cl 
HETATM   19  C   UNL     1      -6.674   9.695  64.612  1.00  0.00    -0.101 A  
HETATM   20  C   UNL     1      -7.987   8.342  66.127  1.00  0.00    -0.100 A  
HETATM   21  C   UNL     1      -7.890   9.344  67.097  1.00  0.00    -0.098 A  
ENDBRANCH   9  15
BRANCH  13  22
HETATM   22  C   UNL     1      -8.873  16.311  68.721  1.00  0.00    -0.243 C  
BRANCH  22  23
HETATM   23  C   UNL     1      -8.425  17.386  67.762  1.00  0.00    -0.223 C  
HETATM   24  O   UNL     1      -7.955  17.171  66.647  1.00  0.00    -0.215 OA 
BRANCH  23  25
HETATM   25  O   UNL     1      -8.655  18.635  68.244  1.00  0.00    -0.302 OA 
BRANCH  25  26
HETATM   26  C   UNL     1      -7.526  19.505  68.203  1.00  0.00    -0.300 C  
HETATM   27  C   UNL     1      -6.620  19.453  69.431  1.00  0.00    -0.329 C  
HETATM   28  O   UNL     1      -5.769  18.399  69.445  1.00  0.00    -0.214 OA 
HETATM   29  O   UNL     1      -6.644  20.284  70.328  1.00  0.00    -0.328 OA 
ENDBRANCH  25  26
ENDBRANCH  23  25
ENDBRANCH  22  23
ENDBRANCH  13  22
ENDBRANCH   2   3
TORSDOF 6
ENDMDL
MODEL      134
REMARK 921   NORMALIZED FREE ENERGY PREDICTED BY IDOCK:   -4.27 KCAL/MOL
REMARK 922        TOTAL FREE ENERGY PREDICTED BY IDOCK:   -6.92 KCAL/MOL
REMARK 923 INTER-LIGAND FREE ENERGY PREDICTED BY IDOCK:   -6.10 KCAL/MOL
REMARK 924 INTRA-LIGAND FREE ENERGY PREDICTED BY IDOCK:   -0.82 KCAL/MOL
REMARK 927      BINDING AFFINITY PREDICTED BY RF-SCORE:    0.00 PKD
ROOT
HETATM    1  C   UNL     1      -5.184  10.861  72.188  1.00  0.00     0.237 C  
HETATM    2  O   UNL     1      -5.593  11.663  71.087  1.00  0.00    -0.336 OA 
ENDROOT
BRANCH   2   3
HETATM    3  C   UNL     1      -6.445  11.092  70.182  1.00  0.00    -0.103 A  
HETATM    4  C   UNL     1      -7.167  11.768  69.195  1.00  0.00    -0.043 A  
HETATM    5  C   UNL     1      -8.049  11.057  68.343  1.00  0.00    -0.134 A  
HETATM    6  C   UNL     1      -8.214   9.681  68.524  1.00  0.00    -0.105 A  
HETATM    7  N   UNL     1      -9.240   9.244  67.667  1.00  0.00    -0.125 N  
HETATM    8  C   UNL     1      -7.393   8.982  69.433  1.00  0.00    -0.075 A  
HETATM    9  C   UNL     1      -9.871   7.963  67.692  1.00  0.00    -0.165 C  
HETATM   10  C   UNL     1      -6.539   9.709  70.268  1.00  0.00    -0.091 A  
HETATM   11  C   UNL     1      -9.503  10.299  66.770  1.00  0.00    -0.163 A  
HETATM   12  O   UNL     1     -10.381   7.557  66.649  1.00  0.00    -0.264 OA 
HETATM   13  C   UNL     1      -8.814  11.430  67.198  1.00  0.00    -0.156 A  
HETATM   14  C   UNL     1     -10.411  10.208  65.586  1.00  0.00    -0.210 C  
BRANCH   9  15
HETATM   15  C   UNL     1      -9.969   7.048  68.865  1.00  0.00    -0.160 A  
HETATM   16  C   UNL     1      -9.603   5.699  68.797  1.00  0.00    -0.166 A  
HETATM   17  C   UNL     1     -10.317   5.386  71.088  1.00  0.00    -0.235 A  
HETATM   18 CL   UNL     1     -10.627   4.343  72.418  1.00  0.00    -0.216 Cl 
HETATM   19  C   UNL     1      -9.808   4.863  69.899  1.00  0.00    -0.295 A  
HETATM   20  C   UNL     1     -10.583   6.748  71.200  1.00  0.00    -0.252 A  
HETATM   21  C   UNL     1     -10.408   7.579  70.089  1.00  0.00    -0.217 A  
ENDBRANCH   9  15
BRANCH  13  22
HETATM   22  C   UNL     1      -8.787  12.763  66.505  1.00  0.00    -0.046 C  
BRANCH  22  23
HETATM   23  C   UNL     1      -9.758  13.785  67.042  1.00  0.00    -0.251 C  
HETATM   24  O   UNL     1     -10.086  13.881  68.222  1.00  0.00    -0.228 OA 
BRANCH  23  25
HETATM   25  O   UNL     1     -10.191  14.640  66.078  1.00  0.00    -0.282 OA 
BRANCH  25  26
HETATM   26  C   UNL     1     -10.589  15.923  66.557  1.00  0.00    -0.297 C  
HETATM   27  C   UNL     1     -10.308  17.086  65.610  1.00  0.00    -0.209 C  
HETATM   28  O   UNL     1     -11.213  17.215  64.609  1.00  0.00    -1.003 OA 
HETATM   29  O   UNL     1      -9.359  17.848  65.732  1.00  0.00    -0.507 OA 
ENDBRANCH  25  26
ENDBRANCH  23  25
ENDBRANCH  22  23
ENDBRANCH  13  22
ENDBRANCH   2   3
TORSDOF 6
ENDMDL
MODEL      135
REMARK 921   NORMALIZED FREE ENERGY PREDICTED BY IDOCK:   -4.22 KCAL/MOL
REMARK 922        TOTAL FREE ENERGY PREDICTED BY IDOCK:   -6.86 KCAL/MOL
REMARK 923 INTER-LIGAND FREE ENERGY PREDICTED BY IDOCK:   -5.73 KCAL/MOL
REMARK 924 INTRA-LIGAND FREE ENERGY PREDICTED BY IDOCK:   -1.13 KCAL/MOL
REMARK 927      BINDING AFFINITY PREDICTED BY RF-SCORE:    0.00 PKD
ROOT
HETATM    1  C   UNL     1     -12.701  13.965  65.388  1.00  0.00    -0.490 C  
HETATM    2  O   UNL     1     -12.516  12.584  65.673  1.00  0.00    -0.648 OA 
ENDROOT
BRANCH   2   3
HETATM    3  C   UNL     1     -11.393  12.234  66.371  1.00  0.00    -0.354 A  
HETATM    4  C   UNL     1     -10.415  13.111  66.844  1.00  0.00    -0.256 A  
HETATM    5  C   UNL     1      -9.275  12.612  67.523  1.00  0.00    -0.190 A  
HETATM    6  C   UNL     1      -9.125  11.231  67.681  1.00  0.00    -0.149 A  
HETATM    7  N   UNL     1      -7.858  10.988  68.243  1.00  0.00    -0.114 N  
HETATM    8  C   UNL     1     -10.170  10.357  67.315  1.00  0.00    -0.258 A  
HETATM    9  C   UNL     1      -7.220   9.716  68.364  1.00  0.00    -0.074 C  
HETATM   10  C   UNL     1     -11.278  10.876  66.639  1.00  0.00    -0.060 A  
HETATM   11  C   UNL     1      -7.357  12.230  68.681  1.00  0.00    -0.106 A  
HETATM   12  O   UNL     1      -6.382   9.579  69.253  1.00  0.00    -0.043 OA 
HETATM   13  C   UNL     1      -8.193  13.238  68.208  1.00  0.00    -0.156 A  
HETATM   14  C   UNL     1      -6.109  12.413  69.482  1.00  0.00    -0.117 C  
BRANCH   9  15
HETATM   15  C   UNL     1      -7.476   8.513  67.520  1.00  0.00    -0.093 A  
HETATM   16  C   UNL     1      -7.124   8.458  66.166  1.00  0.00    -0.076 A  
HETATM   17  C   UNL     1      -8.118   6.258  65.994  1.00  0.00    -0.119 A  
HETATM   18 CL   UNL     1      -8.605   4.919  65.034  1.00  0.00    -0.141 Cl 
HETATM   19  C   UNL     1      -7.476   7.344  65.398  1.00  0.00    -0.090 A  
HETATM   20  C   UNL     1      -8.375   6.259  67.363  1.00  0.00    -0.109 A  
HETATM   21  C   UNL     1      -8.053   7.385  68.125  1.00  0.00    -0.124 A  
ENDBRANCH   9  15
BRANCH  13  22
HETATM   22  C   UNL     1      -8.043  14.708  68.481  1.00  0.00    -0.146 C  
BRANCH  22  23
HETATM   23  C   UNL     1      -7.333  15.492  67.405  1.00  0.00    -0.210 C  
HETATM   24  O   UNL     1      -6.216  15.223  66.971  1.00  0.00    -0.232 OA 
BRANCH  23  25
HETATM   25  O   UNL     1      -8.097  16.504  66.916  1.00  0.00    -0.174 OA 
BRANCH  25  26
HETATM   26  C   UNL     1      -7.380  17.475  66.156  1.00  0.00    -0.311 C  
HETATM   27  C   UNL     1      -7.725  18.929  66.467  1.00  0.00    -0.259 C  
HETATM   28  O   UNL     1      -7.131  19.412  67.585  1.00  0.00    -0.225 OA 
HETATM   29  O   UNL     1      -8.466  19.614  65.775  1.00  0.00    -0.401 OA 
ENDBRANCH  25  26
ENDBRANCH  23  25
ENDBRANCH  22  23
ENDBRANCH  13  22
ENDBRANCH   2   3
TORSDOF 6
ENDMDL
MODEL      136
REMARK 921   NORMALIZED FREE ENERGY PREDICTED BY IDOCK:   -4.14 KCAL/MOL
REMARK 922        TOTAL FREE ENERGY PREDICTED BY IDOCK:   -6.74 KCAL/MOL
REMARK 923 INTER-LIGAND FREE ENERGY PREDICTED BY IDOCK:   -5.72 KCAL/MOL
REMARK 924 INTRA-LIGAND FREE ENERGY PREDICTED BY IDOCK:   -1.03 KCAL/MOL
REMARK 927      BINDING AFFINITY PREDICTED BY RF-SCORE:    0.00 PKD
ROOT
HETATM    1  C   UNL     1      -9.060   7.680  73.442  1.00  0.00    -0.241 C  
HETATM    2  O   UNL     1     -10.079   8.270  72.645  1.00  0.00    -0.289 OA 
ENDROOT
BRANCH   2   3
HETATM    3  C   UNL     1      -9.749   8.614  71.363  1.00  0.00    -0.244 A  
HETATM    4  C   UNL     1      -8.674   8.111  70.629  1.00  0.00    -0.136 A  
HETATM    5  C   UNL     1      -8.420   8.583  69.316  1.00  0.00    -0.128 A  
HETATM    6  C   UNL     1      -9.238   9.583  68.780  1.00  0.00    -0.140 A  
HETATM    7  N   UNL     1      -8.695   9.980  67.545  1.00  0.00    -0.125 N  
HETATM    8  C   UNL     1     -10.395   9.999  69.471  1.00  0.00    -0.256 A  
HETATM    9  C   UNL     1      -9.090  11.117  66.777  1.00  0.00    -0.166 C  
HETATM   10  C   UNL     1     -10.615   9.523  70.767  1.00  0.00    -0.387 A  
HETATM   11  C   UNL     1      -7.711   9.030  67.204  1.00  0.00    -0.099 A  
HETATM   12  O   UNL     1      -8.890  11.085  65.564  1.00  0.00    -0.195 OA 
HETATM   13  C   UNL     1      -7.500   8.195  68.298  1.00  0.00    -0.097 A  
HETATM   14  C   UNL     1      -6.993   8.975  65.894  1.00  0.00    -0.088 C  
BRANCH   9  15
HETATM   15  C   UNL     1      -9.740  12.354  67.297  1.00  0.00    -0.201 A  
HETATM   16  C   UNL     1      -9.042  13.312  68.043  1.00  0.00    -0.202 A  
HETATM   17  C   UNL     1     -11.085  14.575  68.338  1.00  0.00    -0.256 A  
HETATM   18 CL   UNL     1     -11.932  15.883  69.064  1.00  0.00    -0.338 Cl 
HETATM   19  C   UNL     1      -9.723  14.404  68.590  1.00  0.00    -0.216 A  
HETATM   20  C   UNL     1     -11.765  13.686  67.509  1.00  0.00    -0.406 A  
HETATM   21  C   UNL     1     -11.092  12.577  66.988  1.00  0.00    -0.326 A  
ENDBRANCH   9  15
BRANCH  13  22
HETATM   22  C   UNL     1      -6.563   7.022  68.345  1.00  0.00    -0.055 C  
BRANCH  22  23
HETATM   23  C   UNL     1      -6.703   6.041  67.208  1.00  0.00    -0.061 C  
HETATM   24  O   UNL     1      -5.814   5.781  66.400  1.00  0.00    -0.017 OA 
BRANCH  23  25
HETATM   25  O   UNL     1      -7.912   5.422  67.208  1.00  0.00    -0.100 OA 
BRANCH  25  26
HETATM   26  C   UNL     1      -8.751   5.757  66.104  1.00  0.00    -0.139 C  
HETATM   27  C   UNL     1     -10.247   5.582  66.347  1.00  0.00    -0.201 C  
HETATM   28  O   UNL     1     -10.816   6.594  67.045  1.00  0.00    -0.337 OA 
HETATM   29  O   UNL     1     -10.893   4.623  65.949  1.00  0.00    -0.274 OA 
ENDBRANCH  25  26
ENDBRANCH  23  25
ENDBRANCH  22  23
ENDBRANCH  13  22
ENDBRANCH   2   3
TORSDOF 6
ENDMDL
MODEL      137
REMARK 921   NORMALIZED FREE ENERGY PREDICTED BY IDOCK:   -4.13 KCAL/MOL
REMARK 922        TOTAL FREE ENERGY PREDICTED BY IDOCK:   -6.73 KCAL/MOL
REMARK 923 INTER-LIGAND FREE ENERGY PREDICTED BY IDOCK:   -5.61 KCAL/MOL
REMARK 924 INTRA-LIGAND FREE ENERGY PREDICTED BY IDOCK:   -1.13 KCAL/MOL
REMARK 927      BINDING AFFINITY PREDICTED BY RF-SCORE:    0.00 PKD
ROOT
HETATM    1  C   UNL     1     -10.444  11.440  68.328  1.00  0.00    -0.198 C  
HETATM    2  O   UNL     1      -9.271  10.720  68.686  1.00  0.00    -0.168 OA 
ENDROOT
BRANCH   2   3
HETATM    3  C   UNL     1      -9.347   9.354  68.667  1.00  0.00    -0.142 A  
HETATM    4  C   UNL     1      -9.431   8.521  69.784  1.00  0.00    -0.166 A  
HETATM    5  C   UNL     1      -9.465   7.112  69.624  1.00  0.00    -0.152 A  
HETATM    6  C   UNL     1      -9.377   6.569  68.339  1.00  0.00    -0.122 A  
HETATM    7  N   UNL     1      -9.280   5.170  68.459  1.00  0.00    -0.112 N  
HETATM    8  C   UNL     1      -9.419   7.410  67.208  1.00  0.00    -0.179 A  
HETATM    9  C   UNL     1      -8.955   4.255  67.412  1.00  0.00    -0.120 C  
HETATM   10  C   UNL     1      -9.376   8.795  67.395  1.00  0.00    -0.166 A  
HETATM   11  C   UNL     1      -9.589   4.850  69.796  1.00  0.00    -0.172 A  
HETATM   12  O   UNL     1      -9.352   3.096  67.522  1.00  0.00    -0.191 OA 
HETATM   13  C   UNL     1      -9.660   6.030  70.532  1.00  0.00    -0.198 A  
HETATM   14  C   UNL     1      -9.762   3.462  70.325  1.00  0.00    -0.140 C  
BRANCH   9  15
HETATM   15  C   UNL     1      -8.181   4.564  66.176  1.00  0.00    -0.106 A  
HETATM   16  C   UNL     1      -6.782   4.588  66.152  1.00  0.00    -0.053 A  
HETATM   17  C   UNL     1      -6.830   5.283  63.834  1.00  0.00    -0.046 A  
HETATM   18 CL   UNL     1      -6.003   5.826  62.428  1.00  0.00    -0.021 Cl 
HETATM   19  C   UNL     1      -6.109   4.980  64.990  1.00  0.00    -0.030 A  
HETATM   20  C   UNL     1      -8.216   5.158  63.817  1.00  0.00    -0.126 A  
HETATM   21  C   UNL     1      -8.891   4.797  64.986  1.00  0.00    -0.152 A  
ENDBRANCH   9  15
BRANCH  13  22
HETATM   22  C   UNL     1     -10.006   6.142  71.990  1.00  0.00    -0.194 C  
BRANCH  22  23
HETATM   23  C   UNL     1     -11.444   5.848  72.334  1.00  0.00    -0.306 C  
HETATM   24  O   UNL     1     -11.812   4.931  73.065  1.00  0.00    -0.251 OA 
BRANCH  23  25
HETATM   25  O   UNL     1     -12.299   6.755  71.791  1.00  0.00    -0.341 OA 
BRANCH  25  26
HETATM   26  C   UNL     1     -12.153   8.082  72.292  1.00  0.00    -0.341 C  
HETATM   27  C   UNL     1     -13.303   9.031  71.964  1.00  0.00    -0.438 C  
HETATM   28  O   UNL     1     -14.387   8.882  72.764  1.00  0.00    -0.600 OA 
HETATM   29  O   UNL     1     -13.265   9.862  71.067  1.00  0.00    -0.373 OA 
ENDBRANCH  25  26
ENDBRANCH  23  25
ENDBRANCH  22  23
ENDBRANCH  13  22
ENDBRANCH   2   3
TORSDOF 6
ENDMDL
MODEL      138
REMARK 921   NORMALIZED FREE ENERGY PREDICTED BY IDOCK:   -3.98 KCAL/MOL
REMARK 922        TOTAL FREE ENERGY PREDICTED BY IDOCK:   -6.52 KCAL/MOL
REMARK 923 INTER-LIGAND FREE ENERGY PREDICTED BY IDOCK:   -5.53 KCAL/MOL
REMARK 924 INTRA-LIGAND FREE ENERGY PREDICTED BY IDOCK:   -0.99 KCAL/MOL
REMARK 927      BINDING AFFINITY PREDICTED BY RF-SCORE:    0.00 PKD
ROOT
HETATM    1  C   UNL     1      -6.787  13.961  68.564  1.00  0.00    -0.098 C  
HETATM    2  O   UNL     1      -5.985  12.801  68.377  1.00  0.00    -0.061 OA 
ENDROOT
BRANCH   2   3
HETATM    3  C   UNL     1      -6.634  11.600  68.298  1.00  0.00    -0.059 A  
HETATM    4  C   UNL     1      -7.788  11.337  67.557  1.00  0.00    -0.123 A  
HETATM    5  C   UNL     1      -8.384  10.051  67.593  1.00  0.00    -0.114 A  
HETATM    6  C   UNL     1      -7.822   9.061  68.405  1.00  0.00    -0.103 A  
HETATM    7  N   UNL     1      -8.672   7.940  68.383  1.00  0.00    -0.131 N  
HETATM    8  C   UNL     1      -6.590   9.288  69.051  1.00  0.00    -0.047 A  
HETATM    9  C   UNL     1      -8.587   6.801  69.241  1.00  0.00    -0.129 C  
HETATM   10  C   UNL     1      -6.030  10.569  69.006  1.00  0.00    -0.040 A  
HETATM   11  C   UNL     1      -9.600   8.148  67.343  1.00  0.00    -0.160 A  
HETATM   12  O   UNL     1      -9.053   5.740  68.829  1.00  0.00    -0.115 OA 
HETATM   13  C   UNL     1      -9.464   9.454  66.880  1.00  0.00    -0.204 A  
HETATM   14  C   UNL     1     -10.587   7.133  66.863  1.00  0.00    -0.371 C  
BRANCH   9  15
HETATM   15  C   UNL     1      -7.972   6.759  70.598  1.00  0.00    -0.110 A  
HETATM   16  C   UNL     1      -8.349   7.638  71.621  1.00  0.00    -0.118 A  
HETATM   17  C   UNL     1      -6.663   6.681  73.069  1.00  0.00    -0.068 A  
HETATM   18 CL   UNL     1      -5.789   6.704  74.549  1.00  0.00    -0.066 Cl 
HETATM   19  C   UNL     1      -7.671   7.619  72.843  1.00  0.00    -0.122 A  
HETATM   20  C   UNL     1      -6.354   5.733  72.097  1.00  0.00    -0.048 A  
HETATM   21  C   UNL     1      -7.009   5.771  70.863  1.00  0.00    -0.066 A  
ENDBRANCH   9  15
BRANCH  13  22
HETATM   22  C   UNL     1     -10.235  10.074  65.749  1.00  0.00    -0.270 C  
BRANCH  22  23
HETATM   23  C   UNL     1     -11.134  11.220  66.137  1.00  0.00    -0.143 C  
HETATM   24  O   UNL     1     -11.524  11.442  67.281  1.00  0.00    -0.441 OA 
BRANCH  23  25
HETATM   25  O   UNL     1     -11.423  12.028  65.083  1.00  0.00    -0.324 OA 
BRANCH  25  26
HETATM   26  C   UNL     1     -11.353  13.424  65.369  1.00  0.00    -0.291 C  
HETATM   27  C   UNL     1     -12.499  14.261  64.807  1.00  0.00    -0.374 C  
HETATM   28  O   UNL     1     -13.637  14.201  65.539  1.00  0.00    -0.568 OA 
HETATM   29  O   UNL     1     -12.413  14.937  63.791  1.00  0.00    -0.768 OA 
ENDBRANCH  25  26
ENDBRANCH  23  25
ENDBRANCH  22  23
ENDBRANCH  13  22
ENDBRANCH   2   3
TORSDOF 6
ENDMDL
MODEL      139
REMARK 921   NORMALIZED FREE ENERGY PREDICTED BY IDOCK:   -3.93 KCAL/MOL
REMARK 922        TOTAL FREE ENERGY PREDICTED BY IDOCK:   -6.46 KCAL/MOL
REMARK 923 INTER-LIGAND FREE ENERGY PREDICTED BY IDOCK:   -5.05 KCAL/MOL
REMARK 924 INTRA-LIGAND FREE ENERGY PREDICTED BY IDOCK:   -1.40 KCAL/MOL
REMARK 927      BINDING AFFINITY PREDICTED BY RF-SCORE:    0.00 PKD
ROOT
HETATM    1  C   UNL     1     -12.033  12.265  68.192  1.00  0.00    -0.195 C  
HETATM    2  O   UNL     1     -12.170  10.984  68.794  1.00  0.00    -0.546 OA 
ENDROOT
BRANCH   2   3
HETATM    3  C   UNL     1     -11.076  10.476  69.438  1.00  0.00    -0.258 A  
HETATM    4  C   UNL     1      -9.744  10.658  69.062  1.00  0.00    -0.214 A  
HETATM    5  C   UNL     1      -8.702  10.040  69.799  1.00  0.00    -0.198 A  
HETATM    6  C   UNL     1      -9.026   9.220  70.884  1.00  0.00    -0.209 A  
HETATM    7  N   UNL     1      -7.844   8.614  71.346  1.00  0.00    -0.122 N  
HETATM    8  C   UNL     1     -10.359   9.138  71.338  1.00  0.00    -0.409 A  
HETATM    9  C   UNL     1      -7.757   7.544  72.288  1.00  0.00    -0.090 C  
HETATM   10  C   UNL     1     -11.367   9.750  70.586  1.00  0.00    -0.401 A  
HETATM   11  C   UNL     1      -6.770   9.281  70.723  1.00  0.00    -0.094 A  
HETATM   12  O   UNL     1      -6.718   7.436  72.936  1.00  0.00    -0.063 OA 
HETATM   13  C   UNL     1      -7.280  10.125  69.741  1.00  0.00    -0.141 A  
HETATM   14  C   UNL     1      -5.327   9.066  71.048  1.00  0.00    -0.031 C  
BRANCH   9  15
HETATM   15  C   UNL     1      -8.816   6.536  72.581  1.00  0.00    -0.126 A  
HETATM   16  C   UNL     1      -9.540   6.534  73.779  1.00  0.00    -0.206 A  
HETATM   17  C   UNL     1     -10.689   4.520  73.086  1.00  0.00    -0.235 A  
HETATM   18 CL   UNL     1     -11.761   3.224  73.440  1.00  0.00    -0.083 Cl 
HETATM   19  C   UNL     1     -10.451   5.507  74.044  1.00  0.00    -0.308 A  
HETATM   20  C   UNL     1     -10.053   4.573  71.848  1.00  0.00    -0.258 A  
HETATM   21  C   UNL     1      -9.118   5.581  71.596  1.00  0.00    -0.155 A  
ENDBRANCH   9  15
BRANCH  13  22
HETATM   22  C   UNL     1      -6.478  11.049  68.867  1.00  0.00    -0.054 C  
BRANCH  22  23
HETATM   23  C   UNL     1      -6.275  10.576  67.450  1.00  0.00    -0.057 C  
HETATM   24  O   UNL     1      -6.031  11.314  66.498  1.00  0.00    -0.128 OA 
BRANCH  23  25
HETATM   25  O   UNL     1      -6.331   9.222  67.345  1.00  0.00    -0.061 OA 
BRANCH  25  26
HETATM   26  C   UNL     1      -7.442   8.730  66.598  1.00  0.00    -0.085 C  
HETATM   27  C   UNL     1      -7.862   7.299  66.924  1.00  0.00    -0.111 C  
HETATM   28  O   UNL     1      -8.608   7.185  68.049  1.00  0.00    -0.127 OA 
HETATM   29  O   UNL     1      -7.566   6.331  66.238  1.00  0.00    -0.087 OA 
ENDBRANCH  25  26
ENDBRANCH  23  25
ENDBRANCH  22  23
ENDBRANCH  13  22
ENDBRANCH   2   3
TORSDOF 6
ENDMDL
MODEL      140
REMARK 921   NORMALIZED FREE ENERGY PREDICTED BY IDOCK:   -3.91 KCAL/MOL
REMARK 922        TOTAL FREE ENERGY PREDICTED BY IDOCK:   -6.44 KCAL/MOL
REMARK 923 INTER-LIGAND FREE ENERGY PREDICTED BY IDOCK:   -5.08 KCAL/MOL
REMARK 924 INTRA-LIGAND FREE ENERGY PREDICTED BY IDOCK:   -1.36 KCAL/MOL
REMARK 927      BINDING AFFINITY PREDICTED BY RF-SCORE:    0.00 PKD
ROOT
HETATM    1  C   UNL     1      -6.207   9.125  70.382  1.00  0.00    -0.048 C  
HETATM    2  O   UNL     1      -5.773   8.963  69.037  1.00  0.00    -0.039 OA 
ENDROOT
BRANCH   2   3
HETATM    3  C   UNL     1      -6.660   9.296  68.050  1.00  0.00    -0.060 A  
HETATM    4  C   UNL     1      -6.509   9.031  66.688  1.00  0.00    -0.067 A  
HETATM    5  C   UNL     1      -7.490   9.467  65.761  1.00  0.00    -0.099 A  
HETATM    6  C   UNL     1      -8.591  10.194  66.224  1.00  0.00    -0.131 A  
HETATM    7  N   UNL     1      -9.328  10.633  65.110  1.00  0.00    -0.197 N  
HETATM    8  C   UNL     1      -8.806  10.351  67.609  1.00  0.00    -0.124 A  
HETATM    9  C   UNL     1     -10.393  11.584  65.125  1.00  0.00    -0.278 C  
HETATM   10  C   UNL     1      -7.817   9.919  68.499  1.00  0.00    -0.081 A  
HETATM   11  C   UNL     1      -8.830   9.940  63.988  1.00  0.00    -0.228 A  
HETATM   12  O   UNL     1     -11.225  11.525  64.222  1.00  0.00    -0.338 OA 
HETATM   13  C   UNL     1      -7.677   9.256  64.364  1.00  0.00    -0.118 A  
HETATM   14  C   UNL     1      -9.432   9.982  62.621  1.00  0.00    -0.232 C  
BRANCH   9  15
HETATM   15  C   UNL     1     -10.613  12.650  66.144  1.00  0.00    -0.280 A  
HETATM   16  C   UNL     1     -11.666  12.602  67.066  1.00  0.00    -0.438 A  
HETATM   17  C   UNL     1     -11.014  14.767  67.929  1.00  0.00    -0.278 A  
HETATM   18 CL   UNL     1     -11.322  16.113  68.952  1.00  0.00    -0.355 Cl 
HETATM   19  C   UNL     1     -11.884  13.676  67.934  1.00  0.00    -0.402 A  
HETATM   20  C   UNL     1      -9.902  14.775  67.090  1.00  0.00    -0.232 A  
HETATM   21  C   UNL     1      -9.701  13.717  66.200  1.00  0.00    -0.280 A  
ENDBRANCH   9  15
BRANCH  13  22
HETATM   22  C   UNL     1      -6.855   8.360  63.481  1.00  0.00    -0.084 C  
BRANCH  22  23
HETATM   23  C   UNL     1      -7.371   6.949  63.339  1.00  0.00    -0.080 C  
HETATM   24  O   UNL     1      -7.953   6.518  62.346  1.00  0.00    -0.097 OA 
BRANCH  23  25
HETATM   25  O   UNL     1      -7.066   6.179  64.416  1.00  0.00    -0.049 OA 
BRANCH  25  26
HETATM   26  C   UNL     1      -8.194   5.613  65.080  1.00  0.00    -0.136 C  
HETATM   27  C   UNL     1      -8.473   4.148  64.755  1.00  0.00    -0.116 C  
HETATM   28  O   UNL     1      -7.682   3.274  65.422  1.00  0.00    -0.079 OA 
HETATM   29  O   UNL     1      -9.335   3.778  63.969  1.00  0.00    -0.130 OA 
ENDBRANCH  25  26
ENDBRANCH  23  25
ENDBRANCH  22  23
ENDBRANCH  13  22
ENDBRANCH   2   3
TORSDOF 6
ENDMDL
MODEL      141
REMARK 921   NORMALIZED FREE ENERGY PREDICTED BY IDOCK:   -3.82 KCAL/MOL
REMARK 922        TOTAL FREE ENERGY PREDICTED BY IDOCK:   -6.32 KCAL/MOL
REMARK 923 INTER-LIGAND FREE ENERGY PREDICTED BY IDOCK:   -5.06 KCAL/MOL
REMARK 924 INTRA-LIGAND FREE ENERGY PREDICTED BY IDOCK:   -1.25 KCAL/MOL
REMARK 927      BINDING AFFINITY PREDICTED BY RF-SCORE:    0.00 PKD
ROOT
HETATM    1  C   UNL     1      -9.188  11.166  65.914  1.00  0.00    -0.206 C  
HETATM    2  O   UNL     1      -8.394  10.034  65.580  1.00  0.00    -0.135 OA 
ENDROOT
BRANCH   2   3
HETATM    3  C   UNL     1      -8.316   9.031  66.507  1.00  0.00    -0.115 A  
HETATM    4  C   UNL     1      -7.818   7.746  66.285  1.00  0.00    -0.091 A  
HETATM    5  C   UNL     1      -7.831   6.784  67.327  1.00  0.00    -0.110 A  
HETATM    6  C   UNL     1      -8.379   7.128  68.567  1.00  0.00    -0.125 A  
HETATM    7  N   UNL     1      -8.411   5.973  69.369  1.00  0.00    -0.114 N  
HETATM    8  C   UNL     1      -8.765   8.459  68.827  1.00  0.00    -0.136 A  
HETATM    9  C   UNL     1      -9.089   5.832  70.618  1.00  0.00    -0.151 C  
HETATM   10  C   UNL     1      -8.751   9.384  67.778  1.00  0.00    -0.116 A  
HETATM   11  C   UNL     1      -7.628   4.998  68.718  1.00  0.00    -0.077 A  
HETATM   12  O   UNL     1      -8.667   4.987  71.406  1.00  0.00    -0.126 OA 
HETATM   13  C   UNL     1      -7.304   5.465  67.447  1.00  0.00    -0.083 A  
HETATM   14  C   UNL     1      -7.258   3.671  69.298  1.00  0.00    -0.049 C  
BRANCH   9  15
HETATM   15  C   UNL     1     -10.266   6.622  71.079  1.00  0.00    -0.214 A  
HETATM   16  C   UNL     1     -11.552   6.428  70.559  1.00  0.00    -0.424 A  
HETATM   17  C   UNL     1     -12.382   8.247  71.921  1.00  0.00    -0.338 A  
HETATM   18 CL   UNL     1     -13.657   9.313  72.360  1.00  0.00    -0.525 Cl 
HETATM   19  C   UNL     1     -12.600   7.263  70.956  1.00  0.00    -0.304 A  
HETATM   20  C   UNL     1     -11.133   8.377  72.523  1.00  0.00    -0.397 A  
HETATM   21  C   UNL     1     -10.077   7.564  72.104  1.00  0.00    -0.235 A  
ENDBRANCH   9  15
BRANCH  13  22
HETATM   22  C   UNL     1      -6.447   4.754  66.437  1.00  0.00    -0.041 C  
BRANCH  22  23
HETATM   23  C   UNL     1      -7.136   3.648  65.676  1.00  0.00    -0.066 C  
HETATM   24  O   UNL     1      -6.574   2.642  65.251  1.00  0.00    -0.033 OA 
BRANCH  23  25
HETATM   25  O   UNL     1      -8.474   3.858  65.561  1.00  0.00    -0.108 OA 
BRANCH  25  26
HETATM   26  C   UNL     1      -8.919   4.139  64.236  1.00  0.00    -0.144 C  
HETATM   27  C   UNL     1     -10.189   3.409  63.808  1.00  0.00    -0.214 C  
HETATM   28  O   UNL     1     -11.332   3.968  64.276  1.00  0.00    -0.278 OA 
HETATM   29  O   UNL     1     -10.194   2.411  63.100  1.00  0.00    -0.110 OA 
ENDBRANCH  25  26
ENDBRANCH  23  25
ENDBRANCH  22  23
ENDBRANCH  13  22
ENDBRANCH   2   3
TORSDOF 6
ENDMDL
MODEL      142
REMARK 921   NORMALIZED FREE ENERGY PREDICTED BY IDOCK:   -3.78 KCAL/MOL
REMARK 922        TOTAL FREE ENERGY PREDICTED BY IDOCK:   -6.26 KCAL/MOL
REMARK 923 INTER-LIGAND FREE ENERGY PREDICTED BY IDOCK:   -5.03 KCAL/MOL
REMARK 924 INTRA-LIGAND FREE ENERGY PREDICTED BY IDOCK:   -1.23 KCAL/MOL
REMARK 927      BINDING AFFINITY PREDICTED BY RF-SCORE:    0.00 PKD
ROOT
HETATM    1  C   UNL     1     -10.475   5.138  66.266  1.00  0.00    -0.289 C  
HETATM    2  O   UNL     1     -11.001   5.984  67.281  1.00  0.00    -0.313 OA 
ENDROOT
BRANCH   2   3
HETATM    3  C   UNL     1     -10.234   7.049  67.665  1.00  0.00    -0.193 A  
HETATM    4  C   UNL     1      -9.366   7.084  68.758  1.00  0.00    -0.134 A  
HETATM    5  C   UNL     1      -8.655   8.270  69.071  1.00  0.00    -0.135 A  
HETATM    6  C   UNL     1      -8.860   9.413  68.292  1.00  0.00    -0.128 A  
HETATM    7  N   UNL     1      -8.166  10.481  68.889  1.00  0.00    -0.132 N  
HETATM    8  C   UNL     1      -9.637   9.342  67.118  1.00  0.00    -0.202 A  
HETATM    9  C   UNL     1      -8.286  11.862  68.544  1.00  0.00    -0.118 C  
HETATM   10  C   UNL     1     -10.334   8.162  66.840  1.00  0.00    -0.401 A  
HETATM   11  C   UNL     1      -7.318   9.925  69.867  1.00  0.00    -0.147 A  
HETATM   12  O   UNL     1      -7.331  12.598  68.789  1.00  0.00    -0.107 OA 
HETATM   13  C   UNL     1      -7.638   8.579  70.021  1.00  0.00    -0.064 A  
HETATM   14  C   UNL     1      -6.283  10.685  70.633  1.00  0.00    -0.045 C  
BRANCH   9  15
HETATM   15  C   UNL     1      -9.461  12.514  67.898  1.00  0.00    -0.196 A  
HETATM   16  C   UNL     1     -10.671  12.720  68.572  1.00  0.00    -0.275 A  
HETATM   17  C   UNL     1     -11.647  13.627  66.552  1.00  0.00    -0.366 A  
HETATM   18 CL   UNL     1     -13.018  14.213  65.698  1.00  0.00    -0.437 Cl 
HETATM   19  C   UNL     1     -11.771  13.246  67.889  1.00  0.00    -0.395 A  
HETATM   20  C   UNL     1     -10.418  13.526  65.904  1.00  0.00    -0.292 A  
HETATM   21  C   UNL     1      -9.326  12.971  66.576  1.00  0.00    -0.220 A  
ENDBRANCH   9  15
BRANCH  13  22
HETATM   22  C   UNL     1      -6.947   7.606  70.934  1.00  0.00    -0.053 C  
BRANCH  22  23
HETATM   23  C   UNL     1      -6.170   6.516  70.241  1.00  0.00    -0.035 C  
HETATM   24  O   UNL     1      -5.289   6.712  69.407  1.00  0.00    -0.013 OA 
BRANCH  23  25
HETATM   25  O   UNL     1      -6.510   5.278  70.687  1.00  0.00    -0.026 OA 
BRANCH  25  26
HETATM   26  C   UNL     1      -7.642   5.249  71.553  1.00  0.00    -0.102 C  
HETATM   27  C   UNL     1      -7.445   4.480  72.857  1.00  0.00    -0.085 C  
HETATM   28  O   UNL     1      -6.773   5.171  73.810  1.00  0.00    -0.070 OA 
HETATM   29  O   UNL     1      -7.855   3.343  73.044  1.00  0.00    -0.063 OA 
ENDBRANCH  25  26
ENDBRANCH  23  25
ENDBRANCH  22  23
ENDBRANCH  13  22
ENDBRANCH   2   3
TORSDOF 6
ENDMDL
MODEL      143
REMARK 921   NORMALIZED FREE ENERGY PREDICTED BY IDOCK:   -3.72 KCAL/MOL
REMARK 922        TOTAL FREE ENERGY PREDICTED BY IDOCK:   -6.18 KCAL/MOL
REMARK 923 INTER-LIGAND FREE ENERGY PREDICTED BY IDOCK:   -5.33 KCAL/MOL
REMARK 924 INTRA-LIGAND FREE ENERGY PREDICTED BY IDOCK:   -0.85 KCAL/MOL
REMARK 927      BINDING AFFINITY PREDICTED BY RF-SCORE:    0.00 PKD
ROOT
HETATM    1  C   UNL     1     -12.778  13.700  63.833  1.00  0.00     0.135 C  
HETATM    2  O   UNL     1     -12.176  12.464  64.197  1.00  0.00    -0.414 OA 
ENDROOT
BRANCH   2   3
HETATM    3  C   UNL     1     -11.103  12.517  65.044  1.00  0.00    -0.299 A  
HETATM    4  C   UNL     1     -10.550  13.673  65.597  1.00  0.00    -0.294 A  
HETATM    5  C   UNL     1      -9.408  13.591  66.433  1.00  0.00    -0.191 A  
HETATM    6  C   UNL     1      -8.823  12.343  66.668  1.00  0.00    -0.156 A  
HETATM    7  N   UNL     1      -7.635  12.544  67.393  1.00  0.00    -0.153 N  
HETATM    8  C   UNL     1      -9.454  11.167  66.214  1.00  0.00    -0.220 A  
HETATM    9  C   UNL     1      -6.626  11.565  67.648  1.00  0.00    -0.078 C  
HETATM   10  C   UNL     1     -10.574  11.278  65.384  1.00  0.00    -0.312 A  
HETATM   11  C   UNL     1      -7.645  13.882  67.836  1.00  0.00    -0.156 A  
HETATM   12  O   UNL     1      -5.916  11.721  68.640  1.00  0.00    -0.049 OA 
HETATM   13  C   UNL     1      -8.701  14.547  67.220  1.00  0.00    -0.225 A  
HETATM   14  C   UNL     1      -6.648  14.478  68.778  1.00  0.00    -0.088 C  
BRANCH   9  15
HETATM   15  C   UNL     1      -6.348  10.349  66.832  1.00  0.00    -0.071 A  
HETATM   16  C   UNL     1      -6.079  10.411  65.459  1.00  0.00    -0.123 A  
HETATM   17  C   UNL     1      -5.967   7.995  65.368  1.00  0.00    -0.041 A  
HETATM   18 CL   UNL     1      -5.837   6.548  64.451  1.00  0.00    -0.029 Cl 
HETATM   19  C   UNL     1      -5.922   9.232  64.724  1.00  0.00    -0.066 A  
HETATM   20  C   UNL     1      -6.126   7.928  66.750  1.00  0.00    -0.049 A  
HETATM   21  C   UNL     1      -6.315   9.103  67.481  1.00  0.00    -0.063 A  
ENDBRANCH   9  15
BRANCH  13  22
HETATM   22  C   UNL     1      -9.094  15.980  67.445  1.00  0.00    -0.207 C  
BRANCH  22  23
HETATM   23  C   UNL     1     -10.432  16.182  68.110  1.00  0.00    -0.279 C  
HETATM   24  O   UNL     1     -11.509  15.848  67.621  1.00  0.00    -0.221 OA 
BRANCH  23  25
HETATM   25  O   UNL     1     -10.315  16.725  69.350  1.00  0.00    -0.302 OA 
BRANCH  25  26
HETATM   26  C   UNL     1     -10.407  15.786  70.420  1.00  0.00    -0.044 C  
HETATM   27  C   UNL     1     -11.688  15.868  71.248  1.00  0.00    -0.448 C  
HETATM   28  O   UNL     1     -12.757  15.268  70.671  1.00  0.00    -0.378 OA 
HETATM   29  O   UNL     1     -11.758  16.416  72.339  1.00  0.00    -0.508 OA 
ENDBRANCH  25  26
ENDBRANCH  23  25
ENDBRANCH  22  23
ENDBRANCH  13  22
ENDBRANCH   2   3
TORSDOF 6
ENDMDL
MODEL      144
REMARK 921   NORMALIZED FREE ENERGY PREDICTED BY IDOCK:   -3.70 KCAL/MOL
REMARK 922        TOTAL FREE ENERGY PREDICTED BY IDOCK:   -6.15 KCAL/MOL
REMARK 923 INTER-LIGAND FREE ENERGY PREDICTED BY IDOCK:   -6.30 KCAL/MOL
REMARK 924 INTRA-LIGAND FREE ENERGY PREDICTED BY IDOCK:    0.15 KCAL/MOL
REMARK 927      BINDING AFFINITY PREDICTED BY RF-SCORE:    0.00 PKD
ROOT
HETATM    1  C   UNL     1      -9.498   4.065  65.980  1.00  0.00    -0.183 C  
HETATM    2  O   UNL     1      -9.432   5.473  65.786  1.00  0.00    -0.141 OA 
ENDROOT
BRANCH   2   3
HETATM    3  C   UNL     1      -9.789   6.266  66.842  1.00  0.00    -0.156 A  
HETATM    4  C   UNL     1     -10.365   5.831  68.037  1.00  0.00    -0.258 A  
HETATM    5  C   UNL     1     -10.724   6.767  69.040  1.00  0.00    -0.280 A  
HETATM    6  C   UNL     1     -10.526   8.130  68.804  1.00  0.00    -0.174 A  
HETATM    7  N   UNL     1     -11.095   8.849  69.872  1.00  0.00    -0.190 N  
HETATM    8  C   UNL     1      -9.832   8.557  67.654  1.00  0.00    -0.222 A  
HETATM    9  C   UNL     1     -11.307  10.260  69.919  1.00  0.00    -0.290 C  
HETATM   10  C   UNL     1      -9.498   7.614  66.677  1.00  0.00    -0.255 A  
HETATM   11  C   UNL     1     -11.387   7.915  70.886  1.00  0.00    -0.277 A  
HETATM   12  O   UNL     1     -11.359  10.793  71.027  1.00  0.00    -0.096 OA 
HETATM   13  C   UNL     1     -11.207   6.632  70.375  1.00  0.00    -0.398 A  
HETATM   14  C   UNL     1     -11.855   8.266  72.261  1.00  0.00    -0.451 C  
BRANCH   9  15
HETATM   15  C   UNL     1     -11.464  11.172  68.750  1.00  0.00    -0.366 A  
HETATM   16  C   UNL     1     -11.347  10.725  67.428  1.00  0.00    -0.239 A  
HETATM   17  C   UNL     1     -11.646  12.990  66.632  1.00  0.00    -0.359 A  
HETATM   18 CL   UNL     1     -11.653  14.121  65.338  1.00  0.00    -0.325 Cl 
HETATM   19  C   UNL     1     -11.405  11.640  66.373  1.00  0.00    -0.312 A  
HETATM   20  C   UNL     1     -11.871  13.427  67.935  1.00  0.00    -0.392 A  
HETATM   21  C   UNL     1     -11.781  12.519  68.993  1.00  0.00    -0.368 A  
ENDBRANCH   9  15
BRANCH  13  22
HETATM   22  C   UNL     1     -11.373   5.348  71.137  1.00  0.00     0.239 C  
BRANCH  22  23
HETATM   23  C   UNL     1     -10.142   4.869  71.864  1.00  0.00    -0.199 C  
HETATM   24  O   UNL     1      -9.455   5.568  72.605  1.00  0.00    -0.147 OA 
BRANCH  23  25
HETATM   25  O   UNL     1      -9.903   3.547  71.658  1.00  0.00    -0.167 OA 
BRANCH  25  26
HETATM   26  C   UNL     1      -9.499   3.216  70.331  1.00  0.00    -0.157 C  
HETATM   27  C   UNL     1      -8.029   3.477  70.015  1.00  0.00    -0.046 C  
HETATM   28  O   UNL     1      -7.187   2.520  70.476  1.00  0.00    -0.033 OA 
HETATM   29  O   UNL     1      -7.629   4.454  69.397  1.00  0.00    -0.054 OA 
ENDBRANCH  25  26
ENDBRANCH  23  25
ENDBRANCH  22  23
ENDBRANCH  13  22
ENDBRANCH   2   3
TORSDOF 6
ENDMDL
MODEL      145
REMARK 921   NORMALIZED FREE ENERGY PREDICTED BY IDOCK:   -3.61 KCAL/MOL
REMARK 922        TOTAL FREE ENERGY PREDICTED BY IDOCK:   -6.02 KCAL/MOL
REMARK 923 INTER-LIGAND FREE ENERGY PREDICTED BY IDOCK:   -4.62 KCAL/MOL
REMARK 924 INTRA-LIGAND FREE ENERGY PREDICTED BY IDOCK:   -1.41 KCAL/MOL
REMARK 927      BINDING AFFINITY PREDICTED BY RF-SCORE:    0.00 PKD
ROOT
HETATM    1  C   UNL     1     -10.265  11.789  67.256  1.00  0.00    -0.203 C  
HETATM    2  O   UNL     1      -9.000  11.211  67.553  1.00  0.00    -0.138 OA 
ENDROOT
BRANCH   2   3
HETATM    3  C   UNL     1      -8.997   9.945  68.070  1.00  0.00    -0.121 A  
HETATM    4  C   UNL     1      -8.437   9.557  69.288  1.00  0.00    -0.139 A  
HETATM    5  C   UNL     1      -8.469   8.197  69.689  1.00  0.00    -0.126 A  
HETATM    6  C   UNL     1      -9.036   7.247  68.835  1.00  0.00    -0.133 A  
HETATM    7  N   UNL     1      -8.811   5.972  69.385  1.00  0.00    -0.120 N  
HETATM    8  C   UNL     1      -9.711   7.656  67.667  1.00  0.00    -0.189 A  
HETATM    9  C   UNL     1      -9.030   4.721  68.731  1.00  0.00    -0.106 C  
HETATM   10  C   UNL     1      -9.655   9.001  67.291  1.00  0.00    -0.206 A  
HETATM   11  C   UNL     1      -8.356   6.167  70.705  1.00  0.00    -0.126 A  
HETATM   12  O   UNL     1      -9.245   3.737  69.437  1.00  0.00    -0.125 OA 
HETATM   13  C   UNL     1      -8.100   7.523  70.890  1.00  0.00    -0.104 A  
HETATM   14  C   UNL     1      -8.149   5.079  71.708  1.00  0.00    -0.115 C  
BRANCH   9  15
HETATM   15  C   UNL     1      -9.036   4.481  67.260  1.00  0.00    -0.138 A  
HETATM   16  C   UNL     1      -7.860   4.429  66.502  1.00  0.00    -0.098 A  
HETATM   17  C   UNL     1      -9.168   4.155  64.484  1.00  0.00    -0.151 A  
HETATM   18 CL   UNL     1      -9.253   4.061  62.770  1.00  0.00    -0.111 Cl 
HETATM   19  C   UNL     1      -7.930   4.300  65.112  1.00  0.00    -0.097 A  
HETATM   20  C   UNL     1     -10.336   4.097  65.240  1.00  0.00    -0.184 A  
HETATM   21  C   UNL     1     -10.270   4.258  66.626  1.00  0.00    -0.029 A  
ENDBRANCH   9  15
BRANCH  13  22
HETATM   22  C   UNL     1      -7.637   8.167  72.167  1.00  0.00    -0.142 C  
BRANCH  22  23
HETATM   23  C   UNL     1      -8.718   8.418  73.188  1.00  0.00    -0.144 C  
HETATM   24  O   UNL     1      -8.554   8.358  74.404  1.00  0.00    -0.053 OA 
BRANCH  23  25
HETATM   25  O   UNL     1      -9.895   8.782  72.614  1.00  0.00    -0.199 OA 
BRANCH  25  26
HETATM   26  C   UNL     1     -11.007   7.964  72.971  1.00  0.00    -0.333 C  
HETATM   27  C   UNL     1     -12.148   7.940  71.957  1.00  0.00    -0.320 C  
HETATM   28  O   UNL     1     -11.929   7.124  70.898  1.00  0.00    -0.326 OA 
HETATM   29  O   UNL     1     -13.179   8.588  72.077  1.00  0.00    -0.338 OA 
ENDBRANCH  25  26
ENDBRANCH  23  25
ENDBRANCH  22  23
ENDBRANCH  13  22
ENDBRANCH   2   3
TORSDOF 6
ENDMDL
MODEL      146
REMARK 921   NORMALIZED FREE ENERGY PREDICTED BY IDOCK:   -3.53 KCAL/MOL
REMARK 922        TOTAL FREE ENERGY PREDICTED BY IDOCK:   -5.93 KCAL/MOL
REMARK 923 INTER-LIGAND FREE ENERGY PREDICTED BY IDOCK:   -5.16 KCAL/MOL
REMARK 924 INTRA-LIGAND FREE ENERGY PREDICTED BY IDOCK:   -0.77 KCAL/MOL
REMARK 927      BINDING AFFINITY PREDICTED BY RF-SCORE:    0.00 PKD
ROOT
HETATM    1  C   UNL     1     -11.715  10.124  69.806  1.00  0.00    -0.139 C  
HETATM    2  O   UNL     1     -10.479   9.641  69.296  1.00  0.00    -0.200 OA 
ENDROOT
BRANCH   2   3
HETATM    3  C   UNL     1     -10.309   8.285  69.251  1.00  0.00    -0.218 A  
HETATM    4  C   UNL     1     -10.056   7.452  70.342  1.00  0.00    -0.193 A  
HETATM    5  C   UNL     1      -9.861   6.061  70.151  1.00  0.00    -0.217 A  
HETATM    6  C   UNL     1      -9.889   5.540  68.854  1.00  0.00    -0.157 A  
HETATM    7  N   UNL     1      -9.523   4.183  68.917  1.00  0.00    -0.164 N  
HETATM    8  C   UNL     1     -10.267   6.357  67.769  1.00  0.00    -0.196 A  
HETATM    9  C   UNL     1      -9.213   3.341  67.806  1.00  0.00    -0.195 C  
HETATM   10  C   UNL     1     -10.445   7.727  67.986  1.00  0.00    -0.244 A  
HETATM   11  C   UNL     1      -9.544   3.814  70.277  1.00  0.00    -0.187 A  
HETATM   12  O   UNL     1      -9.372   2.129  67.946  1.00  0.00    -0.186 OA 
HETATM   13  C   UNL     1      -9.706   4.963  71.047  1.00  0.00    -0.252 A  
HETATM   14  C   UNL     1      -9.375   2.420  70.787  1.00  0.00    -0.210 C  
BRANCH   9  15
HETATM   15  C   UNL     1      -8.722   3.784  66.470  1.00  0.00    -0.118 A  
HETATM   16  C   UNL     1      -9.573   3.931  65.368  1.00  0.00    -0.185 A  
HETATM   17  C   UNL     1      -7.677   4.493  63.974  1.00  0.00    -0.077 A  
HETATM   18 CL   UNL     1      -7.022   4.826  62.420  1.00  0.00    -0.030 Cl 
HETATM   19  C   UNL     1      -9.044   4.253  64.114  1.00  0.00    -0.150 A  
HETATM   20  C   UNL     1      -6.838   4.454  65.085  1.00  0.00    -0.053 A  
HETATM   21  C   UNL     1      -7.361   4.101  66.332  1.00  0.00    -0.080 A  
ENDBRANCH   9  15
BRANCH  13  22
HETATM   22  C   UNL     1      -9.821   5.013  72.544  1.00  0.00    -0.200 C  
BRANCH  22  23
HETATM   23  C   UNL     1     -10.837   5.992  73.078  1.00  0.00    -0.260 C  
HETATM   24  O   UNL     1     -12.009   6.047  72.713  1.00  0.00    -0.131 OA 
BRANCH  23  25
HETATM   25  O   UNL     1     -10.327   6.778  74.062  1.00  0.00    -0.352 OA 
BRANCH  25  26
HETATM   26  C   UNL     1      -8.925   6.627  74.276  1.00  0.00    -0.173 C  
HETATM   27  C   UNL     1      -8.053   7.722  73.669  1.00  0.00    -0.178 C  
HETATM   28  O   UNL     1      -8.009   8.862  74.400  1.00  0.00    -0.335 OA 
HETATM   29  O   UNL     1      -7.436   7.598  72.619  1.00  0.00    -0.076 OA 
ENDBRANCH  25  26
ENDBRANCH  23  25
ENDBRANCH  22  23
ENDBRANCH  13  22
ENDBRANCH   2   3
TORSDOF 6
ENDMDL
MODEL      147
REMARK 921   NORMALIZED FREE ENERGY PREDICTED BY IDOCK:   -3.49 KCAL/MOL
REMARK 922        TOTAL FREE ENERGY PREDICTED BY IDOCK:   -5.87 KCAL/MOL
REMARK 923 INTER-LIGAND FREE ENERGY PREDICTED BY IDOCK:   -4.72 KCAL/MOL
REMARK 924 INTRA-LIGAND FREE ENERGY PREDICTED BY IDOCK:   -1.15 KCAL/MOL
REMARK 927      BINDING AFFINITY PREDICTED BY RF-SCORE:    0.00 PKD
ROOT
HETATM    1  C   UNL     1      -5.133  10.995  71.968  1.00  0.00     0.112 C  
HETATM    2  O   UNL     1      -5.623   9.702  72.300  1.00  0.00    -0.217 OA 
ENDROOT
BRANCH   2   3
HETATM    3  C   UNL     1      -6.453   9.097  71.397  1.00  0.00    -0.067 A  
HETATM    4  C   UNL     1      -7.096   9.722  70.327  1.00  0.00    -0.145 A  
HETATM    5  C   UNL     1      -7.966   8.984  69.485  1.00  0.00    -0.099 A  
HETATM    6  C   UNL     1      -8.199   7.633  69.761  1.00  0.00    -0.131 A  
HETATM    7  N   UNL     1      -9.200   7.173  68.886  1.00  0.00    -0.138 N  
HETATM    8  C   UNL     1      -7.455   6.975  70.761  1.00  0.00    -0.082 A  
HETATM    9  C   UNL     1      -9.887   5.923  68.975  1.00  0.00    -0.152 C  
HETATM   10  C   UNL     1      -6.611   7.730  71.582  1.00  0.00    -0.042 A  
HETATM   11  C   UNL     1      -9.373   8.165  67.900  1.00  0.00    -0.134 A  
HETATM   12  O   UNL     1     -10.362   5.458  67.940  1.00  0.00    -0.188 OA 
HETATM   13  C   UNL     1      -8.658   9.297  68.278  1.00  0.00    -0.125 A  
HETATM   14  C   UNL     1     -10.225   8.018  66.681  1.00  0.00    -0.315 C  
BRANCH   9  15
HETATM   15  C   UNL     1     -10.081   5.106  70.206  1.00  0.00    -0.338 A  
HETATM   16  C   UNL     1      -9.576   3.807  70.333  1.00  0.00    -0.262 A  
HETATM   17  C   UNL     1     -10.616   3.610  72.509  1.00  0.00    -0.011 A  
HETATM   18 CL   UNL     1     -11.032   2.655  73.876  1.00  0.00    -0.279 Cl 
HETATM   19  C   UNL     1      -9.872   3.049  71.470  1.00  0.00    -0.192 A  
HETATM   20  C   UNL     1     -11.032   4.937  72.439  1.00  0.00    -0.159 A  
HETATM   21  C   UNL     1     -10.763   5.685  71.289  1.00  0.00    -0.312 A  
ENDBRANCH   9  15
BRANCH  13  22
HETATM   22  C   UNL     1      -8.540  10.571  67.489  1.00  0.00    -0.121 C  
BRANCH  22  23
HETATM   23  C   UNL     1      -9.515  11.656  67.872  1.00  0.00    -0.181 C  
HETATM   24  O   UNL     1     -10.239  11.622  68.864  1.00  0.00    -0.198 OA 
BRANCH  23  25
HETATM   25  O   UNL     1      -9.463  12.717  67.024  1.00  0.00    -0.218 OA 
BRANCH  25  26
HETATM   26  C   UNL     1      -9.881  13.955  67.597  1.00  0.00    -0.236 C  
HETATM   27  C   UNL     1      -8.765  14.800  68.205  1.00  0.00    -0.170 C  
HETATM   28  O   UNL     1      -8.045  15.501  67.296  1.00  0.00    -0.164 OA 
HETATM   29  O   UNL     1      -8.531  14.857  69.404  1.00  0.00    -0.157 OA 
ENDBRANCH  25  26
ENDBRANCH  23  25
ENDBRANCH  22  23
ENDBRANCH  13  22
ENDBRANCH   2   3
TORSDOF 6
ENDMDL
MODEL      148
REMARK 921   NORMALIZED FREE ENERGY PREDICTED BY IDOCK:   -3.32 KCAL/MOL
REMARK 922        TOTAL FREE ENERGY PREDICTED BY IDOCK:   -5.64 KCAL/MOL
REMARK 923 INTER-LIGAND FREE ENERGY PREDICTED BY IDOCK:   -4.50 KCAL/MOL
REMARK 924 INTRA-LIGAND FREE ENERGY PREDICTED BY IDOCK:   -1.13 KCAL/MOL
REMARK 927      BINDING AFFINITY PREDICTED BY RF-SCORE:    0.00 PKD
ROOT
HETATM    1  C   UNL     1     -12.018   7.568  71.011  1.00  0.00    -0.290 C  
HETATM    2  O   UNL     1     -11.489   6.483  70.260  1.00  0.00    -0.359 OA 
ENDROOT
BRANCH   2   3
HETATM    3  C   UNL     1     -10.472   6.762  69.390  1.00  0.00    -0.217 A  
HETATM    4  C   UNL     1      -9.982   8.033  69.080  1.00  0.00    -0.188 A  
HETATM    5  C   UNL     1      -8.944   8.186  68.127  1.00  0.00    -0.135 A  
HETATM    6  C   UNL     1      -8.442   7.055  67.476  1.00  0.00    -0.122 A  
HETATM    7  N   UNL     1      -7.542   7.483  66.484  1.00  0.00    -0.087 N  
HETATM    8  C   UNL     1      -8.848   5.766  67.879  1.00  0.00    -0.108 A  
HETATM    9  C   UNL     1      -6.977   6.672  65.452  1.00  0.00    -0.056 C  
HETATM   10  C   UNL     1      -9.880   5.645  68.815  1.00  0.00    -0.193 A  
HETATM   11  C   UNL     1      -7.288   8.849  66.719  1.00  0.00    -0.082 A  
HETATM   12  O   UNL     1      -5.899   7.023  64.975  1.00  0.00    -0.035 OA 
HETATM   13  C   UNL     1      -8.172   9.304  67.693  1.00  0.00    -0.115 A  
HETATM   14  C   UNL     1      -6.264   9.665  65.998  1.00  0.00    -0.065 C  
BRANCH   9  15
HETATM   15  C   UNL     1      -7.560   5.419  64.892  1.00  0.00    -0.084 A  
HETATM   16  C   UNL     1      -8.844   5.370  64.338  1.00  0.00     0.060 A  
HETATM   17  C   UNL     1      -8.608   2.987  63.989  1.00  0.00    -0.089 A  
HETATM   18 CL   UNL     1      -9.290   1.478  63.531  1.00  0.00    -0.094 Cl 
HETATM   19  C   UNL     1      -9.379   4.149  63.917  1.00  0.00    -0.152 A  
HETATM   20  C   UNL     1      -7.291   3.044  64.439  1.00  0.00    -0.069 A  
HETATM   21  C   UNL     1      -6.767   4.259  64.889  1.00  0.00    -0.048 A  
ENDBRANCH   9  15
BRANCH  13  22
HETATM   22  C   UNL     1      -8.215  10.692  68.267  1.00  0.00    -0.120 C  
BRANCH  22  23
HETATM   23  C   UNL     1      -9.409  11.519  67.861  1.00  0.00    -0.171 C  
HETATM   24  O   UNL     1     -10.244  11.967  68.643  1.00  0.00    -0.214 OA 
BRANCH  23  25
HETATM   25  O   UNL     1      -9.432  11.769  66.525  1.00  0.00    -0.202 OA 
BRANCH  25  26
HETATM   26  C   UNL     1     -10.712  11.620  65.915  1.00  0.00    -0.278 C  
HETATM   27  C   UNL     1     -11.507  12.913  65.749  1.00  0.00    -0.337 C  
HETATM   28  O   UNL     1     -11.124  13.664  64.688  1.00  0.00    -0.347 OA 
HETATM   29  O   UNL     1     -12.416  13.253  66.493  1.00  0.00    -0.306 OA 
ENDBRANCH  25  26
ENDBRANCH  23  25
ENDBRANCH  22  23
ENDBRANCH  13  22
ENDBRANCH   2   3
TORSDOF 6
ENDMDL
MODEL      149
REMARK 921   NORMALIZED FREE ENERGY PREDICTED BY IDOCK:   -3.31 KCAL/MOL
REMARK 922        TOTAL FREE ENERGY PREDICTED BY IDOCK:   -5.62 KCAL/MOL
REMARK 923 INTER-LIGAND FREE ENERGY PREDICTED BY IDOCK:   -4.98 KCAL/MOL
REMARK 924 INTRA-LIGAND FREE ENERGY PREDICTED BY IDOCK:   -0.64 KCAL/MOL
REMARK 927      BINDING AFFINITY PREDICTED BY RF-SCORE:    0.00 PKD
ROOT
HETATM    1  C   UNL     1      -5.748  10.993  70.755  1.00  0.00    -0.095 C  
HETATM    2  O   UNL     1      -5.220  11.071  69.437  1.00  0.00    -0.041 OA 
ENDROOT
BRANCH   2   3
HETATM    3  C   UNL     1      -6.116  11.051  68.404  1.00  0.00    -0.042 A  
HETATM    4  C   UNL     1      -7.450  11.462  68.465  1.00  0.00    -0.113 A  
HETATM    5  C   UNL     1      -8.285  11.352  67.325  1.00  0.00    -0.150 A  
HETATM    6  C   UNL     1      -7.768  10.798  66.150  1.00  0.00    -0.149 A  
HETATM    7  N   UNL     1      -8.821  10.662  65.227  1.00  0.00    -0.186 N  
HETATM    8  C   UNL     1      -6.393  10.502  66.051  1.00  0.00    -0.124 A  
HETATM    9  C   UNL     1      -8.774   9.943  63.994  1.00  0.00    -0.212 C  
HETATM   10  C   UNL     1      -5.594  10.610  67.194  1.00  0.00    -0.043 A  
HETATM   11  C   UNL     1      -9.913  11.390  65.740  1.00  0.00    -0.230 A  
HETATM   12  O   UNL     1      -9.552  10.282  63.104  1.00  0.00    -0.305 OA 
HETATM   13  C   UNL     1      -9.616  11.780  67.043  1.00  0.00    -0.196 A  
HETATM   14  C   UNL     1     -11.189  11.648  65.005  1.00  0.00    -0.275 C  
BRANCH   9  15
HETATM   15  C   UNL     1      -7.859   8.813  63.663  1.00  0.00    -0.145 A  
HETATM   16  C   UNL     1      -6.855   8.919  62.693  1.00  0.00    -0.093 A  
HETATM   17  C   UNL     1      -6.281   6.592  63.027  1.00  0.00    -0.042 A  
HETATM   18 CL   UNL     1      -5.384   5.202  62.562  1.00  0.00    -0.013 Cl 
HETATM   19  C   UNL     1      -6.091   7.799  62.353  1.00  0.00    -0.069 A  
HETATM   20  C   UNL     1      -7.202   6.506  64.067  1.00  0.00    -0.067 A  
HETATM   21  C   UNL     1      -7.989   7.616  64.386  1.00  0.00    -0.123 A  
ENDBRANCH   9  15
BRANCH  13  22
HETATM   22  C   UNL     1     -10.492  12.610  67.938  1.00  0.00    -0.225 C  
BRANCH  22  23
HETATM   23  C   UNL     1     -10.660  14.049  67.518  1.00  0.00    -0.260 C  
HETATM   24  O   UNL     1      -9.834  14.685  66.868  1.00  0.00    -0.238 OA 
BRANCH  23  25
HETATM   25  O   UNL     1     -11.866  14.556  67.888  1.00  0.00    -0.348 OA 
BRANCH  25  26
HETATM   26  C   UNL     1     -11.799  15.590  68.868  1.00  0.00    -0.338 C  
HETATM   27  C   UNL     1     -10.970  15.261  70.106  1.00  0.00    -0.291 C  
HETATM   28  O   UNL     1      -9.633  15.389  69.926  1.00  0.00    -0.259 OA 
HETATM   29  O   UNL     1     -11.453  14.916  71.176  1.00  0.00    -0.309 OA 
ENDBRANCH  25  26
ENDBRANCH  23  25
ENDBRANCH  22  23
ENDBRANCH  13  22
ENDBRANCH   2   3
TORSDOF 6
ENDMDL
MODEL      150
REMARK 921   NORMALIZED FREE ENERGY PREDICTED BY IDOCK:   -3.09 KCAL/MOL
REMARK 922        TOTAL FREE ENERGY PREDICTED BY IDOCK:   -5.33 KCAL/MOL
REMARK 923 INTER-LIGAND FREE ENERGY PREDICTED BY IDOCK:   -4.35 KCAL/MOL
REMARK 924 INTRA-LIGAND FREE ENERGY PREDICTED BY IDOCK:   -0.98 KCAL/MOL
REMARK 927      BINDING AFFINITY PREDICTED BY RF-SCORE:    0.00 PKD
ROOT
HETATM    1  C   UNL     1      -6.580  15.096  68.387  1.00  0.00    -0.101 C  
HETATM    2  O   UNL     1      -5.713  13.992  68.611  1.00  0.00    -0.079 OA 
ENDROOT
BRANCH   2   3
HETATM    3  C   UNL     1      -6.197  12.747  68.315  1.00  0.00    -0.078 A  
HETATM    4  C   UNL     1      -6.936  12.403  67.181  1.00  0.00    -0.079 A  
HETATM    5  C   UNL     1      -7.414  11.078  67.014  1.00  0.00    -0.127 A  
HETATM    6  C   UNL     1      -7.166  10.132  68.014  1.00  0.00    -0.085 A  
HETATM    7  N   UNL     1      -7.862   8.954  67.687  1.00  0.00    -0.101 N  
HETATM    8  C   UNL     1      -6.316  10.447  69.094  1.00  0.00    -0.046 A  
HETATM    9  C   UNL     1      -8.059   7.827  68.541  1.00  0.00    -0.123 C  
HETATM   10  C   UNL     1      -5.867  11.764  69.238  1.00  0.00    -0.070 A  
HETATM   11  C   UNL     1      -8.303   9.093  66.355  1.00  0.00    -0.122 A  
HETATM   12  O   UNL     1      -8.252   6.734  68.009  1.00  0.00    -0.113 OA 
HETATM   13  C   UNL     1      -8.075  10.404  65.946  1.00  0.00    -0.149 A  
HETATM   14  C   UNL     1      -8.947   8.011  65.551  1.00  0.00    -0.046 C  
BRANCH   9  15
HETATM   15  C   UNL     1      -8.042   7.832  70.031  1.00  0.00    -0.118 A  
HETATM   16  C   UNL     1      -7.043   7.192  70.774  1.00  0.00    -0.066 A  
HETATM   17  C   UNL     1      -8.178   7.791  72.826  1.00  0.00    -0.126 A  
HETATM   18 CL   UNL     1      -8.316   7.676  74.535  1.00  0.00    -0.254 Cl 
HETATM   19  C   UNL     1      -7.130   7.144  72.168  1.00  0.00    -0.068 A  
HETATM   20  C   UNL     1      -9.117   8.522  72.102  1.00  0.00    -0.319 A  
HETATM   21  C   UNL     1      -9.049   8.543  70.706  1.00  0.00    -0.196 A  
ENDBRANCH   9  15
BRANCH  13  22
HETATM   22  C   UNL     1      -8.361  10.965  64.582  1.00  0.00     0.119 C  
BRANCH  22  23
HETATM   23  C   UNL     1      -9.817  11.231  64.289  1.00  0.00    -0.273 C  
HETATM   24  O   UNL     1     -10.740  10.493  64.625  1.00  0.00    -0.155 OA 
BRANCH  23  25
HETATM   25  O   UNL     1     -10.007  12.420  63.658  1.00  0.00    -0.361 OA 
BRANCH  25  26
HETATM   26  C   UNL     1     -11.009  13.249  64.243  1.00  0.00    -0.395 C  
HETATM   27  C   UNL     1     -10.517  14.185  65.344  1.00  0.00    -0.357 C  
HETATM   28  O   UNL     1      -9.905  15.304  64.885  1.00  0.00    -0.184 OA 
HETATM   29  O   UNL     1     -10.660  13.964  66.539  1.00  0.00    -0.276 OA 
ENDBRANCH  25  26
ENDBRANCH  23  25
ENDBRANCH  22  23
ENDBRANCH  13  22
ENDBRANCH   2   3
TORSDOF 6
ENDMDL
MODEL      151
REMARK 921   NORMALIZED FREE ENERGY PREDICTED BY IDOCK:   -2.96 KCAL/MOL
REMARK 922        TOTAL FREE ENERGY PREDICTED BY IDOCK:   -5.15 KCAL/MOL
REMARK 923 INTER-LIGAND FREE ENERGY PREDICTED BY IDOCK:   -4.09 KCAL/MOL
REMARK 924 INTRA-LIGAND FREE ENERGY PREDICTED BY IDOCK:   -1.06 KCAL/MOL
REMARK 927      BINDING AFFINITY PREDICTED BY RF-SCORE:    0.00 PKD
ROOT
HETATM    1  C   UNL     1     -11.645  15.997  66.262  1.00  0.00     0.629 C  
HETATM    2  O   UNL     1     -11.809  14.880  67.126  1.00  0.00    -0.338 OA 
ENDROOT
BRANCH   2   3
HETATM    3  C   UNL     1     -10.686  14.167  67.446  1.00  0.00    -0.284 A  
HETATM    4  C   UNL     1      -9.568  14.657  68.124  1.00  0.00    -0.213 A  
HETATM    5  C   UNL     1      -8.449  13.818  68.359  1.00  0.00    -0.154 A  
HETATM    6  C   UNL     1      -8.465  12.508  67.872  1.00  0.00    -0.171 A  
HETATM    7  N   UNL     1      -7.198  11.940  68.098  1.00  0.00    -0.078 N  
HETATM    8  C   UNL     1      -9.639  11.977  67.300  1.00  0.00    -0.185 A  
HETATM    9  C   UNL     1      -6.720  10.705  67.563  1.00  0.00    -0.070 C  
HETATM   10  C   UNL     1     -10.724  12.830  67.072  1.00  0.00    -0.272 A  
HETATM   11  C   UNL     1      -6.507  12.808  68.969  1.00  0.00    -0.096 A  
HETATM   12  O   UNL     1      -5.835  10.117  68.184  1.00  0.00    -0.042 OA 
HETATM   13  C   UNL     1      -7.243  13.982  69.101  1.00  0.00    -0.059 A  
HETATM   14  C   UNL     1      -5.184  12.512  69.598  1.00  0.00    -0.075 C  
BRANCH   9  15
HETATM   15  C   UNL     1      -7.195  10.037  66.318  1.00  0.00    -0.106 A  
HETATM   16  C   UNL     1      -7.821   8.785  66.330  1.00  0.00    -0.102 A  
HETATM   17  C   UNL     1      -7.932   8.813  63.912  1.00  0.00    -0.157 A  
HETATM   18 CL   UNL     1      -8.288   8.016  62.432  1.00  0.00    -0.156 Cl 
HETATM   19  C   UNL     1      -8.158   8.160  65.125  1.00  0.00    -0.139 A  
HETATM   20  C   UNL     1      -7.409  10.104  63.896  1.00  0.00    -0.111 A  
HETATM   21  C   UNL     1      -7.042  10.716  65.098  1.00  0.00     0.064 A  
ENDBRANCH   9  15
BRANCH  13  22
HETATM   22  C   UNL     1      -6.885  15.155  69.970  1.00  0.00    -0.109 C  
BRANCH  22  23
HETATM   23  C   UNL     1      -6.044  16.215  69.303  1.00  0.00    -0.146 C  
HETATM   24  O   UNL     1      -5.179  16.877  69.873  1.00  0.00    -0.155 OA 
BRANCH  23  25
HETATM   25  O   UNL     1      -6.305  16.319  67.974  1.00  0.00    -0.119 OA 
BRANCH  25  26
HETATM   26  C   UNL     1      -6.966  17.524  67.592  1.00  0.00    -0.167 C  
HETATM   27  C   UNL     1      -7.463  17.563  66.149  1.00  0.00    -0.299 C  
HETATM   28  O   UNL     1      -8.626  16.898  65.947  1.00  0.00    -0.514 OA 
HETATM   29  O   UNL     1      -6.879  18.144  65.245  1.00  0.00    -0.465 OA 
ENDBRANCH  25  26
ENDBRANCH  23  25
ENDBRANCH  22  23
ENDBRANCH  13  22
ENDBRANCH   2   3
TORSDOF 6
ENDMDL
MODEL      152
REMARK 921   NORMALIZED FREE ENERGY PREDICTED BY IDOCK:   -2.92 KCAL/MOL
REMARK 922        TOTAL FREE ENERGY PREDICTED BY IDOCK:   -5.10 KCAL/MOL
REMARK 923 INTER-LIGAND FREE ENERGY PREDICTED BY IDOCK:   -4.05 KCAL/MOL
REMARK 924 INTRA-LIGAND FREE ENERGY PREDICTED BY IDOCK:   -1.05 KCAL/MOL
REMARK 927      BINDING AFFINITY PREDICTED BY RF-SCORE:    0.00 PKD
ROOT
HETATM    1  C   UNL     1     -12.331  12.760  64.910  1.00  0.00    -0.490 C  
HETATM    2  O   UNL     1     -11.678  11.547  64.560  1.00  0.00    -0.170 OA 
ENDROOT
BRANCH   2   3
HETATM    3  C   UNL     1     -10.548  11.222  65.258  1.00  0.00    -0.261 A  
HETATM    4  C   UNL     1      -9.619  12.123  65.782  1.00  0.00    -0.209 A  
HETATM    5  C   UNL     1      -8.464  11.650  66.454  1.00  0.00    -0.114 A  
HETATM    6  C   UNL     1      -8.249  10.273  66.555  1.00  0.00    -0.127 A  
HETATM    7  N   UNL     1      -6.978  10.067  67.123  1.00  0.00    -0.083 N  
HETATM    8  C   UNL     1      -9.245   9.367  66.138  1.00  0.00    -0.241 A  
HETATM    9  C   UNL     1      -6.281   8.823  67.199  1.00  0.00    -0.059 C  
HETATM   10  C   UNL     1     -10.370   9.861  65.470  1.00  0.00    -0.060 A  
HETATM   11  C   UNL     1      -6.544  11.311  67.621  1.00  0.00    -0.072 A  
HETATM   12  O   UNL     1      -5.447   8.688  68.093  1.00  0.00    -0.034 OA 
HETATM   13  C   UNL     1      -7.421  12.298  67.180  1.00  0.00    -0.113 A  
HETATM   14  C   UNL     1      -5.315  11.519  68.447  1.00  0.00    -0.042 C  
BRANCH   9  15
HETATM   15  C   UNL     1      -6.467   7.647  66.301  1.00  0.00    -0.049 A  
HETATM   16  C   UNL     1      -6.078   7.660  64.956  1.00  0.00    -0.038 A  
HETATM   17  C   UNL     1      -6.983   5.434  64.669  1.00  0.00    -0.049 A  
HETATM   18 CL   UNL     1      -7.393   4.118  63.643  1.00  0.00    -0.050 Cl 
HETATM   19  C   UNL     1      -6.366   6.566  64.135  1.00  0.00    -0.037 A  
HETATM   20  C   UNL     1      -7.277   5.369  66.029  1.00  0.00    -0.076 A  
HETATM   21  C   UNL     1      -7.018   6.474  66.844  1.00  0.00    -0.067 A  
ENDBRANCH   9  15
BRANCH  13  22
HETATM   22  C   UNL     1      -7.347  13.760  67.517  1.00  0.00    -0.176 C  
BRANCH  22  23
HETATM   23  C   UNL     1      -8.466  14.277  68.385  1.00  0.00    -0.166 C  
HETATM   24  O   UNL     1      -9.091  13.595  69.195  1.00  0.00     0.233 OA 
BRANCH  23  25
HETATM   25  O   UNL     1      -8.674  15.610  68.219  1.00  0.00    -0.168 OA 
BRANCH  25  26
HETATM   26  C   UNL     1     -10.044  15.988  68.105  1.00  0.00    -0.234 C  
HETATM   27  C   UNL     1     -10.301  17.276  67.328  1.00  0.00    -0.331 C  
HETATM   28  O   UNL     1     -10.263  17.127  65.982  1.00  0.00    -0.380 OA 
HETATM   29  O   UNL     1     -10.529  18.356  67.857  1.00  0.00    -0.388 OA 
ENDBRANCH  25  26
ENDBRANCH  23  25
ENDBRANCH  22  23
ENDBRANCH  13  22
ENDBRANCH   2   3
TORSDOF 6
ENDMDL
MODEL      153
REMARK 921   NORMALIZED FREE ENERGY PREDICTED BY IDOCK:   -2.86 KCAL/MOL
REMARK 922        TOTAL FREE ENERGY PREDICTED BY IDOCK:   -5.02 KCAL/MOL
REMARK 923 INTER-LIGAND FREE ENERGY PREDICTED BY IDOCK:   -4.18 KCAL/MOL
REMARK 924 INTRA-LIGAND FREE ENERGY PREDICTED BY IDOCK:   -0.84 KCAL/MOL
REMARK 927      BINDING AFFINITY PREDICTED BY RF-SCORE:    0.00 PKD
ROOT
HETATM    1  C   UNL     1      -5.136   9.708  73.448  1.00  0.00    -0.073 C  
HETATM    2  O   UNL     1      -5.767   8.466  73.734  1.00  0.00    -0.084 OA 
ENDROOT
BRANCH   2   3
HETATM    3  C   UNL     1      -6.410   7.839  72.702  1.00  0.00    -0.063 A  
HETATM    4  C   UNL     1      -6.829   8.437  71.512  1.00  0.00    -0.073 A  
HETATM    5  C   UNL     1      -7.522   7.678  70.535  1.00  0.00    -0.079 A  
HETATM    6  C   UNL     1      -7.811   6.335  70.793  1.00  0.00    -0.106 A  
HETATM    7  N   UNL     1      -8.625   5.853  69.752  1.00  0.00    -0.127 N  
HETATM    8  C   UNL     1      -7.279   5.702  71.935  1.00  0.00    -0.091 A  
HETATM    9  C   UNL     1      -9.322   4.606  69.736  1.00  0.00    -0.145 C  
HETATM   10  C   UNL     1      -6.607   6.477  72.886  1.00  0.00    -0.068 A  
HETATM   11  C   UNL     1      -8.598   6.820  68.727  1.00  0.00    -0.123 A  
HETATM   12  O   UNL     1      -9.589   4.115  68.640  1.00  0.00    -0.157 OA 
HETATM   13  C   UNL     1      -7.964   7.961  69.209  1.00  0.00    -0.117 A  
HETATM   14  C   UNL     1      -9.197   6.643  67.370  1.00  0.00    -0.124 C  
BRANCH   9  15
HETATM   15  C   UNL     1      -9.757   3.820  70.926  1.00  0.00    -0.248 A  
HETATM   16  C   UNL     1      -9.533   2.442  71.038  1.00  0.00    -0.219 A  
HETATM   17  C   UNL     1     -10.730   2.416  73.141  1.00  0.00    -0.163 A  
HETATM   18 CL   UNL     1     -11.417   1.537  74.449  1.00  0.00    -0.050 Cl 
HETATM   19  C   UNL     1     -10.049   1.737  72.129  1.00  0.00    -0.227 A  
HETATM   20  C   UNL     1     -10.863   3.801  73.092  1.00  0.00    -0.257 A  
HETATM   21  C   UNL     1     -10.376   4.503  71.986  1.00  0.00    -0.216 A  
ENDBRANCH   9  15
BRANCH  13  22
HETATM   22  C   UNL     1      -7.688   9.215  68.428  1.00  0.00    -0.094 C  
BRANCH  22  23
HETATM   23  C   UNL     1      -8.251  10.481  69.024  1.00  0.00    -0.145 C  
HETATM   24  O   UNL     1      -7.675  11.172  69.861  1.00  0.00     0.225 OA 
BRANCH  23  25
HETATM   25  O   UNL     1      -9.454  10.813  68.486  1.00  0.00    -0.165 OA 
BRANCH  25  26
HETATM   26  C   UNL     1     -10.537   9.977  68.891  1.00  0.00    -0.218 C  
HETATM   27  C   UNL     1     -11.005  10.171  70.331  1.00  0.00    -0.319 C  
HETATM   28  O   UNL     1     -11.810  11.246  70.510  1.00  0.00    -0.338 OA 
HETATM   29  O   UNL     1     -10.695   9.428  71.252  1.00  0.00    -0.316 OA 
ENDBRANCH  25  26
ENDBRANCH  23  25
ENDBRANCH  22  23
ENDBRANCH  13  22
ENDBRANCH   2   3
TORSDOF 6
ENDMDL
MODEL      154
REMARK 921   NORMALIZED FREE ENERGY PREDICTED BY IDOCK:   -2.73 KCAL/MOL
REMARK 922        TOTAL FREE ENERGY PREDICTED BY IDOCK:   -4.84 KCAL/MOL
REMARK 923 INTER-LIGAND FREE ENERGY PREDICTED BY IDOCK:   -4.32 KCAL/MOL
REMARK 924 INTRA-LIGAND FREE ENERGY PREDICTED BY IDOCK:   -0.52 KCAL/MOL
REMARK 927      BINDING AFFINITY PREDICTED BY RF-SCORE:    0.00 PKD
ROOT
HETATM    1  C   UNL     1     -14.083   8.157  71.810  1.00  0.00    -0.439 C  
HETATM    2  O   UNL     1     -13.183   7.067  71.657  1.00  0.00    -0.374 OA 
ENDROOT
BRANCH   2   3
HETATM    3  C   UNL     1     -12.033   7.300  70.953  1.00  0.00    -0.305 A  
HETATM    4  C   UNL     1     -11.534   8.552  70.588  1.00  0.00    -0.249 A  
HETATM    5  C   UNL     1     -10.345   8.652  69.821  1.00  0.00    -0.212 A  
HETATM    6  C   UNL     1      -9.700   7.483  69.408  1.00  0.00    -0.164 A  
HETATM    7  N   UNL     1      -8.647   7.844  68.547  1.00  0.00    -0.128 N  
HETATM    8  C   UNL     1     -10.132   6.228  69.882  1.00  0.00    -0.216 A  
HETATM    9  C   UNL     1      -7.880   6.954  67.734  1.00  0.00    -0.113 C  
HETATM   10  C   UNL     1     -11.313   6.158  70.628  1.00  0.00    -0.368 A  
HETATM   11  C   UNL     1      -8.482   9.238  68.661  1.00  0.00    -0.123 A  
HETATM   12  O   UNL     1      -6.745   7.304  67.417  1.00  0.00    -0.063 OA 
HETATM   13  C   UNL     1      -9.542   9.753  69.403  1.00  0.00    -0.218 A  
HETATM   14  C   UNL     1      -7.369  10.021  68.042  1.00  0.00    -0.087 C  
BRANCH   9  15
HETATM   15  C   UNL     1      -8.313   5.619  67.232  1.00  0.00    -0.100 A  
HETATM   16  C   UNL     1      -9.410   5.458  66.377  1.00  0.00    -0.157 A  
HETATM   17  C   UNL     1      -9.122   3.056  66.453  1.00  0.00    -0.146 A  
HETATM   18 CL   UNL     1      -9.681   1.479  66.059  1.00  0.00     0.408 Cl 
HETATM   19  C   UNL     1      -9.832   4.175  66.016  1.00  0.00    -0.206 A  
HETATM   20  C   UNL     1      -7.966   3.211  67.215  1.00  0.00    -0.078 A  
HETATM   21  C   UNL     1      -7.562   4.491  67.603  1.00  0.00    -0.078 A  
ENDBRANCH   9  15
BRANCH  13  22
HETATM   22  C   UNL     1      -9.730  11.191  69.793  1.00  0.00     0.677 C  
BRANCH  22  23
HETATM   23  C   UNL     1     -11.093  11.764  69.496  1.00  0.00    -0.133 C  
HETATM   24  O   UNL     1     -12.092  11.577  70.186  1.00  0.00    -0.325 OA 
BRANCH  23  25
HETATM   25  O   UNL     1     -11.085  12.571  68.402  1.00  0.00    -0.228 OA 
BRANCH  25  26
HETATM   26  C   UNL     1      -9.930  12.440  67.576  1.00  0.00    -0.196 C  
HETATM   27  C   UNL     1      -9.440  13.734  66.932  1.00  0.00    -0.262 C  
HETATM   28  O   UNL     1      -8.718  14.526  67.761  1.00  0.00    -0.160 OA 
HETATM   29  O   UNL     1      -9.665  14.042  65.770  1.00  0.00    -0.275 OA 
ENDBRANCH  25  26
ENDBRANCH  23  25
ENDBRANCH  22  23
ENDBRANCH  13  22
ENDBRANCH   2   3
TORSDOF 6
ENDMDL
MODEL      155
REMARK 921   NORMALIZED FREE ENERGY PREDICTED BY IDOCK:   -2.65 KCAL/MOL
REMARK 922        TOTAL FREE ENERGY PREDICTED BY IDOCK:   -4.73 KCAL/MOL
REMARK 923 INTER-LIGAND FREE ENERGY PREDICTED BY IDOCK:   -3.54 KCAL/MOL
REMARK 924 INTRA-LIGAND FREE ENERGY PREDICTED BY IDOCK:   -1.19 KCAL/MOL
REMARK 927      BINDING AFFINITY PREDICTED BY RF-SCORE:    0.00 PKD
ROOT
HETATM    1  C   UNL     1     -11.812   7.075  71.515  1.00  0.00    -0.314 C  
HETATM    2  O   UNL     1     -11.489   5.871  70.830  1.00  0.00    -0.234 OA 
ENDROOT
BRANCH   2   3
HETATM    3  C   UNL     1     -10.410   5.901  69.990  1.00  0.00    -0.244 A  
HETATM    4  C   UNL     1      -9.477   6.934  69.889  1.00  0.00    -0.156 A  
HETATM    5  C   UNL     1      -8.422   6.856  68.944  1.00  0.00    -0.125 A  
HETATM    6  C   UNL     1      -8.350   5.749  68.092  1.00  0.00    -0.107 A  
HETATM    7  N   UNL     1      -7.321   5.978  67.161  1.00  0.00    -0.075 N  
HETATM    8  C   UNL     1      -9.215   4.652  68.280  1.00  0.00    -0.166 A  
HETATM    9  C   UNL     1      -7.059   5.206  65.988  1.00  0.00    -0.072 C  
HETATM   10  C   UNL     1     -10.252   4.761  69.213  1.00  0.00    -0.144 A  
HETATM   11  C   UNL     1      -6.590   7.092  67.620  1.00  0.00    -0.055 A  
HETATM   12  O   UNL     1      -5.912   5.212  65.544  1.00  0.00    -0.024 OA 
HETATM   13  C   UNL     1      -7.278   7.667  68.685  1.00  0.00    -0.082 A  
HETATM   14  C   UNL     1      -5.313   7.584  67.019  1.00  0.00    -0.026 C  
BRANCH   9  15
HETATM   15  C   UNL     1      -8.042   4.373  65.239  1.00  0.00    -0.102 A  
HETATM   16  C   UNL     1      -9.110   4.930  64.525  1.00  0.00    -0.057 A  
HETATM   17  C   UNL     1      -9.906   2.712  63.976  1.00  0.00    -0.145 A  
HETATM   18 CL   UNL     1     -11.108   1.692  63.291  1.00  0.00    -0.217 Cl 
HETATM   19  C   UNL     1     -10.059   4.098  63.923  1.00  0.00    -0.089 A  
HETATM   20  C   UNL     1      -8.791   2.150  64.592  1.00  0.00    -0.115 A  
HETATM   21  C   UNL     1      -7.859   2.980  65.221  1.00  0.00    -0.082 A  
ENDBRANCH   9  15
BRANCH  13  22
HETATM   22  C   UNL     1      -6.827   8.852  69.492  1.00  0.00    -0.048 C  
BRANCH  22  23
HETATM   23  C   UNL     1      -7.380  10.181  69.043  1.00  0.00    -0.087 C  
HETATM   24  O   UNL     1      -8.166  10.329  68.111  1.00  0.00    -0.111 OA 
BRANCH  23  25
HETATM   25  O   UNL     1      -6.958  11.206  69.830  1.00  0.00    -0.118 OA 
BRANCH  25  26
HETATM   26  C   UNL     1      -5.766  11.847  69.382  1.00  0.00    -0.073 C  
HETATM   27  C   UNL     1      -5.976  13.015  68.422  1.00  0.00    -0.077 C  
HETATM   28  O   UNL     1      -6.331  14.173  69.031  1.00  0.00    -0.088 OA 
HETATM   29  O   UNL     1      -5.836  12.933  67.210  1.00  0.00    -0.308 OA 
ENDBRANCH  25  26
ENDBRANCH  23  25
ENDBRANCH  22  23
ENDBRANCH  13  22
ENDBRANCH   2   3
TORSDOF 6
ENDMDL
MODEL      156
REMARK 921   NORMALIZED FREE ENERGY PREDICTED BY IDOCK:   -2.26 KCAL/MOL
REMARK 922        TOTAL FREE ENERGY PREDICTED BY IDOCK:   -4.21 KCAL/MOL
REMARK 923 INTER-LIGAND FREE ENERGY PREDICTED BY IDOCK:   -4.07 KCAL/MOL
REMARK 924 INTRA-LIGAND FREE ENERGY PREDICTED BY IDOCK:   -0.14 KCAL/MOL
REMARK 927      BINDING AFFINITY PREDICTED BY RF-SCORE:    0.00 PKD
ROOT
HETATM    1  C   UNL     1     -10.823  10.593  63.389  1.00  0.00     0.663 C  
HETATM    2  O   UNL     1     -11.419  10.985  64.619  1.00  0.00     0.083 OA 
ENDROOT
BRANCH   2   3
HETATM    3  C   UNL     1     -10.656  11.734  65.472  1.00  0.00    -0.276 A  
HETATM    4  C   UNL     1      -9.316  11.504  65.792  1.00  0.00    -0.238 A  
HETATM    5  C   UNL     1      -8.650  12.338  66.726  1.00  0.00    -0.149 A  
HETATM    6  C   UNL     1      -9.360  13.370  67.346  1.00  0.00    -0.221 A  
HETATM    7  N   UNL     1      -8.531  13.946  68.326  1.00  0.00    -0.164 N  
HETATM    8  C   UNL     1     -10.671  13.680  66.931  1.00  0.00    -0.275 A  
HETATM    9  C   UNL     1      -8.935  14.876  69.332  1.00  0.00    -0.041 C  
HETATM   10  C   UNL     1     -11.306  12.835  66.015  1.00  0.00    -0.363 A  
HETATM   11  C   UNL     1      -7.230  13.449  68.108  1.00  0.00    -0.113 A  
HETATM   12  O   UNL     1      -8.078  15.629  69.792  1.00  0.00    -0.159 OA 
HETATM   13  C   UNL     1      -7.296  12.431  67.162  1.00  0.00    -0.081 A  
HETATM   14  C   UNL     1      -6.004  13.922  68.821  1.00  0.00    -0.085 C  
BRANCH   9  15
HETATM   15  C   UNL     1     -10.311  15.042  69.883  1.00  0.00    -0.141 A  
HETATM   16  C   UNL     1     -10.739  16.228  70.490  1.00  0.00    -0.019 A  
HETATM   17  C   UNL     1     -12.870  15.202  71.001  1.00  0.00    -0.412 A  
HETATM   18 CL   UNL     1     -14.401  15.266  71.779  1.00  0.00    -0.650 Cl 
HETATM   19  C   UNL     1     -12.006  16.296  71.077  1.00  0.00    -0.157 A  
HETATM   20  C   UNL     1     -12.494  14.056  70.306  1.00  0.00    -0.403 A  
HETATM   21  C   UNL     1     -11.216  13.976  69.746  1.00  0.00    -0.175 A  
ENDBRANCH   9  15
BRANCH  13  22
HETATM   22  C   UNL     1      -6.129  11.660  66.612  1.00  0.00    -0.094 C  
BRANCH  22  23
HETATM   23  C   UNL     1      -6.075  10.206  67.010  1.00  0.00    -0.055 C  
HETATM   24  O   UNL     1      -5.424   9.768  67.955  1.00  0.00    -0.040 OA 
BRANCH  23  25
HETATM   25  O   UNL     1      -6.881   9.431  66.238  1.00  0.00    -0.083 OA 
BRANCH  25  26
HETATM   26  C   UNL     1      -6.300   9.017  65.002  1.00  0.00    -0.065 C  
HETATM   27  C   UNL     1      -7.202   9.163  63.779  1.00  0.00    -0.096 C  
HETATM   28  O   UNL     1      -7.268  10.424  63.289  1.00  0.00    -0.123 OA 
HETATM   29  O   UNL     1      -7.812   8.234  63.270  1.00  0.00    -0.135 OA 
ENDBRANCH  25  26
ENDBRANCH  23  25
ENDBRANCH  22  23
ENDBRANCH  13  22
ENDBRANCH   2   3
TORSDOF 6
ENDMDL
MODEL      157
REMARK 921   NORMALIZED FREE ENERGY PREDICTED BY IDOCK:   -1.34 KCAL/MOL
REMARK 922        TOTAL FREE ENERGY PREDICTED BY IDOCK:   -2.96 KCAL/MOL
REMARK 923 INTER-LIGAND FREE ENERGY PREDICTED BY IDOCK:   -3.11 KCAL/MOL
REMARK 924 INTRA-LIGAND FREE ENERGY PREDICTED BY IDOCK:    0.15 KCAL/MOL
REMARK 927      BINDING AFFINITY PREDICTED BY RF-SCORE:    0.00 PKD
ROOT
HETATM    1  C   UNL     1      -8.818  10.936  64.714  1.00  0.00    -0.100 C  
HETATM    2  O   UNL     1      -9.472  10.663  65.947  1.00  0.00    -0.180 OA 
ENDROOT
BRANCH   2   3
HETATM    3  C   UNL     1      -8.717  10.742  67.085  1.00  0.00    -0.131 A  
HETATM    4  C   UNL     1      -8.046  11.876  67.548  1.00  0.00    -0.156 A  
HETATM    5  C   UNL     1      -7.263  11.811  68.728  1.00  0.00    -0.113 A  
HETATM    6  C   UNL     1      -7.143  10.592  69.402  1.00  0.00    -0.110 A  
HETATM    7  N   UNL     1      -6.206  10.753  70.438  1.00  0.00    -0.141 N  
HETATM    8  C   UNL     1      -7.919   9.483  69.006  1.00  0.00    -0.092 A  
HETATM    9  C   UNL     1      -5.628   9.708  71.222  1.00  0.00    -0.074 C  
HETATM   10  C   UNL     1      -8.675   9.572  67.833  1.00  0.00    -0.119 A  
HETATM   11  C   UNL     1      -5.968  12.136  70.567  1.00  0.00    -0.042 A  
HETATM   12  O   UNL     1      -5.219   9.996  72.346  1.00  0.00    -0.207 OA 
HETATM   13  C   UNL     1      -6.574  12.793  69.499  1.00  0.00    -0.031 A  
HETATM   14  C   UNL     1      -5.159  12.767  71.654  1.00  0.00    -0.118 C  
BRANCH   9  15
HETATM   15  C   UNL     1      -5.478   8.280  70.821  1.00  0.00    -0.028 A  
HETATM   16  C   UNL     1      -5.163   7.897  69.512  1.00  0.00    -0.023 A  
HETATM   17  C   UNL     1      -5.348   5.568  70.145  1.00  0.00    -0.004 A  
HETATM   18 CL   UNL     1      -5.372   3.907  69.706  1.00  0.00    -0.008 Cl 
HETATM   19  C   UNL     1      -5.132   6.542  69.168  1.00  0.00    -0.012 A  
HETATM   20  C   UNL     1      -5.555   5.937  71.471  1.00  0.00    -0.022 A  
HETATM   21  C   UNL     1      -5.619   7.292  71.810  1.00  0.00    -0.036 A  
ENDBRANCH   9  15
BRANCH  13  22
HETATM   22  C   UNL     1      -6.598  14.278  69.276  1.00  0.00    -0.120 C  
BRANCH  22  23
HETATM   23  C   UNL     1      -6.872  14.710  67.857  1.00  0.00    -0.163 C  
HETATM   24  O   UNL     1      -6.006  14.884  67.003  1.00  0.00    -0.085 OA 
BRANCH  23  25
HETATM   25  O   UNL     1      -8.202  14.827  67.602  1.00  0.00    -0.150 OA 
BRANCH  25  26
HETATM   26  C   UNL     1      -8.706  16.159  67.683  1.00  0.00    -0.177 C  
HETATM   27  C   UNL     1     -10.212  16.273  67.902  1.00  0.00    -0.261 C  
HETATM   28  O   UNL     1     -10.599  16.082  69.186  1.00  0.00    -0.225 OA 
HETATM   29  O   UNL     1     -11.012  16.519  67.010  1.00  0.00    -0.177 OA 
ENDBRANCH  25  26
ENDBRANCH  23  25
ENDBRANCH  22  23
ENDBRANCH  13  22
ENDBRANCH   2   3
TORSDOF 6
ENDMDL
MODEL      158
REMARK 921   NORMALIZED FREE ENERGY PREDICTED BY IDOCK:   -1.33 KCAL/MOL
REMARK 922        TOTAL FREE ENERGY PREDICTED BY IDOCK:   -2.95 KCAL/MOL
REMARK 923 INTER-LIGAND FREE ENERGY PREDICTED BY IDOCK:   -2.11 KCAL/MOL
REMARK 924 INTRA-LIGAND FREE ENERGY PREDICTED BY IDOCK:   -0.84 KCAL/MOL
REMARK 927      BINDING AFFINITY PREDICTED BY RF-SCORE:    0.00 PKD
ROOT
HETATM    1  C   UNL     1     -11.720  16.816  66.149  1.00  0.00     1.647 C  
HETATM    2  O   UNL     1     -11.838  15.923  67.249  1.00  0.00     0.224 OA 
ENDROOT
BRANCH   2   3
HETATM    3  C   UNL     1     -10.678  15.429  67.779  1.00  0.00    -0.289 A  
HETATM    4  C   UNL     1      -9.610  16.186  68.265  1.00  0.00    -0.216 A  
HETATM    5  C   UNL     1      -8.443  15.546  68.755  1.00  0.00    -0.190 A  
HETATM    6  C   UNL     1      -8.362  14.151  68.714  1.00  0.00    -0.069 A  
HETATM    7  N   UNL     1      -7.066  13.774  69.110  1.00  0.00    -0.089 N  
HETATM    8  C   UNL     1      -9.487  13.385  68.342  1.00  0.00    -0.176 A  
HETATM    9  C   UNL     1      -6.497  12.469  68.998  1.00  0.00    -0.097 C  
HETATM   10  C   UNL     1     -10.620  14.043  67.854  1.00  0.00    -0.246 A  
HETATM   11  C   UNL     1      -6.454  14.919  69.656  1.00  0.00    -0.154 A  
HETATM   12  O   UNL     1      -5.589  12.173  69.774  1.00  0.00    -0.080 OA 
HETATM   13  C   UNL     1      -7.267  16.021  69.406  1.00  0.00    -0.213 A  
HETATM   14  C   UNL     1      -5.128  14.933  70.347  1.00  0.00    -0.111 C  
BRANCH   9  15
HETATM   15  C   UNL     1      -6.900  11.407  68.032  1.00  0.00    -0.067 A  
HETATM   16  C   UNL     1      -6.414  11.361  66.720  1.00  0.00    -0.140 A  
HETATM   17  C   UNL     1      -7.822   9.447  66.261  1.00  0.00    -0.100 A  
HETATM   18 CL   UNL     1      -8.466   8.310  65.145  1.00  0.00    -0.178 Cl 
HETATM   19  C   UNL     1      -6.901  10.401  65.827  1.00  0.00    -0.132 A  
HETATM   20  C   UNL     1      -8.230   9.418  67.593  1.00  0.00    -0.114 A  
HETATM   21  C   UNL     1      -7.768  10.396  68.477  1.00  0.00    -0.101 A  
ENDBRANCH   9  15
BRANCH  13  22
HETATM   22  C   UNL     1      -7.006  17.431  69.854  1.00  0.00     0.525 C  
BRANCH  22  23
HETATM   23  C   UNL     1      -6.644  18.398  68.754  1.00  0.00    -0.247 C  
HETATM   24  O   UNL     1      -6.898  19.599  68.772  1.00  0.00    -0.299 OA 
BRANCH  23  25
HETATM   25  O   UNL     1      -5.942  17.801  67.755  1.00  0.00    -0.149 OA 
BRANCH  25  26
HETATM   26  C   UNL     1      -6.704  17.515  66.583  1.00  0.00    -0.221 C  
HETATM   27  C   UNL     1      -6.626  18.570  65.483  1.00  0.00    -0.264 C  
HETATM   28  O   UNL     1      -5.502  18.501  64.730  1.00  0.00    -0.186 OA 
HETATM   29  O   UNL     1      -7.495  19.407  65.281  1.00  0.00    -0.381 OA 
ENDBRANCH  25  26
ENDBRANCH  23  25
ENDBRANCH  22  23
ENDBRANCH  13  22
ENDBRANCH   2   3
TORSDOF 6
ENDMDL
MODEL      159
REMARK 921   NORMALIZED FREE ENERGY PREDICTED BY IDOCK:   -1.09 KCAL/MOL
REMARK 922        TOTAL FREE ENERGY PREDICTED BY IDOCK:   -2.63 KCAL/MOL
REMARK 923 INTER-LIGAND FREE ENERGY PREDICTED BY IDOCK:   -3.75 KCAL/MOL
REMARK 924 INTRA-LIGAND FREE ENERGY PREDICTED BY IDOCK:    1.12 KCAL/MOL
REMARK 927      BINDING AFFINITY PREDICTED BY RF-SCORE:    0.00 PKD
ROOT
HETATM    1  C   UNL     1     -10.122  11.723  68.418  1.00  0.00    -0.201 C  
HETATM    2  O   UNL     1      -9.015  10.945  68.855  1.00  0.00    -0.167 OA 
ENDROOT
BRANCH   2   3
HETATM    3  C   UNL     1      -9.142   9.584  68.787  1.00  0.00    -0.133 A  
HETATM    4  C   UNL     1      -9.204   8.710  69.874  1.00  0.00    -0.155 A  
HETATM    5  C   UNL     1      -9.297   7.311  69.663  1.00  0.00    -0.153 A  
HETATM    6  C   UNL     1      -9.291   6.817  68.356  1.00  0.00    -0.124 A  
HETATM    7  N   UNL     1      -9.240   5.412  68.417  1.00  0.00    -0.109 N  
HETATM    8  C   UNL     1      -9.355   7.703  67.261  1.00  0.00    -0.174 A  
HETATM    9  C   UNL     1      -8.998   4.529  67.322  1.00  0.00    -0.117 C  
HETATM   10  C   UNL     1      -9.252   9.078  67.499  1.00  0.00    -0.152 A  
HETATM   11  C   UNL     1      -9.497   5.050  69.755  1.00  0.00    -0.150 A  
HETATM   12  O   UNL     1      -9.433   3.381  67.406  1.00  0.00    -0.205 OA 
HETATM   13  C   UNL     1      -9.490   6.201  70.537  1.00  0.00    -0.182 A  
HETATM   14  C   UNL     1      -9.696   3.649  70.238  1.00  0.00    -0.193 C  
BRANCH   9  15
HETATM   15  C   UNL     1      -8.273   4.859  66.062  1.00  0.00    -0.112 A  
HETATM   16  C   UNL     1      -8.464   4.141  64.875  1.00  0.00    -0.115 A  
HETATM   17  C   UNL     1      -6.765   5.479  63.788  1.00  0.00    -0.034 A  
HETATM   18 CL   UNL     1      -5.766   5.790  62.425  1.00  0.00    -0.018 Cl 
HETATM   19  C   UNL     1      -7.685   4.430  63.750  1.00  0.00    -0.075 A  
HETATM   20  C   UNL     1      -6.645   6.268  64.929  1.00  0.00    -0.039 A  
HETATM   21  C   UNL     1      -7.399   5.959  66.065  1.00  0.00    -0.077 A  
ENDBRANCH   9  15
BRANCH  13  22
HETATM   22  C   UNL     1      -9.762   6.267  72.013  1.00  0.00    -0.164 C  
BRANCH  22  23
HETATM   23  C   UNL     1     -11.177   5.940  72.422  1.00  0.00    -0.291 C  
HETATM   24  O   UNL     1     -12.169   6.560  72.049  1.00  0.00    -0.338 OA 
BRANCH  23  25
HETATM   25  O   UNL     1     -11.243   4.833  73.208  1.00  0.00    -0.302 OA 
BRANCH  25  26
HETATM   26  C   UNL     1     -11.146   3.597  72.502  1.00  0.00     0.378 C  
HETATM   27  C   UNL     1     -10.733   2.396  73.348  1.00  0.00    -0.167 C  
HETATM   28  O   UNL     1     -11.742   1.863  74.080  1.00  0.00    -0.109 OA 
HETATM   29  O   UNL     1      -9.600   1.938  73.371  1.00  0.00    -0.072 OA 
ENDBRANCH  25  26
ENDBRANCH  23  25
ENDBRANCH  22  23
ENDBRANCH  13  22
ENDBRANCH   2   3
TORSDOF 6
ENDMDL
MODEL      160
REMARK 921   NORMALIZED FREE ENERGY PREDICTED BY IDOCK:   -0.22 KCAL/MOL
REMARK 922        TOTAL FREE ENERGY PREDICTED BY IDOCK:   -1.45 KCAL/MOL
REMARK 923 INTER-LIGAND FREE ENERGY PREDICTED BY IDOCK:   -0.07 KCAL/MOL
REMARK 924 INTRA-LIGAND FREE ENERGY PREDICTED BY IDOCK:   -1.38 KCAL/MOL
REMARK 927      BINDING AFFINITY PREDICTED BY RF-SCORE:    0.00 PKD
ROOT
HETATM    1  C   UNL     1     -12.278   4.688  64.375  1.00  0.00     3.591 C  
HETATM    2  O   UNL     1     -11.188   4.007  64.982  1.00  0.00    -0.110 OA 
ENDROOT
BRANCH   2   3
HETATM    3  C   UNL     1     -10.451   4.701  65.902  1.00  0.00    -0.268 A  
HETATM    4  C   UNL     1      -9.176   4.362  66.357  1.00  0.00    -0.142 A  
HETATM    5  C   UNL     1      -8.536   5.150  67.348  1.00  0.00    -0.104 A  
HETATM    6  C   UNL     1      -9.213   6.249  67.887  1.00  0.00    -0.116 A  
HETATM    7  N   UNL     1      -8.439   6.767  68.941  1.00  0.00    -0.120 N  
HETATM    8  C   UNL     1     -10.444   6.662  67.339  1.00  0.00    -0.325 A  
HETATM    9  C   UNL     1      -8.859   7.743  69.895  1.00  0.00    -0.142 C  
HETATM   10  C   UNL     1     -11.056   5.861  66.370  1.00  0.00     0.108 A  
HETATM   11  C   UNL     1      -7.171   6.157  68.858  1.00  0.00    -0.084 A  
HETATM   12  O   UNL     1      -7.991   8.427  70.433  1.00  0.00    -0.091 OA 
HETATM   13  C   UNL     1      -7.229   5.134  67.917  1.00  0.00    -0.067 A  
HETATM   14  C   UNL     1      -5.986   6.535  69.687  1.00  0.00    -0.018 C  
BRANCH   9  15
HETATM   15  C   UNL     1     -10.263   8.034  70.303  1.00  0.00    -0.200 A  
HETATM   16  C   UNL     1     -10.893   9.251  70.015  1.00  0.00    -0.264 A  
HETATM   17  C   UNL     1     -12.857   8.527  71.230  1.00  0.00    -0.181 A  
HETATM   18 CL   UNL     1     -14.407   8.870  71.888  1.00  0.00    -0.409 Cl 
HETATM   19  C   UNL     1     -12.176   9.508  70.508  1.00  0.00    -0.096 A  
HETATM   20  C   UNL     1     -12.282   7.274  71.430  1.00  0.00    -0.384 A  
HETATM   21  C   UNL     1     -10.986   7.028  70.965  1.00  0.00    -0.279 A  
ENDBRANCH   9  15
BRANCH  13  22
HETATM   22  C   UNL     1      -6.084   4.258  67.492  1.00  0.00    -0.028 C  
BRANCH  22  23
HETATM   23  C   UNL     1      -6.100   2.861  68.058  1.00  0.00    -0.024 C  
HETATM   24  O   UNL     1      -5.699   1.864  67.462  1.00  0.00    -0.018 OA 
BRANCH  23  25
HETATM   25  O   UNL     1      -6.556   2.829  69.338  1.00  0.00    -0.032 OA 
BRANCH  25  26
HETATM   26  C   UNL     1      -7.533   1.821  69.595  1.00  0.00    -0.042 C  
HETATM   27  C   UNL     1      -8.837   2.321  70.211  1.00  0.00    -0.077 C  
HETATM   28  O   UNL     1      -9.692   2.876  69.318  1.00  0.00    -0.063 OA 
HETATM   29  O   UNL     1      -9.106   2.231  71.400  1.00  0.00    -0.079 OA 
ENDBRANCH  25  26
ENDBRANCH  23  25
ENDBRANCH  22  23
ENDBRANCH  13  22
ENDBRANCH   2   3
TORSDOF 6
ENDMDL
MODEL      161
REMARK 921   NORMALIZED FREE ENERGY PREDICTED BY IDOCK:   -0.20 KCAL/MOL
REMARK 922        TOTAL FREE ENERGY PREDICTED BY IDOCK:   -1.43 KCAL/MOL
REMARK 923 INTER-LIGAND FREE ENERGY PREDICTED BY IDOCK:   -1.85 KCAL/MOL
REMARK 924 INTRA-LIGAND FREE ENERGY PREDICTED BY IDOCK:    0.42 KCAL/MOL
REMARK 927      BINDING AFFINITY PREDICTED BY RF-SCORE:    0.00 PKD
ROOT
HETATM    1  C   UNL     1      -6.119  10.224  73.865  1.00  0.00     1.298 C  
HETATM    2  O   UNL     1      -6.693   8.957  74.161  1.00  0.00    -0.332 OA 
ENDROOT
BRANCH   2   3
HETATM    3  C   UNL     1      -6.704   8.027  73.159  1.00  0.00    -0.094 A  
HETATM    4  C   UNL     1      -6.440   8.270  71.810  1.00  0.00    -0.058 A  
HETATM    5  C   UNL     1      -6.523   7.217  70.863  1.00  0.00    -0.043 A  
HETATM    6  C   UNL     1      -6.907   5.943  71.292  1.00  0.00    -0.066 A  
HETATM    7  N   UNL     1      -7.059   5.125  70.157  1.00  0.00    -0.053 N  
HETATM    8  C   UNL     1      -7.050   5.670  72.667  1.00  0.00    -0.089 A  
HETATM    9  C   UNL     1      -7.648   3.824  70.129  1.00  0.00    -0.048 C  
HETATM   10  C   UNL     1      -6.971   6.729  73.577  1.00  0.00    -0.075 A  
HETATM   11  C   UNL     1      -6.500   5.824  69.068  1.00  0.00    -0.049 A  
HETATM   12  O   UNL     1      -7.305   3.062  69.227  1.00  0.00    -0.045 OA 
HETATM   13  C   UNL     1      -6.208   7.123  69.476  1.00  0.00    -0.035 A  
HETATM   14  C   UNL     1      -6.303   5.257  67.699  1.00  0.00    -0.040 C  
BRANCH   9  15
HETATM   15  C   UNL     1      -8.641   3.281  71.099  1.00  0.00    -0.107 A  
HETATM   16  C   UNL     1      -8.972   1.922  71.153  1.00  0.00    -0.131 A  
HETATM   17  C   UNL     1     -10.614   2.386  72.869  1.00  0.00    -0.141 A  
HETATM   18 CL   UNL     1     -11.897   1.853  73.880  1.00  0.00    -0.178 Cl 
HETATM   19  C   UNL     1      -9.981   1.482  72.015  1.00  0.00    -0.210 A  
HETATM   20  C   UNL     1     -10.217   3.720  72.899  1.00  0.00    -0.233 A  
HETATM   21  C   UNL     1      -9.230   4.167  72.016  1.00  0.00    -0.171 A  
ENDBRANCH   9  15
BRANCH  13  22
HETATM   22  C   UNL     1      -5.563   8.188  68.635  1.00  0.00    -0.036 C  
BRANCH  22  23
HETATM   23  C   UNL     1      -6.291   9.508  68.600  1.00  0.00    -0.048 C  
HETATM   24  O   UNL     1      -5.756  10.603  68.757  1.00  0.00    -0.041 OA 
BRANCH  23  25
HETATM   25  O   UNL     1      -7.612   9.360  68.313  1.00  0.00    -0.082 OA 
BRANCH  25  26
HETATM   26  C   UNL     1      -7.881   8.803  67.028  1.00  0.00    -0.095 C  
HETATM   27  C   UNL     1      -9.346   8.832  66.600  1.00  0.00    -0.189 C  
HETATM   28  O   UNL     1      -9.761  10.034  66.131  1.00  0.00    -0.196 OA 
HETATM   29  O   UNL     1     -10.091   7.865  66.663  1.00  0.00    -0.260 OA 
ENDBRANCH  25  26
ENDBRANCH  23  25
ENDBRANCH  22  23
ENDBRANCH  13  22
ENDBRANCH   2   3
TORSDOF 6
ENDMDL
MODEL      162
REMARK 921   NORMALIZED FREE ENERGY PREDICTED BY IDOCK:    2.45 KCAL/MOL
REMARK 922        TOTAL FREE ENERGY PREDICTED BY IDOCK:    2.16 KCAL/MOL
REMARK 923 INTER-LIGAND FREE ENERGY PREDICTED BY IDOCK:    1.88 KCAL/MOL
REMARK 924 INTRA-LIGAND FREE ENERGY PREDICTED BY IDOCK:    0.28 KCAL/MOL
REMARK 927      BINDING AFFINITY PREDICTED BY RF-SCORE:    0.00 PKD
ROOT
HETATM    1  C   UNL     1     -12.502   4.742  64.342  1.00  0.00     4.852 C  
HETATM    2  O   UNL     1     -11.272   4.158  64.751  1.00  0.00    -0.318 OA 
ENDROOT
BRANCH   2   3
HETATM    3  C   UNL     1     -10.454   4.915  65.544  1.00  0.00    -0.052 A  
HETATM    4  C   UNL     1      -9.160   5.332  65.227  1.00  0.00    -0.097 A  
HETATM    5  C   UNL     1      -8.402   6.085  66.159  1.00  0.00    -0.126 A  
HETATM    6  C   UNL     1      -8.952   6.374  67.411  1.00  0.00    -0.109 A  
HETATM    7  N   UNL     1      -7.961   6.990  68.196  1.00  0.00    -0.117 N  
HETATM    8  C   UNL     1     -10.301   6.063  67.682  1.00  0.00    -0.258 A  
HETATM    9  C   UNL     1      -8.034   7.245  69.599  1.00  0.00    -0.127 C  
HETATM   10  C   UNL     1     -11.021   5.312  66.748  1.00  0.00     0.057 A  
HETATM   11  C   UNL     1      -6.900   7.325  67.330  1.00  0.00    -0.077 A  
HETATM   12  O   UNL     1      -7.354   8.166  70.049  1.00  0.00    -0.059 OA 
HETATM   13  C   UNL     1      -7.136   6.738  66.090  1.00  0.00    -0.066 A  
HETATM   14  C   UNL     1      -5.707   8.139  67.715  1.00  0.00    -0.039 C  
BRANCH   9  15
HETATM   15  C   UNL     1      -8.870   6.510  70.590  1.00  0.00    -0.144 A  
HETATM   16  C   UNL     1      -8.785   5.123  70.763  1.00  0.00    -0.142 A  
HETATM   17  C   UNL     1     -10.579   5.211  72.385  1.00  0.00    -0.221 A  
HETATM   18 CL   UNL     1     -11.698   4.401  73.408  1.00  0.00    -0.254 Cl 
HETATM   19  C   UNL     1      -9.662   4.472  71.636  1.00  0.00    -0.241 A  
HETATM   20  C   UNL     1     -10.599   6.600  72.299  1.00  0.00    -0.241 A  
HETATM   21  C   UNL     1      -9.745   7.249  71.404  1.00  0.00    -0.170 A  
ENDBRANCH   9  15
BRANCH  13  22
HETATM   22  C   UNL     1      -6.272   6.877  64.869  1.00  0.00    -0.036 C  
BRANCH  22  23
HETATM   23  C   UNL     1      -5.508   5.637  64.478  1.00  0.00    -0.013 C  
HETATM   24  O   UNL     1      -5.187   5.351  63.327  1.00  0.00    -0.012 OA 
BRANCH  23  25
HETATM   25  O   UNL     1      -5.155   4.888  65.556  1.00  0.00    -0.008 OA 
BRANCH  25  26
HETATM   26  C   UNL     1      -5.626   3.542  65.524  1.00  0.00    -0.017 C  
HETATM   27  C   UNL     1      -6.130   3.062  64.165  1.00  0.00    -0.018 C  
HETATM   28  O   UNL     1      -5.146   2.704  63.306  1.00  0.00    -0.006 OA 
HETATM   29  O   UNL     1      -7.314   2.994  63.864  1.00  0.00    -0.062 OA 
ENDBRANCH  25  26
ENDBRANCH  23  25
ENDBRANCH  22  23
ENDBRANCH  13  22
ENDBRANCH   2   3
TORSDOF 6
ENDMDL
MODEL      163
REMARK 921   NORMALIZED FREE ENERGY PREDICTED BY IDOCK:    3.59 KCAL/MOL
REMARK 922        TOTAL FREE ENERGY PREDICTED BY IDOCK:    3.70 KCAL/MOL
REMARK 923 INTER-LIGAND FREE ENERGY PREDICTED BY IDOCK:    3.16 KCAL/MOL
REMARK 924 INTRA-LIGAND FREE ENERGY PREDICTED BY IDOCK:    0.54 KCAL/MOL
REMARK 927      BINDING AFFINITY PREDICTED BY RF-SCORE:    0.00 PKD
ROOT
HETATM    1  C   UNL     1      -7.012  10.639  73.862  1.00  0.00     4.758 C  
HETATM    2  O   UNL     1      -7.331   9.253  73.891  1.00  0.00    -0.076 OA 
ENDROOT
BRANCH   2   3
HETATM    3  C   UNL     1      -7.162   8.549  72.731  1.00  0.00    -0.009 A  
HETATM    4  C   UNL     1      -6.954   9.094  71.462  1.00  0.00     0.006 A  
HETATM    5  C   UNL     1      -6.832   8.248  70.331  1.00  0.00    -0.036 A  
HETATM    6  C   UNL     1      -6.956   6.865  70.496  1.00  0.00    -0.063 A  
HETATM    7  N   UNL     1      -6.948   6.268  69.223  1.00  0.00    -0.062 N  
HETATM    8  C   UNL     1      -7.040   6.310  71.790  1.00  0.00    -0.085 A  
HETATM    9  C   UNL     1      -7.270   4.908  68.928  1.00  0.00    -0.053 C  
HETATM   10  C   UNL     1      -7.168   7.169  72.886  1.00  0.00    -0.073 A  
HETATM   11  C   UNL     1      -6.540   7.258  68.307  1.00  0.00    -0.049 A  
HETATM   12  O   UNL     1      -6.787   4.414  67.910  1.00  0.00    -0.053 OA 
HETATM   13  C   UNL     1      -6.508   8.485  68.963  1.00  0.00    -0.048 A  
HETATM   14  C   UNL     1      -6.240   7.014  66.863  1.00  0.00    -0.041 C  
BRANCH   9  15
HETATM   15  C   UNL     1      -8.135   4.007  69.742  1.00  0.00    -0.060 A  
HETATM   16  C   UNL     1      -9.252   3.353  69.208  1.00  0.00    -0.221 A  
HETATM   17  C   UNL     1      -9.766   2.440  71.389  1.00  0.00    -0.147 A  
HETATM   18 CL   UNL     1     -10.825   1.565  72.421  1.00  0.00    -0.189 Cl 
HETATM   19  C   UNL     1     -10.084   2.598  70.040  1.00  0.00     0.766 A  
HETATM   20  C   UNL     1      -8.599   2.997  71.906  1.00  0.00    -0.098 A  
HETATM   21  C   UNL     1      -7.783   3.778  71.083  1.00  0.00    -0.058 A  
ENDBRANCH   9  15
BRANCH  13  22
HETATM   22  C   UNL     1      -6.086   9.796  68.362  1.00  0.00    -0.046 C  
BRANCH  22  23
HETATM   23  C   UNL     1      -6.841  11.003  68.860  1.00  0.00    -0.079 C  
HETATM   24  O   UNL     1      -6.451  11.747  69.757  1.00  0.00    -0.130 OA 
BRANCH  23  25
HETATM   25  O   UNL     1      -7.987  11.218  68.161  1.00  0.00    -0.118 OA 
BRANCH  25  26
HETATM   26  C   UNL     1      -8.928  12.070  68.812  1.00  0.00     0.085 C  
HETATM   27  C   UNL     1     -10.235  12.293  68.055  1.00  0.00    -0.206 C  
HETATM   28  O   UNL     1     -11.122  11.276  68.172  1.00  0.00    -0.219 OA 
HETATM   29  O   UNL     1     -10.478  13.298  67.402  1.00  0.00    -0.241 OA 
ENDBRANCH  25  26
ENDBRANCH  23  25
ENDBRANCH  22  23
ENDBRANCH  13  22
ENDBRANCH   2   3
TORSDOF 6
ENDMDL
MODEL      164
REMARK 921   NORMALIZED FREE ENERGY PREDICTED BY IDOCK:    7.67 KCAL/MOL
REMARK 922        TOTAL FREE ENERGY PREDICTED BY IDOCK:    9.20 KCAL/MOL
REMARK 923 INTER-LIGAND FREE ENERGY PREDICTED BY IDOCK:    9.68 KCAL/MOL
REMARK 924 INTRA-LIGAND FREE ENERGY PREDICTED BY IDOCK:   -0.48 KCAL/MOL
REMARK 927      BINDING AFFINITY PREDICTED BY RF-SCORE:    0.00 PKD
ROOT
HETATM    1  C   UNL     1     -13.862  11.731  65.123  1.00  0.00     5.844 C  
HETATM    2  O   UNL     1     -12.919  10.710  64.822  1.00  0.00     4.072 OA 
ENDROOT
BRANCH   2   3
HETATM    3  C   UNL     1     -11.708  10.771  65.455  1.00  0.00     1.535 A  
HETATM    4  C   UNL     1     -11.169  11.892  66.089  1.00  0.00    -0.387 A  
HETATM    5  C   UNL     1      -9.880  11.831  66.677  1.00  0.00    -0.223 A  
HETATM    6  C   UNL     1      -9.143  10.647  66.584  1.00  0.00    -0.160 A  
HETATM    7  N   UNL     1      -7.858  10.887  67.104  1.00  0.00    -0.122 N  
HETATM    8  C   UNL     1      -9.736   9.481  66.056  1.00  0.00    -0.341 A  
HETATM    9  C   UNL     1      -6.730  10.017  66.999  1.00  0.00    -0.078 C  
HETATM   10  C   UNL     1     -11.005   9.573  65.475  1.00  0.00     2.019 A  
HETATM   11  C   UNL     1      -7.907  12.131  67.764  1.00  0.00    -0.148 A  
HETATM   12  O   UNL     1      -5.854  10.111  67.857  1.00  0.00    -0.042 OA 
HETATM   13  C   UNL     1      -9.125  12.741  67.474  1.00  0.00    -0.193 A  
HETATM   14  C   UNL     1      -6.805  12.701  68.597  1.00  0.00    -0.091 C  
BRANCH   9  15
HETATM   15  C   UNL     1      -6.505   8.982  65.949  1.00  0.00    -0.061 A  
HETATM   16  C   UNL     1      -6.597   9.268  64.581  1.00  0.00    -0.077 A  
HETATM   17  C   UNL     1      -6.193   6.938  64.064  1.00  0.00    -0.036 A  
HETATM   18 CL   UNL     1      -6.106   5.666  62.912  1.00  0.00    -0.018 Cl 
HETATM   19  C   UNL     1      -6.474   8.239  63.643  1.00  0.00    -0.072 A  
HETATM   20  C   UNL     1      -5.993   6.665  65.415  1.00  0.00    -0.034 A  
HETATM   21  C   UNL     1      -6.148   7.686  66.356  1.00  0.00    -0.044 A  
ENDBRANCH   9  15
BRANCH  13  22
HETATM   22  C   UNL     1      -9.600  14.062  68.009  1.00  0.00    -0.217 C  
BRANCH  22  23
HETATM   23  C   UNL     1      -9.156  15.270  67.223  1.00  0.00    -0.198 C  
HETATM   24  O   UNL     1      -8.421  15.229  66.240  1.00  0.00    -0.175 OA 
BRANCH  23  25
HETATM   25  O   UNL     1      -9.713  16.420  67.688  1.00  0.00    -0.234 OA 
BRANCH  25  26
HETATM   26  C   UNL     1      -8.944  17.090  68.685  1.00  0.00    -0.267 C  
HETATM   27  C   UNL     1      -7.471  16.695  68.745  1.00  0.00    -0.224 C  
HETATM   28  O   UNL     1      -6.701  17.286  67.800  1.00  0.00    -0.154 OA 
HETATM   29  O   UNL     1      -7.008  15.920  69.571  1.00  0.00    -0.195 OA 
ENDBRANCH  25  26
ENDBRANCH  23  25
ENDBRANCH  22  23
ENDBRANCH  13  22
ENDBRANCH   2   3
TORSDOF 6
ENDMDL
MODEL      165
REMARK 921   NORMALIZED FREE ENERGY PREDICTED BY IDOCK:   17.02 KCAL/MOL
REMARK 922        TOTAL FREE ENERGY PREDICTED BY IDOCK:   21.84 KCAL/MOL
REMARK 923 INTER-LIGAND FREE ENERGY PREDICTED BY IDOCK:   21.76 KCAL/MOL
REMARK 924 INTRA-LIGAND FREE ENERGY PREDICTED BY IDOCK:    0.08 KCAL/MOL
REMARK 927      BINDING AFFINITY PREDICTED BY RF-SCORE:    0.00 PKD
ROOT
HETATM    1  C   UNL     1      -6.598  18.896  70.617  1.00  0.00     0.741 C  
HETATM    2  O   UNL     1      -6.294  17.607  70.099  1.00  0.00    -0.062 OA 
ENDROOT
BRANCH   2   3
HETATM    3  C   UNL     1      -7.311  16.920  69.496  1.00  0.00     0.106 A  
HETATM    4  C   UNL     1      -7.941  17.268  68.300  1.00  0.00    -0.244 A  
HETATM    5  C   UNL     1      -9.014  16.486  67.802  1.00  0.00    -0.202 A  
HETATM    6  C   UNL     1      -9.455  15.384  68.541  1.00  0.00    -0.202 A  
HETATM    7  N   UNL     1     -10.610  14.873  67.921  1.00  0.00    -0.250 N  
HETATM    8  C   UNL     1      -8.740  14.961  69.680  1.00  0.00     0.101 A  
HETATM    9  C   UNL     1     -11.497  13.896  68.467  1.00  0.00    -0.311 C  
HETATM   10  C   UNL     1      -7.692  15.757  70.153  1.00  0.00     0.672 A  
HETATM   11  C   UNL     1     -10.706  15.490  66.658  1.00  0.00    -0.306 A  
HETATM   12  O   UNL     1     -12.156  13.218  67.679  1.00  0.00    -0.335 OA 
HETATM   13  C   UNL     1      -9.762  16.511  66.589  1.00  0.00    -0.275 A  
HETATM   14  C   UNL     1     -11.695  15.122  65.600  1.00  0.00    -0.036 C  
BRANCH   9  15
HETATM   15  C   UNL     1     -11.704  13.597  69.913  1.00  0.00    -0.346 A  
HETATM   16  C   UNL     1     -11.945  12.301  70.385  1.00  0.00    -0.349 A  
HETATM   17  C   UNL     1     -12.208  13.165  72.630  1.00  0.00     1.544 A  
HETATM   18 CL   UNL     1     -12.621  12.914  74.280  1.00  0.00     8.295 Cl 
HETATM   19  C   UNL     1     -12.230  12.092  71.738  1.00  0.00     0.603 A  
HETATM   20  C   UNL     1     -11.864  14.440  72.189  1.00  0.00     0.088 A  
HETATM   21  C   UNL     1     -11.610  14.655  70.832  1.00  0.00    -0.276 A  
ENDBRANCH   9  15
BRANCH  13  22
HETATM   22  C   UNL     1      -9.501  17.393  65.401  1.00  0.00     0.917 C  
BRANCH  22  23
HETATM   23  C   UNL     1      -9.332  18.859  65.714  1.00  0.00     0.371 C  
HETATM   24  O   UNL     1     -10.231  19.592  66.120  1.00  0.00    -0.436 OA 
BRANCH  23  25
HETATM   25  O   UNL     1      -8.048  19.275  65.555  1.00  0.00    -0.338 OA 
BRANCH  25  26
HETATM   26  C   UNL     1      -7.453  18.901  64.314  1.00  0.00     4.011 C  
HETATM   27  C   UNL     1      -6.349  17.851  64.412  1.00  0.00     2.353 C  
HETATM   28  O   UNL     1      -6.805  16.581  64.540  1.00  0.00     5.941 OA 
HETATM   29  O   UNL     1      -5.155  18.113  64.375  1.00  0.00    -0.014 OA 
ENDBRANCH  25  26
ENDBRANCH  23  25
ENDBRANCH  22  23
ENDBRANCH  13  22
ENDBRANCH   2   3
TORSDOF 6
ENDMDL
MODEL      166
REMARK 921   NORMALIZED FREE ENERGY PREDICTED BY IDOCK:   33.67 KCAL/MOL
REMARK 922        TOTAL FREE ENERGY PREDICTED BY IDOCK:   44.33 KCAL/MOL
REMARK 923 INTER-LIGAND FREE ENERGY PREDICTED BY IDOCK:   41.90 KCAL/MOL
REMARK 924 INTRA-LIGAND FREE ENERGY PREDICTED BY IDOCK:    2.43 KCAL/MOL
REMARK 927      BINDING AFFINITY PREDICTED BY RF-SCORE:    0.00 PKD
ROOT
HETATM    1  C   UNL     1     -12.379   8.853  64.695  1.00  0.00    17.226 C  
HETATM    2  O   UNL     1     -12.633   9.604  65.875  1.00  0.00     8.518 OA 
ENDROOT
BRANCH   2   3
HETATM    3  C   UNL     1     -11.563  10.211  66.472  1.00  0.00     1.695 A  
HETATM    4  C   UNL     1     -10.266   9.700  66.547  1.00  0.00    -0.294 A  
HETATM    5  C   UNL     1      -9.253  10.418  67.232  1.00  0.00    -0.157 A  
HETATM    6  C   UNL     1      -9.576  11.625  67.859  1.00  0.00    -0.180 A  
HETATM    7  N   UNL     1      -8.452  12.057  68.586  1.00  0.00    -0.080 N  
HETATM    8  C   UNL     1     -10.850  12.200  67.676  1.00  0.00    -0.272 A  
HETATM    9  C   UNL     1      -8.423  13.120  69.540  1.00  0.00     1.414 C  
HETATM   10  C   UNL     1     -11.833  11.466  67.004  1.00  0.00     0.188 A  
HETATM   11  C   UNL     1      -7.365  11.261  68.175  1.00  0.00    -0.088 A  
HETATM   12  O   UNL     1      -7.348  13.684  69.735  1.00  0.00     0.299 OA 
HETATM   13  C   UNL     1      -7.848  10.225  67.380  1.00  0.00    -0.102 A  
HETATM   14  C   UNL     1      -5.942  11.484  68.575  1.00  0.00    -0.045 C  
BRANCH   9  15
HETATM   15  C   UNL     1      -9.580  13.634  70.327  1.00  0.00     3.113 A  
HETATM   16  C   UNL     1      -9.482  13.949  71.688  1.00  0.00     8.477 A  
HETATM   17  C   UNL     1     -11.845  14.468  71.743  1.00  0.00    -0.131 A  
HETATM   18 CL   UNL     1     -13.255  14.878  72.635  1.00  0.00    -0.482 Cl 
HETATM   19  C   UNL     1     -10.621  14.333  72.401  1.00  0.00     3.918 A  
HETATM   20  C   UNL     1     -11.930  14.261  70.368  1.00  0.00    -0.402 A  
HETATM   21  C   UNL     1     -10.799  13.846  69.661  1.00  0.00     0.032 A  
ENDBRANCH   9  15
BRANCH  13  22
HETATM   22  C   UNL     1      -7.018   9.171  66.703  1.00  0.00    -0.081 C  
BRANCH  22  23
HETATM   23  C   UNL     1      -6.872   7.879  67.466  1.00  0.00    -0.070 C  
HETATM   24  O   UNL     1      -5.834   7.503  68.006  1.00  0.00    -0.029 OA 
BRANCH  23  25
HETATM   25  O   UNL     1      -8.043   7.194  67.547  1.00  0.00    -0.111 OA 
BRANCH  25  26
HETATM   26  C   UNL     1      -8.802   7.172  66.340  1.00  0.00    -0.145 C  
HETATM   27  C   UNL     1      -7.995   6.926  65.069  1.00  0.00    -0.125 C  
HETATM   28  O   UNL     1      -7.681   5.625  64.857  1.00  0.00    -0.088 OA 
HETATM   29  O   UNL     1      -7.658   7.811  64.295  1.00  0.00    -0.096 OA 
ENDBRANCH  25  26
ENDBRANCH  23  25
ENDBRANCH  22  23
ENDBRANCH  13  22
ENDBRANCH   2   3
TORSDOF 6
ENDMDL
MODEL      167
REMARK 921   NORMALIZED FREE ENERGY PREDICTED BY IDOCK:   36.02 KCAL/MOL
REMARK 922        TOTAL FREE ENERGY PREDICTED BY IDOCK:   47.51 KCAL/MOL
REMARK 923 INTER-LIGAND FREE ENERGY PREDICTED BY IDOCK:   45.58 KCAL/MOL
REMARK 924 INTRA-LIGAND FREE ENERGY PREDICTED BY IDOCK:    1.92 KCAL/MOL
REMARK 927      BINDING AFFINITY PREDICTED BY RF-SCORE:    0.00 PKD
ROOT
HETATM    1  C   UNL     1     -13.387   5.653  63.637  1.00  0.00    10.256 C  
HETATM    2  O   UNL     1     -12.215   5.300  64.360  1.00  0.00     2.738 OA 
ENDROOT
BRANCH   2   3
HETATM    3  C   UNL     1     -11.137   6.134  64.248  1.00  0.00     7.338 A  
HETATM    4  C   UNL     1      -9.805   5.740  64.109  1.00  0.00     1.976 A  
HETATM    5  C   UNL     1      -8.774   6.711  64.041  1.00  0.00     0.594 A  
HETATM    6  C   UNL     1      -9.105   8.065  64.151  1.00  0.00     1.174 A  
HETATM    7  N   UNL     1      -7.910   8.806  64.206  1.00  0.00    -0.126 N  
HETATM    8  C   UNL     1     -10.456   8.467  64.164  1.00  0.00     6.856 A  
HETATM    9  C   UNL     1      -7.791  10.190  64.536  1.00  0.00    -0.141 C  
HETATM   10  C   UNL     1     -11.451   7.487  64.239  1.00  0.00    17.055 A  
HETATM   11  C   UNL     1      -6.866   7.929  63.850  1.00  0.00    -0.062 A  
HETATM   12  O   UNL     1      -6.814  10.800  64.104  1.00  0.00     0.164 OA 
HETATM   13  C   UNL     1      -7.373   6.634  63.790  1.00  0.00    -0.072 A  
HETATM   14  C   UNL     1      -5.446   8.339  63.624  1.00  0.00    -0.061 C  
BRANCH   9  15
HETATM   15  C   UNL     1      -8.748  10.991  65.353  1.00  0.00    -0.122 A  
HETATM   16  C   UNL     1      -9.726  11.809  64.777  1.00  0.00    -0.184 A  
HETATM   17  C   UNL     1     -10.408  12.551  66.977  1.00  0.00    -0.224 A  
HETATM   18 CL   UNL     1     -11.355  13.588  67.968  1.00  0.00    -0.298 Cl 
HETATM   19  C   UNL     1     -10.532  12.614  65.588  1.00  0.00    -0.298 A  
HETATM   20  C   UNL     1      -9.512  11.661  67.564  1.00  0.00    -0.173 A  
HETATM   21  C   UNL     1      -8.684  10.880  66.752  1.00  0.00    -0.147 A  
ENDBRANCH   9  15
BRANCH  13  22
HETATM   22  C   UNL     1      -6.604   5.402  63.406  1.00  0.00    -0.026 C  
BRANCH  22  23
HETATM   23  C   UNL     1      -6.896   4.178  64.237  1.00  0.00    -0.045 C  
HETATM   24  O   UNL     1      -6.696   3.023  63.868  1.00  0.00    -0.033 OA 
BRANCH  23  25
HETATM   25  O   UNL     1      -7.355   4.494  65.476  1.00  0.00    -0.077 OA 
BRANCH  25  26
HETATM   26  C   UNL     1      -8.672   4.026  65.759  1.00  0.00    -0.119 C  
HETATM   27  C   UNL     1      -8.938   2.568  65.392  1.00  0.00    -0.131 C  
HETATM   28  O   UNL     1      -8.462   1.676  66.294  1.00  0.00    -0.090 OA 
HETATM   29  O   UNL     1      -9.530   2.219  64.381  1.00  0.00    -0.136 OA 
ENDBRANCH  25  26
ENDBRANCH  23  25
ENDBRANCH  22  23
ENDBRANCH  13  22
ENDBRANCH   2   3
TORSDOF 6
ENDMDL
MODEL      168
REMARK 921   NORMALIZED FREE ENERGY PREDICTED BY IDOCK:   63.31 KCAL/MOL
REMARK 922        TOTAL FREE ENERGY PREDICTED BY IDOCK:   84.36 KCAL/MOL
REMARK 923 INTER-LIGAND FREE ENERGY PREDICTED BY IDOCK:   73.97 KCAL/MOL
REMARK 924 INTRA-LIGAND FREE ENERGY PREDICTED BY IDOCK:   10.39 KCAL/MOL
REMARK 927      BINDING AFFINITY PREDICTED BY RF-SCORE:    0.00 PKD
ROOT
HETATM    1  C   UNL     1     -12.941   8.354  64.344  1.00  0.00    23.337 C  
HETATM    2  O   UNL     1     -13.299   9.190  65.437  1.00  0.00    18.636 OA 
ENDROOT
BRANCH   2   3
HETATM    3  C   UNL     1     -12.352  10.068  65.888  1.00  0.00     7.671 A  
HETATM    4  C   UNL     1     -11.005  10.082  65.523  1.00  0.00     0.913 A  
HETATM    5  C   UNL     1     -10.117  11.027  66.097  1.00  0.00    -0.286 A  
HETATM    6  C   UNL     1     -10.600  11.920  67.058  1.00  0.00    -0.227 A  
HETATM    7  N   UNL     1      -9.509  12.641  67.576  1.00  0.00    -0.181 N  
HETATM    8  C   UNL     1     -11.981  11.988  67.333  1.00  0.00    -0.125 A  
HETATM    9  C   UNL     1      -9.528  13.490  68.724  1.00  0.00     0.043 C  
HETATM   10  C   UNL     1     -12.832  11.038  66.760  1.00  0.00     6.234 A  
HETATM   11  C   UNL     1      -8.409  12.383  66.734  1.00  0.00    -0.059 A  
HETATM   12  O   UNL     1      -8.688  14.387  68.786  1.00  0.00    -0.178 OA 
HETATM   13  C   UNL     1      -8.754  11.364  65.851  1.00  0.00    -0.101 A  
HETATM   14  C   UNL     1      -7.085  13.071  66.822  1.00  0.00     0.778 C  
BRANCH   9  15
HETATM   15  C   UNL     1     -10.481  13.411  69.868  1.00  0.00     1.001 A  
HETATM   16  C   UNL     1     -10.053  13.285  71.195  1.00  0.00     7.073 A  
HETATM   17  C   UNL     1     -12.355  13.138  71.928  1.00  0.00     0.357 A  
HETATM   18 CL   UNL     1     -13.501  12.866  73.179  1.00  0.00     1.081 Cl 
HETATM   19  C   UNL     1     -10.990  13.115  72.219  1.00  0.00     7.112 A  
HETATM   20  C   UNL     1     -12.792  13.370  70.627  1.00  0.00    -0.157 A  
HETATM   21  C   UNL     1     -11.856  13.508  69.598  1.00  0.00    -0.398 A  
ENDBRANCH   9  15
BRANCH  13  22
HETATM   22  C   UNL     1      -7.884  10.810  64.758  1.00  0.00     0.175 C  
BRANCH  22  23
HETATM   23  C   UNL     1      -7.203   9.503  65.079  1.00  0.00    -0.110 C  
HETATM   24  O   UNL     1      -5.989   9.320  65.025  1.00  0.00    -0.062 OA 
BRANCH  23  25
HETATM   25  O   UNL     1      -8.080   8.554  65.498  1.00  0.00    -0.112 OA 
BRANCH  25  26
HETATM   26  C   UNL     1      -9.410   8.718  65.008  1.00  0.00     0.246 C  
HETATM   27  C   UNL     1      -9.517   9.236  63.576  1.00  0.00     0.768 C  
HETATM   28  O   UNL     1      -9.319   8.287  62.629  1.00  0.00     0.852 OA 
HETATM   29  O   UNL     1      -9.764  10.399  63.290  1.00  0.00    -0.313 OA 
ENDBRANCH  25  26
ENDBRANCH  23  25
ENDBRANCH  22  23
ENDBRANCH  13  22
ENDBRANCH   2   3
TORSDOF 6
ENDMDL
