MODEL        1
REMARK 921   NORMALIZED FREE ENERGY PREDICTED BY IDOCK:   -8.04 KCAL/MOL
REMARK 922        TOTAL FREE ENERGY PREDICTED BY IDOCK:   -8.91 KCAL/MOL
REMARK 923 INTER-LIGAND FREE ENERGY PREDICTED BY IDOCK:   -8.51 KCAL/MOL
REMARK 924 INTRA-LIGAND FREE ENERGY PREDICTED BY IDOCK:   -0.40 KCAL/MOL
REMARK 927      BINDING AFFINITY PREDICTED BY RF-SCORE:    0.00 PKD
ROOT
HETATM    1  C   UNL     1     -11.230  12.905  63.850  1.00  0.00    -0.471 C  
HETATM    2  C   UNL     1     -12.320  12.807  64.895  1.00  0.00    -0.490 C  
HETATM    3  O   UNL     1     -13.392  12.250  64.673  1.00  0.00    -0.717 OA 
ENDROOT
BRANCH   2   4
HETATM    4  C   UNL     1     -12.026  13.529  66.191  1.00  0.00    -0.454 C  
HETATM    5  C   UNL     1     -11.729  12.634  67.417  1.00  0.00    -0.432 C  
HETATM    6  C   UNL     1     -10.548  11.693  67.163  1.00  0.00    -0.269 A  
HETATM    7  C   UNL     1     -11.624  13.440  68.724  1.00  0.00    -0.363 C  
HETATM    8  C   UNL     1     -12.186  13.049  69.887  1.00  0.00    -0.202 C  
HETATM    9  C   UNL     1      -9.258  12.186  66.914  1.00  0.00    -0.203 A  
HETATM   10  C   UNL     1     -12.305  13.969  71.022  1.00  0.00    -0.443 A  
HETATM   11  C   UNL     1      -8.241  11.340  66.467  1.00  0.00    -0.165 A  
HETATM   12  O   UNL     1     -12.758  11.810  70.096  1.00  0.00    -0.033 OA 
HETATM   13  C   UNL     1     -12.999  13.672  72.199  1.00  0.00    -0.421 A  
HETATM   14  C   UNL     1      -8.503   9.979  66.277  1.00  0.00    -0.130 A  
HETATM   15  H   UNL     1     -13.153  11.535  70.915  1.00  0.00     0.000 HD 
HETATM   16  N   UNL     1      -7.480   9.120  65.669  1.00  0.00    -0.092 N  
HETATM   17  C   UNL     1      -9.756   9.450  66.604  1.00  0.00    -0.280 A  
HETATM   18  C   UNL     1     -13.154  14.638  73.203  1.00  0.00    -0.580 A  
HETATM   19  O   UNL     1      -7.751   7.921  65.516  1.00  0.00    -0.090 OA 
HETATM   20  C   UNL     1     -12.606  15.909  73.047  1.00  0.00    -0.606 A  
HETATM   21  C   UNL     1     -10.771  10.307  67.044  1.00  0.00    -0.281 A  
HETATM   22  O   UNL     1      -6.413   9.650  65.326  1.00  0.00    -0.074 OA 
HETATM   23  C   UNL     1     -11.891  16.212  71.895  1.00  0.00    -0.605 A  
HETATM   24  C   UNL     1     -11.759  15.240  70.906  1.00  0.00    -0.344 A  
HETATM   25  O   UNL     1     -11.062  15.621  69.758  1.00  0.00    -0.260 OA 
HETATM   26  C   UNL     1     -10.958  14.779  68.667  1.00  0.00    -0.255 C  
HETATM   27  O   UNL     1     -10.334  15.166  67.686  1.00  0.00    -0.243 OA 
ENDBRANCH   2   4
TORSDOF 1
ENDMDL
MODEL        2
REMARK 921   NORMALIZED FREE ENERGY PREDICTED BY IDOCK:   -7.39 KCAL/MOL
REMARK 922        TOTAL FREE ENERGY PREDICTED BY IDOCK:   -8.22 KCAL/MOL
REMARK 923 INTER-LIGAND FREE ENERGY PREDICTED BY IDOCK:   -7.87 KCAL/MOL
REMARK 924 INTRA-LIGAND FREE ENERGY PREDICTED BY IDOCK:   -0.36 KCAL/MOL
REMARK 927      BINDING AFFINITY PREDICTED BY RF-SCORE:    0.00 PKD
ROOT
HETATM    1  C   UNL     1     -11.947  12.340  63.882  1.00  0.00    -0.582 C  
HETATM    2  C   UNL     1     -12.469  13.016  65.131  1.00  0.00    -0.496 C  
HETATM    3  O   UNL     1     -13.131  14.050  65.088  1.00  0.00    -0.776 OA 
ENDROOT
BRANCH   2   4
HETATM    4  C   UNL     1     -12.031  12.379  66.430  1.00  0.00    -0.346 C  
HETATM    5  C   UNL     1     -10.577  12.665  66.873  1.00  0.00    -0.256 C  
HETATM    6  C   UNL     1     -10.307  14.165  67.009  1.00  0.00    -0.267 A  
HETATM    7  C   UNL     1     -10.160  11.835  68.100  1.00  0.00    -0.196 C  
HETATM    8  C   UNL     1      -8.965  11.216  68.210  1.00  0.00    -0.166 C  
HETATM    9  C   UNL     1     -10.997  14.952  67.945  1.00  0.00    -0.288 A  
HETATM   10  C   UNL     1      -8.718  10.215  69.252  1.00  0.00    -0.186 A  
HETATM   11  C   UNL     1     -10.909  16.346  67.913  1.00  0.00    -0.328 A  
HETATM   12  O   UNL     1      -7.912  11.398  67.335  1.00  0.00    -0.127 OA 
HETATM   13  C   UNL     1      -7.558   9.440  69.332  1.00  0.00    -0.083 A  
HETATM   14  C   UNL     1     -10.114  16.970  66.947  1.00  0.00    -0.298 A  
HETATM   15  H   UNL     1      -7.072  10.963  67.412  1.00  0.00     0.000 HD 
HETATM   16  N   UNL     1     -10.138  18.432  66.820  1.00  0.00    -0.351 N  
HETATM   17  C   UNL     1      -9.349  16.204  66.061  1.00  0.00    -0.368 A  
HETATM   18  C   UNL     1      -7.433   8.432  70.299  1.00  0.00    -0.063 A  
HETATM   19  O   UNL     1      -9.421  18.947  65.950  1.00  0.00    -0.458 OA 
HETATM   20  C   UNL     1      -8.464   8.196  71.205  1.00  0.00    -0.146 A  
HETATM   21  C   UNL     1      -9.448  14.808  66.096  1.00  0.00    -0.324 A  
HETATM   22  O   UNL     1     -10.890  19.063  67.576  1.00  0.00    -0.463 OA 
HETATM   23  C   UNL     1      -9.615   8.974  71.155  1.00  0.00    -0.356 A  
HETATM   24  C   UNL     1      -9.720   9.962  70.179  1.00  0.00    -0.202 A  
HETATM   25  O   UNL     1     -10.916  10.683  70.161  1.00  0.00    -0.282 OA 
HETATM   26  C   UNL     1     -11.179  11.613  69.174  1.00  0.00    -0.263 C  
HETATM   27  O   UNL     1     -12.245  12.217  69.207  1.00  0.00    -0.199 OA 
ENDBRANCH   2   4
TORSDOF 1
ENDMDL
MODEL        3
REMARK 921   NORMALIZED FREE ENERGY PREDICTED BY IDOCK:   -6.99 KCAL/MOL
REMARK 922        TOTAL FREE ENERGY PREDICTED BY IDOCK:   -7.80 KCAL/MOL
REMARK 923 INTER-LIGAND FREE ENERGY PREDICTED BY IDOCK:   -7.37 KCAL/MOL
REMARK 924 INTRA-LIGAND FREE ENERGY PREDICTED BY IDOCK:   -0.42 KCAL/MOL
REMARK 927      BINDING AFFINITY PREDICTED BY RF-SCORE:    0.00 PKD
ROOT
HETATM    1  C   UNL     1     -11.916  13.389  63.928  1.00  0.00    -0.520 C  
HETATM    2  C   UNL     1     -10.818  12.439  64.352  1.00  0.00    -0.337 C  
HETATM    3  O   UNL     1      -9.916  12.098  63.591  1.00  0.00    -0.382 OA 
ENDROOT
BRANCH   2   4
HETATM    4  C   UNL     1     -10.972  11.870  65.745  1.00  0.00    -0.359 C  
HETATM    5  C   UNL     1      -9.895  12.288  66.774  1.00  0.00    -0.218 C  
HETATM    6  C   UNL     1      -9.815  13.808  66.930  1.00  0.00    -0.264 A  
HETATM    7  C   UNL     1     -10.023  11.523  68.104  1.00  0.00    -0.197 C  
HETATM    8  C   UNL     1      -8.968  11.010  68.772  1.00  0.00    -0.149 C  
HETATM    9  C   UNL     1     -10.902  14.555  67.411  1.00  0.00    -0.291 A  
HETATM   10  C   UNL     1      -9.153  10.057  69.870  1.00  0.00    -0.188 A  
HETATM   11  C   UNL     1     -10.901  15.950  67.341  1.00  0.00    -0.291 A  
HETATM   12  O   UNL     1      -7.649  11.261  68.452  1.00  0.00    -0.105 OA 
HETATM   13  C   UNL     1      -8.106   9.384  70.506  1.00  0.00    -0.212 A  
HETATM   14  C   UNL     1      -9.798  16.617  66.799  1.00  0.00    -0.273 A  
HETATM   15  H   UNL     1      -6.907  10.900  68.923  1.00  0.00     0.000 HD 
HETATM   16  N   UNL     1      -9.857  18.068  66.590  1.00  0.00    -0.334 N  
HETATM   17  C   UNL     1      -8.667  15.898  66.395  1.00  0.00    -0.362 A  
HETATM   18  C   UNL     1      -8.365   8.412  71.483  1.00  0.00    -0.196 A  
HETATM   19  O   UNL     1      -8.861  18.623  66.105  1.00  0.00    -0.452 OA 
HETATM   20  C   UNL     1      -9.675   8.110  71.844  1.00  0.00    -0.268 A  
HETATM   21  C   UNL     1      -8.681  14.500  66.462  1.00  0.00    -0.079 A  
HETATM   22  O   UNL     1     -10.909  18.650  66.892  1.00  0.00    -0.356 OA 
HETATM   23  C   UNL     1     -10.728   8.787  71.239  1.00  0.00    -0.339 A  
HETATM   24  C   UNL     1     -10.447   9.741  70.264  1.00  0.00    -0.288 A  
HETATM   25  O   UNL     1     -11.550  10.358  69.671  1.00  0.00    -0.248 OA 
HETATM   26  C   UNL     1     -11.400  11.240  68.618  1.00  0.00    -0.273 C  
HETATM   27  O   UNL     1     -12.403  11.753  68.136  1.00  0.00    -0.389 OA 
ENDBRANCH   2   4
TORSDOF 1
ENDMDL
MODEL        4
REMARK 921   NORMALIZED FREE ENERGY PREDICTED BY IDOCK:   -6.90 KCAL/MOL
REMARK 922        TOTAL FREE ENERGY PREDICTED BY IDOCK:   -7.70 KCAL/MOL
REMARK 923 INTER-LIGAND FREE ENERGY PREDICTED BY IDOCK:   -7.36 KCAL/MOL
REMARK 924 INTRA-LIGAND FREE ENERGY PREDICTED BY IDOCK:   -0.34 KCAL/MOL
REMARK 927      BINDING AFFINITY PREDICTED BY RF-SCORE:    0.00 PKD
ROOT
HETATM    1  C   UNL     1     -11.428  13.775  64.568  1.00  0.00    -0.401 C  
HETATM    2  C   UNL     1     -11.457  14.712  65.755  1.00  0.00    -0.338 C  
HETATM    3  O   UNL     1     -11.153  15.899  65.661  1.00  0.00    -0.233 OA 
ENDROOT
BRANCH   2   4
HETATM    4  C   UNL     1     -11.793  14.056  67.075  1.00  0.00    -0.458 C  
HETATM    5  C   UNL     1     -10.638  13.297  67.772  1.00  0.00    -0.249 C  
HETATM    6  C   UNL     1      -9.433  14.205  68.028  1.00  0.00    -0.213 A  
HETATM    7  C   UNL     1     -11.110  12.510  69.007  1.00  0.00    -0.287 C  
HETATM    8  C   UNL     1     -10.711  11.251  69.285  1.00  0.00    -0.179 C  
HETATM    9  C   UNL     1      -9.523  15.323  68.873  1.00  0.00    -0.218 A  
HETATM   10  C   UNL     1     -11.392  10.443  70.301  1.00  0.00    -0.406 A  
HETATM   11  C   UNL     1      -8.494  16.265  68.928  1.00  0.00    -0.253 A  
HETATM   12  O   UNL     1      -9.705  10.588  68.611  1.00  0.00    -0.159 OA 
HETATM   13  C   UNL     1     -11.121   9.092  70.536  1.00  0.00    -0.308 A  
HETATM   14  C   UNL     1      -7.350  16.090  68.144  1.00  0.00    -0.127 A  
HETATM   15  H   UNL     1      -9.424   9.702  68.807  1.00  0.00     0.000 HD 
HETATM   16  N   UNL     1      -6.337  17.151  68.090  1.00  0.00    -0.144 N  
HETATM   17  C   UNL     1      -7.200  14.940  67.362  1.00  0.00    -0.213 A  
HETATM   18  C   UNL     1     -11.882   8.357  71.457  1.00  0.00    -0.345 A  
HETATM   19  O   UNL     1      -5.339  16.959  67.381  1.00  0.00    -0.116 OA 
HETATM   20  C   UNL     1     -12.914   8.969  72.163  1.00  0.00    -0.490 A  
HETATM   21  C   UNL     1      -8.240  14.004  67.308  1.00  0.00    -0.187 A  
HETATM   22  O   UNL     1      -6.551  18.185  68.740  1.00  0.00    -0.219 OA 
HETATM   23  C   UNL     1     -13.181  10.318  71.959  1.00  0.00    -0.516 A  
HETATM   24  C   UNL     1     -12.420  11.025  71.031  1.00  0.00    -0.409 A  
HETATM   25  O   UNL     1     -12.763  12.365  70.848  1.00  0.00    -0.287 OA 
HETATM   26  C   UNL     1     -12.151  13.138  69.880  1.00  0.00    -0.287 C  
HETATM   27  O   UNL     1     -12.492  14.309  69.764  1.00  0.00    -0.323 OA 
ENDBRANCH   2   4
TORSDOF 1
ENDMDL
MODEL        5
REMARK 921   NORMALIZED FREE ENERGY PREDICTED BY IDOCK:   -6.84 KCAL/MOL
REMARK 922        TOTAL FREE ENERGY PREDICTED BY IDOCK:   -7.64 KCAL/MOL
REMARK 923 INTER-LIGAND FREE ENERGY PREDICTED BY IDOCK:   -7.78 KCAL/MOL
REMARK 924 INTRA-LIGAND FREE ENERGY PREDICTED BY IDOCK:    0.14 KCAL/MOL
REMARK 927      BINDING AFFINITY PREDICTED BY RF-SCORE:    0.00 PKD
ROOT
HETATM    1  C   UNL     1     -11.834  14.713  70.920  1.00  0.00    -0.372 C  
HETATM    2  C   UNL     1     -11.807  14.869  69.415  1.00  0.00    -0.324 C  
HETATM    3  O   UNL     1     -12.257  14.012  68.659  1.00  0.00    -0.332 OA 
ENDROOT
BRANCH   2   4
HETATM    4  C   UNL     1     -11.097  16.108  68.917  1.00  0.00    -0.347 C  
HETATM    5  C   UNL     1      -9.835  15.871  68.055  1.00  0.00    -0.218 C  
HETATM    6  C   UNL     1     -10.139  15.016  66.823  1.00  0.00    -0.257 A  
HETATM    7  C   UNL     1      -9.076  17.174  67.748  1.00  0.00    -0.233 C  
HETATM    8  C   UNL     1      -7.733  17.288  67.817  1.00  0.00    -0.190 C  
HETATM    9  C   UNL     1     -11.024  15.455  65.826  1.00  0.00    -0.311 A  
HETATM   10  C   UNL     1      -7.078  18.599  67.796  1.00  0.00    -0.230 A  
HETATM   11  C   UNL     1     -11.466  14.586  64.825  1.00  0.00    -0.408 A  
HETATM   12  O   UNL     1      -6.870  16.223  67.988  1.00  0.00    -0.122 OA 
HETATM   13  C   UNL     1      -5.709  18.793  68.005  1.00  0.00    -0.191 A  
HETATM   14  C   UNL     1     -11.011  13.264  64.804  1.00  0.00    -0.350 A  
HETATM   15  H   UNL     1      -5.925  16.304  68.036  1.00  0.00     0.000 HD 
HETATM   16  N   UNL     1     -11.586  12.314  63.844  1.00  0.00    -0.404 N  
HETATM   17  C   UNL     1     -10.061  12.829  65.734  1.00  0.00    -0.296 A  
HETATM   18  C   UNL     1      -5.168  20.084  68.068  1.00  0.00    -0.197 A  
HETATM   19  O   UNL     1     -11.159  11.151  63.858  1.00  0.00    -0.335 OA 
HETATM   20  C   UNL     1      -5.989  21.198  67.911  1.00  0.00    -0.406 A  
HETATM   21  C   UNL     1      -9.630  13.705  66.737  1.00  0.00    -0.277 A  
HETATM   22  O   UNL     1     -12.480  12.726  63.091  1.00  0.00    -0.612 OA 
HETATM   23  C   UNL     1      -7.348  21.024  67.677  1.00  0.00    -0.218 A  
HETATM   24  C   UNL     1      -7.864  19.731  67.629  1.00  0.00    -0.291 A  
HETATM   25  O   UNL     1      -9.242  19.626  67.428  1.00  0.00    -0.305 OA 
HETATM   26  C   UNL     1      -9.883  18.403  67.468  1.00  0.00    -0.314 C  
HETATM   27  O   UNL     1     -11.094  18.370  67.285  1.00  0.00    -0.240 OA 
ENDBRANCH   2   4
TORSDOF 1
ENDMDL
MODEL        6
REMARK 921   NORMALIZED FREE ENERGY PREDICTED BY IDOCK:   -6.83 KCAL/MOL
REMARK 922        TOTAL FREE ENERGY PREDICTED BY IDOCK:   -7.63 KCAL/MOL
REMARK 923 INTER-LIGAND FREE ENERGY PREDICTED BY IDOCK:   -7.24 KCAL/MOL
REMARK 924 INTRA-LIGAND FREE ENERGY PREDICTED BY IDOCK:   -0.39 KCAL/MOL
REMARK 927      BINDING AFFINITY PREDICTED BY RF-SCORE:    0.00 PKD
ROOT
HETATM    1  C   UNL     1      -8.707  17.966  68.125  1.00  0.00    -0.268 C  
HETATM    2  C   UNL     1     -10.116  17.741  67.621  1.00  0.00    -0.342 C  
HETATM    3  O   UNL     1     -11.020  18.548  67.820  1.00  0.00    -0.329 OA 
ENDROOT
BRANCH   2   4
HETATM    4  C   UNL     1     -10.344  16.407  66.946  1.00  0.00    -0.300 C  
HETATM    5  C   UNL     1     -10.037  15.151  67.796  1.00  0.00    -0.230 C  
HETATM    6  C   UNL     1     -10.849  15.129  69.093  1.00  0.00    -0.251 A  
HETATM    7  C   UNL     1     -10.119  13.851  66.977  1.00  0.00    -0.256 C  
HETATM    8  C   UNL     1      -9.214  12.853  67.071  1.00  0.00    -0.226 C  
HETATM    9  C   UNL     1     -12.252  15.067  69.079  1.00  0.00    -0.160 A  
HETATM   10  C   UNL     1      -9.169  11.771  66.084  1.00  0.00    -0.218 A  
HETATM   11  C   UNL     1     -12.990  15.270  70.248  1.00  0.00    -0.228 A  
HETATM   12  O   UNL     1      -8.221  12.793  68.029  1.00  0.00    -0.147 OA 
HETATM   13  C   UNL     1      -8.173  10.791  66.043  1.00  0.00    -0.164 A  
HETATM   14  C   UNL     1     -12.327  15.524  71.452  1.00  0.00    -0.400 A  
HETATM   15  H   UNL     1      -7.585  12.091  68.094  1.00  0.00     0.000 HD 
HETATM   16  N   UNL     1     -13.102  15.883  72.646  1.00  0.00    -0.473 N  
HETATM   17  C   UNL     1     -10.929  15.504  71.507  1.00  0.00    -0.151 A  
HETATM   18  C   UNL     1      -8.139   9.844  65.010  1.00  0.00    -0.140 A  
HETATM   19  O   UNL     1     -12.478  16.104  73.694  1.00  0.00    -0.489 OA 
HETATM   20  C   UNL     1      -9.109   9.859  64.011  1.00  0.00    -0.300 A  
HETATM   21  C   UNL     1     -10.198  15.306  70.329  1.00  0.00    -0.098 A  
HETATM   22  O   UNL     1     -14.333  15.964  72.530  1.00  0.00    -0.468 OA 
HETATM   23  C   UNL     1     -10.121  10.811  64.049  1.00  0.00    -0.410 A  
HETATM   24  C   UNL     1     -10.128  11.748  65.080  1.00  0.00    -0.263 A  
HETATM   25  O   UNL     1     -11.150  12.699  65.040  1.00  0.00    -0.279 OA 
HETATM   26  C   UNL     1     -11.198  13.741  65.945  1.00  0.00    -0.302 C  
HETATM   27  O   UNL     1     -12.118  14.546  65.863  1.00  0.00    -0.354 OA 
ENDBRANCH   2   4
TORSDOF 1
ENDMDL
MODEL        7
REMARK 921   NORMALIZED FREE ENERGY PREDICTED BY IDOCK:   -6.75 KCAL/MOL
REMARK 922        TOTAL FREE ENERGY PREDICTED BY IDOCK:   -7.54 KCAL/MOL
REMARK 923 INTER-LIGAND FREE ENERGY PREDICTED BY IDOCK:   -7.14 KCAL/MOL
REMARK 924 INTRA-LIGAND FREE ENERGY PREDICTED BY IDOCK:   -0.40 KCAL/MOL
REMARK 927      BINDING AFFINITY PREDICTED BY RF-SCORE:    0.00 PKD
ROOT
HETATM    1  C   UNL     1     -12.163  12.532  64.927  1.00  0.00    -0.534 C  
HETATM    2  C   UNL     1     -11.027  11.746  65.545  1.00  0.00    -0.290 C  
HETATM    3  O   UNL     1      -9.989  11.504  64.934  1.00  0.00    -0.241 OA 
ENDROOT
BRANCH   2   4
HETATM    4  C   UNL     1     -11.309  11.201  66.927  1.00  0.00    -0.168 C  
HETATM    5  C   UNL     1     -10.268  11.542  68.019  1.00  0.00    -0.205 C  
HETATM    6  C   UNL     1     -10.080  13.053  68.175  1.00  0.00    -0.237 A  
HETATM    7  C   UNL     1     -10.534  10.800  69.341  1.00  0.00    -0.229 C  
HETATM    8  C   UNL     1      -9.564  10.213  70.074  1.00  0.00    -0.063 C  
HETATM    9  C   UNL     1     -11.133  13.885  68.586  1.00  0.00    -0.290 A  
HETATM   10  C   UNL     1      -9.888   9.285  71.161  1.00  0.00    -0.342 A  
HETATM   11  C   UNL     1     -11.020  15.275  68.513  1.00  0.00    -0.266 A  
HETATM   12  O   UNL     1      -8.213  10.359  69.833  1.00  0.00    -0.355 OA 
HETATM   13  C   UNL     1      -8.936   8.538  71.862  1.00  0.00    -0.301 A  
HETATM   14  C   UNL     1      -9.838  15.851  68.037  1.00  0.00    -0.218 A  
HETATM   15  H   UNL     1      -7.530   9.945  70.349  1.00  0.00     0.000 HD 
HETATM   16  N   UNL     1      -9.772  17.301  67.820  1.00  0.00    -0.264 N  
HETATM   17  C   UNL     1      -8.744  15.045  67.704  1.00  0.00    -0.182 A  
HETATM   18  C   UNL     1      -9.328   7.597  72.823  1.00  0.00    -0.236 A  
HETATM   19  O   UNL     1      -8.709  17.774  67.395  1.00  0.00    -0.231 OA 
HETATM   20  C   UNL     1     -10.677   7.399  73.105  1.00  0.00    -0.436 A  
HETATM   21  C   UNL     1      -8.869  13.652  67.775  1.00  0.00    -0.190 A  
HETATM   22  O   UNL     1     -10.793  17.965  68.056  1.00  0.00    -0.347 OA 
HETATM   23  C   UNL     1     -11.636   8.150  72.436  1.00  0.00    -0.463 A  
HETATM   24  C   UNL     1     -11.224   9.072  71.476  1.00  0.00    -0.348 A  
HETATM   25  O   UNL     1     -12.238   9.767  70.815  1.00  0.00    -0.286 OA 
HETATM   26  C   UNL     1     -11.957  10.628  69.771  1.00  0.00    -0.291 C  
HETATM   27  O   UNL     1     -12.887  11.212  69.227  1.00  0.00    -0.131 OA 
ENDBRANCH   2   4
TORSDOF 1
ENDMDL
MODEL        8
REMARK 921   NORMALIZED FREE ENERGY PREDICTED BY IDOCK:   -6.72 KCAL/MOL
REMARK 922        TOTAL FREE ENERGY PREDICTED BY IDOCK:   -7.52 KCAL/MOL
REMARK 923 INTER-LIGAND FREE ENERGY PREDICTED BY IDOCK:   -7.35 KCAL/MOL
REMARK 924 INTRA-LIGAND FREE ENERGY PREDICTED BY IDOCK:   -0.17 KCAL/MOL
REMARK 927      BINDING AFFINITY PREDICTED BY RF-SCORE:    0.00 PKD
ROOT
HETATM    1  C   UNL     1     -11.788  14.662  70.745  1.00  0.00    -0.372 C  
HETATM    2  C   UNL     1     -11.840  14.820  69.242  1.00  0.00    -0.318 C  
HETATM    3  O   UNL     1     -12.406  14.006  68.516  1.00  0.00    -0.265 OA 
ENDROOT
BRANCH   2   4
HETATM    4  C   UNL     1     -11.060  15.996  68.698  1.00  0.00    -0.349 C  
HETATM    5  C   UNL     1      -9.645  15.684  68.157  1.00  0.00    -0.196 C  
HETATM    6  C   UNL     1      -9.678  14.632  67.047  1.00  0.00    -0.247 A  
HETATM    7  C   UNL     1      -8.857  16.956  67.798  1.00  0.00    -0.217 C  
HETATM    8  C   UNL     1      -7.558  17.142  68.114  1.00  0.00    -0.208 C  
HETATM    9  C   UNL     1     -10.347  14.865  65.835  1.00  0.00    -0.330 A  
HETATM   10  C   UNL     1      -6.930  18.463  68.008  1.00  0.00    -0.231 A  
HETATM   11  C   UNL     1     -10.562  13.829  64.923  1.00  0.00    -0.427 A  
HETATM   12  O   UNL     1      -6.734  16.160  68.626  1.00  0.00    -0.120 OA 
HETATM   13  C   UNL     1      -5.636  18.751  68.452  1.00  0.00    -0.192 A  
HETATM   14  C   UNL     1     -10.095  12.543  65.211  1.00  0.00    -0.257 A  
HETATM   15  H   UNL     1      -5.820  16.291  68.849  1.00  0.00     0.000 HD 
HETATM   16  N   UNL     1     -10.448  11.427  64.325  1.00  0.00    -0.316 N  
HETATM   17  C   UNL     1      -9.349  12.306  66.371  1.00  0.00    -0.219 A  
HETATM   18  C   UNL     1      -5.138  20.061  68.408  1.00  0.00    -0.203 A  
HETATM   19  O   UNL     1     -10.017  10.302  64.616  1.00  0.00    -0.336 OA 
HETATM   20  C   UNL     1      -5.924  21.096  67.908  1.00  0.00    -0.406 A  
HETATM   21  C   UNL     1      -9.145  13.349  67.282  1.00  0.00    -0.222 A  
HETATM   22  O   UNL     1     -11.175  11.673  63.352  1.00  0.00    -0.396 OA 
HETATM   23  C   UNL     1      -7.203  20.823  67.440  1.00  0.00    -0.406 A  
HETATM   24  C   UNL     1      -7.681  19.516  67.504  1.00  0.00    -0.261 A  
HETATM   25  O   UNL     1      -8.987  19.317  67.051  1.00  0.00    -0.278 OA 
HETATM   26  C   UNL     1      -9.606  18.087  67.164  1.00  0.00    -0.281 C  
HETATM   27  O   UNL     1     -10.754  17.968  66.750  1.00  0.00    -0.299 OA 
ENDBRANCH   2   4
TORSDOF 1
ENDMDL
MODEL        9
REMARK 921   NORMALIZED FREE ENERGY PREDICTED BY IDOCK:   -6.70 KCAL/MOL
REMARK 922        TOTAL FREE ENERGY PREDICTED BY IDOCK:   -7.50 KCAL/MOL
REMARK 923 INTER-LIGAND FREE ENERGY PREDICTED BY IDOCK:   -7.08 KCAL/MOL
REMARK 924 INTRA-LIGAND FREE ENERGY PREDICTED BY IDOCK:   -0.41 KCAL/MOL
REMARK 927      BINDING AFFINITY PREDICTED BY RF-SCORE:    0.00 PKD
ROOT
HETATM    1  C   UNL     1     -10.659  10.847  64.819  1.00  0.00    -0.316 C  
HETATM    2  C   UNL     1     -11.382  12.101  65.261  1.00  0.00    -0.336 C  
HETATM    3  O   UNL     1     -12.590  12.252  65.100  1.00  0.00    -0.585 OA 
ENDROOT
BRANCH   2   4
HETATM    4  C   UNL     1     -10.489  13.184  65.823  1.00  0.00    -0.291 C  
HETATM    5  C   UNL     1     -10.828  13.675  67.251  1.00  0.00    -0.292 C  
HETATM    6  C   UNL     1     -10.816  12.529  68.264  1.00  0.00    -0.258 A  
HETATM    7  C   UNL     1      -9.992  14.897  67.669  1.00  0.00    -0.226 C  
HETATM    8  C   UNL     1     -10.508  15.970  68.306  1.00  0.00    -0.269 C  
HETATM    9  C   UNL     1      -9.645  11.803  68.537  1.00  0.00    -0.173 A  
HETATM   10  C   UNL     1      -9.749  17.218  68.431  1.00  0.00    -0.293 A  
HETATM   11  C   UNL     1      -9.689  10.627  69.289  1.00  0.00    -0.181 A  
HETATM   12  O   UNL     1     -11.788  16.028  68.818  1.00  0.00    -0.381 OA 
HETATM   13  C   UNL     1     -10.276  18.404  68.951  1.00  0.00    -0.284 A  
HETATM   14  C   UNL     1     -10.911  10.169  69.792  1.00  0.00    -0.279 A  
HETATM   15  H   UNL     1     -12.151  16.783  69.266  1.00  0.00     0.000 HD 
HETATM   16  N   UNL     1     -10.980   8.861  70.454  1.00  0.00    -0.240 N  
HETATM   17  C   UNL     1     -12.076  10.922  69.607  1.00  0.00    -0.400 A  
HETATM   18  C   UNL     1      -9.522  19.586  68.949  1.00  0.00    -0.426 A  
HETATM   19  O   UNL     1     -12.082   8.489  70.883  1.00  0.00    -0.253 OA 
HETATM   20  C   UNL     1      -8.226  19.592  68.438  1.00  0.00    -0.379 A  
HETATM   21  C   UNL     1     -12.023  12.096  68.847  1.00  0.00    -0.296 A  
HETATM   22  O   UNL     1      -9.936   8.196  70.524  1.00  0.00    -0.185 OA 
HETATM   23  C   UNL     1      -7.678  18.416  67.941  1.00  0.00    -0.261 A  
HETATM   24  C   UNL     1      -8.450  17.256  67.943  1.00  0.00    -0.218 A  
HETATM   25  O   UNL     1      -7.853  16.119  67.396  1.00  0.00    -0.134 OA 
HETATM   26  C   UNL     1      -8.557  14.940  67.246  1.00  0.00    -0.213 C  
HETATM   27  O   UNL     1      -7.983  13.973  66.759  1.00  0.00     0.084 OA 
ENDBRANCH   2   4
TORSDOF 1
ENDMDL
MODEL       10
REMARK 921   NORMALIZED FREE ENERGY PREDICTED BY IDOCK:   -6.64 KCAL/MOL
REMARK 922        TOTAL FREE ENERGY PREDICTED BY IDOCK:   -7.43 KCAL/MOL
REMARK 923 INTER-LIGAND FREE ENERGY PREDICTED BY IDOCK:   -7.06 KCAL/MOL
REMARK 924 INTRA-LIGAND FREE ENERGY PREDICTED BY IDOCK:   -0.37 KCAL/MOL
REMARK 927      BINDING AFFINITY PREDICTED BY RF-SCORE:    0.00 PKD
ROOT
HETATM    1  C   UNL     1     -10.013   4.895  68.839  1.00  0.00    -0.220 C  
HETATM    2  C   UNL     1     -10.882   6.130  68.928  1.00  0.00    -0.340 C  
HETATM    3  O   UNL     1     -11.770   6.248  69.768  1.00  0.00    -0.403 OA 
ENDROOT
BRANCH   2   4
HETATM    4  C   UNL     1     -10.638   7.158  67.846  1.00  0.00    -0.269 C  
HETATM    5  C   UNL     1     -10.517   8.627  68.316  1.00  0.00    -0.234 C  
HETATM    6  C   UNL     1      -9.400   8.804  69.348  1.00  0.00    -0.157 A  
HETATM    7  C   UNL     1     -10.455   9.620  67.142  1.00  0.00    -0.317 C  
HETATM    8  C   UNL     1     -11.141  10.782  67.112  1.00  0.00    -0.227 C  
HETATM    9  C   UNL     1      -8.058   8.549  69.027  1.00  0.00    -0.115 A  
HETATM   10  C   UNL     1     -11.278  11.553  65.873  1.00  0.00    -0.239 A  
HETATM   11  C   UNL     1      -7.079   8.498  70.023  1.00  0.00    -0.046 A  
HETATM   12  O   UNL     1     -11.827  11.307  68.189  1.00  0.00    -0.553 OA 
HETATM   13  C   UNL     1     -12.088  12.685  65.742  1.00  0.00    -0.484 A  
HETATM   14  C   UNL     1      -7.435   8.717  71.357  1.00  0.00    -0.101 A  
HETATM   15  H   UNL     1     -12.310  12.125  68.167  1.00  0.00     0.000 HD 
HETATM   16  N   UNL     1      -6.439   8.519  72.416  1.00  0.00    -0.086 N  
HETATM   17  C   UNL     1      -8.750   9.060  71.690  1.00  0.00    -0.077 A  
HETATM   18  C   UNL     1     -12.247  13.314  64.500  1.00  0.00    -0.456 A  
HETATM   19  O   UNL     1      -6.793   8.720  73.587  1.00  0.00    -0.322 OA 
HETATM   20  C   UNL     1     -11.586  12.827  63.375  1.00  0.00    -0.506 A  
HETATM   21  C   UNL     1      -9.724   9.103  70.686  1.00  0.00    -0.314 A  
HETATM   22  O   UNL     1      -5.308   8.139  72.079  1.00  0.00    -0.035 OA 
HETATM   23  C   UNL     1     -10.756  11.718  63.492  1.00  0.00    -0.501 A  
HETATM   24  C   UNL     1     -10.623  11.102  64.735  1.00  0.00    -0.303 A  
HETATM   25  O   UNL     1      -9.804   9.972  64.776  1.00  0.00    -0.322 OA 
HETATM   26  C   UNL     1      -9.680   9.217  65.926  1.00  0.00    -0.266 C  
HETATM   27  O   UNL     1      -8.947   8.235  65.906  1.00  0.00    -0.170 OA 
ENDBRANCH   2   4
TORSDOF 1
ENDMDL
MODEL       11
REMARK 921   NORMALIZED FREE ENERGY PREDICTED BY IDOCK:   -6.60 KCAL/MOL
REMARK 922        TOTAL FREE ENERGY PREDICTED BY IDOCK:   -7.39 KCAL/MOL
REMARK 923 INTER-LIGAND FREE ENERGY PREDICTED BY IDOCK:   -7.13 KCAL/MOL
REMARK 924 INTRA-LIGAND FREE ENERGY PREDICTED BY IDOCK:   -0.26 KCAL/MOL
REMARK 927      BINDING AFFINITY PREDICTED BY RF-SCORE:    0.00 PKD
ROOT
HETATM    1  C   UNL     1      -8.045  13.938  68.655  1.00  0.00    -0.097 C  
HETATM    2  C   UNL     1      -7.756  12.769  67.739  1.00  0.00    -0.152 C  
HETATM    3  O   UNL     1      -7.103  12.891  66.706  1.00  0.00     0.192 OA 
ENDROOT
BRANCH   2   4
HETATM    4  C   UNL     1      -8.413  11.468  68.142  1.00  0.00    -0.154 C  
HETATM    5  C   UNL     1      -9.914  11.548  68.510  1.00  0.00    -0.207 C  
HETATM    6  C   UNL     1     -10.750  12.125  67.366  1.00  0.00    -0.268 A  
HETATM    7  C   UNL     1     -10.452  10.224  69.081  1.00  0.00    -0.246 C  
HETATM    8  C   UNL     1     -11.265  10.153  70.157  1.00  0.00    -0.310 C  
HETATM    9  C   UNL     1     -10.847  11.473  66.127  1.00  0.00    -0.330 A  
HETATM   10  C   UNL     1     -11.523   8.879  70.833  1.00  0.00    -0.339 A  
HETATM   11  C   UNL     1     -11.424  12.108  65.025  1.00  0.00    -0.377 A  
HETATM   12  O   UNL     1     -11.856  11.247  70.758  1.00  0.00    -0.358 OA 
HETATM   13  C   UNL     1     -12.237   8.759  72.029  1.00  0.00    -0.447 A  
HETATM   14  C   UNL     1     -11.927  13.406  65.157  1.00  0.00    -0.378 A  
HETATM   15  H   UNL     1     -12.428  11.196  71.515  1.00  0.00     0.000 HD 
HETATM   16  N   UNL     1     -12.398  14.127  63.969  1.00  0.00    -0.381 N  
HETATM   17  C   UNL     1     -11.922  14.042  66.404  1.00  0.00    -0.462 A  
HETATM   18  C   UNL     1     -12.360   7.519  72.671  1.00  0.00     0.078 A  
HETATM   19  O   UNL     1     -12.834  15.277  64.126  1.00  0.00    -0.559 OA 
HETATM   20  C   UNL     1     -11.780   6.380  72.117  1.00  0.00    -0.366 A  
HETATM   21  C   UNL     1     -11.335  13.399  67.500  1.00  0.00    -0.327 A  
HETATM   22  O   UNL     1     -12.311  13.552  62.874  1.00  0.00    -0.542 OA 
HETATM   23  C   UNL     1     -11.088   6.477  70.915  1.00  0.00    -0.345 A  
HETATM   24  C   UNL     1     -10.970   7.722  70.302  1.00  0.00    -0.247 A  
HETATM   25  O   UNL     1     -10.231   7.756  69.118  1.00  0.00    -0.198 OA 
HETATM   26  C   UNL     1      -9.955   8.948  68.477  1.00  0.00    -0.177 C  
HETATM   27  O   UNL     1      -9.303   8.919  67.440  1.00  0.00    -0.133 OA 
ENDBRANCH   2   4
TORSDOF 1
ENDMDL
MODEL       12
REMARK 921   NORMALIZED FREE ENERGY PREDICTED BY IDOCK:   -6.58 KCAL/MOL
REMARK 922        TOTAL FREE ENERGY PREDICTED BY IDOCK:   -7.37 KCAL/MOL
REMARK 923 INTER-LIGAND FREE ENERGY PREDICTED BY IDOCK:   -6.94 KCAL/MOL
REMARK 924 INTRA-LIGAND FREE ENERGY PREDICTED BY IDOCK:   -0.43 KCAL/MOL
REMARK 927      BINDING AFFINITY PREDICTED BY RF-SCORE:    0.00 PKD
ROOT
HETATM    1  C   UNL     1      -7.861  10.093  63.721  1.00  0.00    -0.149 C  
HETATM    2  C   UNL     1      -7.371  10.091  65.153  1.00  0.00    -0.139 C  
HETATM    3  O   UNL     1      -6.306  10.607  65.482  1.00  0.00    -0.126 OA 
ENDROOT
BRANCH   2   4
HETATM    4  C   UNL     1      -8.243   9.325  66.122  1.00  0.00    -0.111 C  
HETATM    5  C   UNL     1      -8.901  10.155  67.249  1.00  0.00    -0.137 C  
HETATM    6  C   UNL     1      -9.761  11.291  66.692  1.00  0.00    -0.222 A  
HETATM    7  C   UNL     1      -9.615   9.274  68.290  1.00  0.00    -0.160 C  
HETATM    8  C   UNL     1      -9.526   9.474  69.622  1.00  0.00    -0.199 C  
HETATM    9  C   UNL     1     -10.891  11.035  65.899  1.00  0.00    -0.183 A  
HETATM   10  C   UNL     1      -9.981   8.459  70.576  1.00  0.00    -0.205 A  
HETATM   11  C   UNL     1     -11.537  12.068  65.216  1.00  0.00    -0.337 A  
HETATM   12  O   UNL     1      -8.946  10.584  70.204  1.00  0.00    -0.264 OA 
HETATM   13  C   UNL     1      -9.789   8.544  71.959  1.00  0.00    -0.383 A  
HETATM   14  C   UNL     1     -11.064  13.378  65.332  1.00  0.00    -0.287 A  
HETATM   15  H   UNL     1      -8.884  10.724  71.142  1.00  0.00     0.000 HD 
HETATM   16  N   UNL     1     -11.649  14.438  64.501  1.00  0.00    -0.395 N  
HETATM   17  C   UNL     1      -9.995  13.670  66.186  1.00  0.00    -0.314 A  
HETATM   18  C   UNL     1     -10.163   7.488  72.801  1.00  0.00    -0.307 A  
HETATM   19  O   UNL     1     -11.201  15.586  64.631  1.00  0.00    -0.423 OA 
HETATM   20  C   UNL     1     -10.747   6.340  72.273  1.00  0.00    -0.263 A  
HETATM   21  C   UNL     1      -9.350  12.628  66.861  1.00  0.00    -0.228 A  
HETATM   22  O   UNL     1     -12.542  14.116  63.703  1.00  0.00    -0.831 OA 
HETATM   23  C   UNL     1     -10.969   6.249  70.904  1.00  0.00    -0.344 A  
HETATM   24  C   UNL     1     -10.578   7.306  70.085  1.00  0.00    -0.232 A  
HETATM   25  O   UNL     1     -10.795   7.136  68.716  1.00  0.00    -0.196 OA 
HETATM   26  C   UNL     1     -10.353   8.068  67.797  1.00  0.00    -0.231 C  
HETATM   27  O   UNL     1     -10.571   7.868  66.608  1.00  0.00    -0.276 OA 
ENDBRANCH   2   4
TORSDOF 1
ENDMDL
MODEL       13
REMARK 921   NORMALIZED FREE ENERGY PREDICTED BY IDOCK:   -6.54 KCAL/MOL
REMARK 922        TOTAL FREE ENERGY PREDICTED BY IDOCK:   -7.32 KCAL/MOL
REMARK 923 INTER-LIGAND FREE ENERGY PREDICTED BY IDOCK:   -6.92 KCAL/MOL
REMARK 924 INTRA-LIGAND FREE ENERGY PREDICTED BY IDOCK:   -0.40 KCAL/MOL
REMARK 927      BINDING AFFINITY PREDICTED BY RF-SCORE:    0.00 PKD
ROOT
HETATM    1  C   UNL     1      -6.178  10.541  65.429  1.00  0.00    -0.110 C  
HETATM    2  C   UNL     1      -7.507  10.035  64.911  1.00  0.00    -0.140 C  
HETATM    3  O   UNL     1      -7.890  10.254  63.765  1.00  0.00    -0.154 OA 
ENDROOT
BRANCH   2   4
HETATM    4  C   UNL     1      -8.363   9.330  65.939  1.00  0.00    -0.122 C  
HETATM    5  C   UNL     1      -8.886  10.202  67.104  1.00  0.00    -0.138 C  
HETATM    6  C   UNL     1      -9.701  11.395  66.601  1.00  0.00    -0.224 A  
HETATM    7  C   UNL     1      -9.588   9.372  68.193  1.00  0.00    -0.158 C  
HETATM    8  C   UNL     1      -9.398   9.564  69.516  1.00  0.00    -0.190 C  
HETATM    9  C   UNL     1     -10.896  11.219  65.886  1.00  0.00    -0.264 A  
HETATM   10  C   UNL     1      -9.858   8.582  70.502  1.00  0.00    -0.206 A  
HETATM   11  C   UNL     1     -11.513  12.294  65.243  1.00  0.00    -0.399 A  
HETATM   12  O   UNL     1      -8.705  10.630  70.054  1.00  0.00    -0.276 OA 
HETATM   13  C   UNL     1      -9.569   8.651  71.868  1.00  0.00    -0.377 A  
HETATM   14  C   UNL     1     -10.944  13.569  65.323  1.00  0.00    -0.295 A  
HETATM   15  H   UNL     1      -8.571  10.765  70.985  1.00  0.00     0.000 HD 
HETATM   16  N   UNL     1     -11.508  14.667  64.529  1.00  0.00    -0.363 N  
HETATM   17  C   UNL     1      -9.803  13.786  66.103  1.00  0.00    -0.310 A  
HETATM   18  C   UNL     1      -9.959   7.623  72.737  1.00  0.00    -0.298 A  
HETATM   19  O   UNL     1     -10.975  15.782  64.624  1.00  0.00    -0.446 OA 
HETATM   20  C   UNL     1     -10.654   6.518  72.252  1.00  0.00    -0.238 A  
HETATM   21  C   UNL     1      -9.188  12.700  66.738  1.00  0.00    -0.225 A  
HETATM   22  O   UNL     1     -12.472  14.409  63.793  1.00  0.00    -0.814 OA 
HETATM   23  C   UNL     1     -10.971   6.445  70.901  1.00  0.00    -0.335 A  
HETATM   24  C   UNL     1     -10.564   7.473  70.055  1.00  0.00    -0.237 A  
HETATM   25  O   UNL     1     -10.883   7.320  68.704  1.00  0.00    -0.170 OA 
HETATM   26  C   UNL     1     -10.439   8.220  67.755  1.00  0.00    -0.215 C  
HETATM   27  O   UNL     1     -10.749   8.037  66.583  1.00  0.00    -0.215 OA 
ENDBRANCH   2   4
TORSDOF 1
ENDMDL
MODEL       14
REMARK 921   NORMALIZED FREE ENERGY PREDICTED BY IDOCK:   -6.52 KCAL/MOL
REMARK 922        TOTAL FREE ENERGY PREDICTED BY IDOCK:   -7.30 KCAL/MOL
REMARK 923 INTER-LIGAND FREE ENERGY PREDICTED BY IDOCK:   -6.93 KCAL/MOL
REMARK 924 INTRA-LIGAND FREE ENERGY PREDICTED BY IDOCK:   -0.37 KCAL/MOL
REMARK 927      BINDING AFFINITY PREDICTED BY RF-SCORE:    0.00 PKD
ROOT
HETATM    1  C   UNL     1     -12.057  12.143  70.341  1.00  0.00    -0.395 C  
HETATM    2  C   UNL     1     -12.027  12.044  68.831  1.00  0.00    -0.246 C  
HETATM    3  O   UNL     1     -12.174  10.977  68.241  1.00  0.00    -0.582 OA 
ENDROOT
BRANCH   2   4
HETATM    4  C   UNL     1     -11.704  13.337  68.116  1.00  0.00    -0.397 C  
HETATM    5  C   UNL     1     -10.225  13.789  68.159  1.00  0.00    -0.253 C  
HETATM    6  C   UNL     1      -9.288  12.725  67.583  1.00  0.00    -0.191 A  
HETATM    7  C   UNL     1     -10.021  15.196  67.570  1.00  0.00    -0.225 C  
HETATM    8  C   UNL     1      -9.236  16.134  68.139  1.00  0.00    -0.193 C  
HETATM    9  C   UNL     1      -9.372  12.322  66.241  1.00  0.00    -0.206 A  
HETATM   10  C   UNL     1      -9.290  17.535  67.709  1.00  0.00    -0.257 A  
HETATM   11  C   UNL     1      -8.671  11.204  65.782  1.00  0.00    -0.153 A  
HETATM   12  O   UNL     1      -8.386  15.897  69.201  1.00  0.00    -0.228 OA 
HETATM   13  C   UNL     1      -8.611  18.576  68.349  1.00  0.00    -0.355 A  
HETATM   14  C   UNL     1      -7.863  10.481  66.665  1.00  0.00    -0.125 A  
HETATM   15  H   UNL     1      -7.834  16.558  69.601  1.00  0.00     0.000 HD 
HETATM   16  N   UNL     1      -7.245   9.225  66.222  1.00  0.00    -0.087 N  
HETATM   17  C   UNL     1      -7.695  10.915  67.984  1.00  0.00    -0.101 A  
HETATM   18  C   UNL     1      -8.788  19.906  67.942  1.00  0.00    -0.365 A  
HETATM   19  O   UNL     1      -6.538   8.613  67.035  1.00  0.00    -0.057 OA 
HETATM   20  C   UNL     1      -9.638  20.209  66.882  1.00  0.00    -0.564 A  
HETATM   21  C   UNL     1      -8.406  12.033  68.436  1.00  0.00    -0.151 A  
HETATM   22  O   UNL     1      -7.486   8.841  65.069  1.00  0.00    -0.093 OA 
HETATM   23  C   UNL     1     -10.302  19.184  66.218  1.00  0.00    -0.553 A  
HETATM   24  C   UNL     1     -10.118  17.871  66.647  1.00  0.00    -0.362 A  
HETATM   25  O   UNL     1     -10.842  16.894  65.962  1.00  0.00    -0.169 OA 
HETATM   26  C   UNL     1     -10.825  15.572  66.365  1.00  0.00    -0.277 C  
HETATM   27  O   UNL     1     -11.479  14.757  65.726  1.00  0.00    -0.349 OA 
ENDBRANCH   2   4
TORSDOF 1
ENDMDL
MODEL       15
REMARK 921   NORMALIZED FREE ENERGY PREDICTED BY IDOCK:   -6.49 KCAL/MOL
REMARK 922        TOTAL FREE ENERGY PREDICTED BY IDOCK:   -7.27 KCAL/MOL
REMARK 923 INTER-LIGAND FREE ENERGY PREDICTED BY IDOCK:   -7.27 KCAL/MOL
REMARK 924 INTRA-LIGAND FREE ENERGY PREDICTED BY IDOCK:   -0.00 KCAL/MOL
REMARK 927      BINDING AFFINITY PREDICTED BY RF-SCORE:    0.00 PKD
ROOT
HETATM    1  C   UNL     1     -12.270  14.185  71.036  1.00  0.00    -0.432 C  
HETATM    2  C   UNL     1     -12.018  14.332  69.551  1.00  0.00    -0.336 C  
HETATM    3  O   UNL     1     -12.399  13.495  68.736  1.00  0.00    -0.235 OA 
ENDROOT
BRANCH   2   4
HETATM    4  C   UNL     1     -11.180  15.529  69.164  1.00  0.00    -0.300 C  
HETATM    5  C   UNL     1      -9.743  15.227  68.677  1.00  0.00    -0.212 C  
HETATM    6  C   UNL     1      -9.736  14.281  67.474  1.00  0.00    -0.223 A  
HETATM    7  C   UNL     1      -8.906  16.503  68.481  1.00  0.00    -0.228 C  
HETATM    8  C   UNL     1      -7.624  16.623  68.886  1.00  0.00    -0.240 C  
HETATM    9  C   UNL     1     -10.326  14.643  66.253  1.00  0.00    -0.301 A  
HETATM   10  C   UNL     1      -6.960  17.929  68.938  1.00  0.00    -0.260 A  
HETATM   11  C   UNL     1     -10.512  13.700  65.239  1.00  0.00    -0.362 A  
HETATM   12  O   UNL     1      -6.855  15.575  69.351  1.00  0.00    -0.150 OA 
HETATM   13  C   UNL     1      -5.688  18.138  69.479  1.00  0.00    -0.230 A  
HETATM   14  C   UNL     1     -10.092  12.381  65.433  1.00  0.00    -0.269 A  
HETATM   15  H   UNL     1      -5.953  15.659  69.636  1.00  0.00     0.000 HD 
HETATM   16  N   UNL     1     -10.419  11.360  64.430  1.00  0.00    -0.306 N  
HETATM   17  C   UNL     1      -9.422  12.018  66.606  1.00  0.00    -0.222 A  
HETATM   18  C   UNL     1      -5.157  19.431  69.584  1.00  0.00    -0.198 A  
HETATM   19  O   UNL     1     -10.032  10.201  64.639  1.00  0.00    -0.328 OA 
HETATM   20  C   UNL     1      -5.887  20.530  69.138  1.00  0.00    -0.392 A  
HETATM   21  C   UNL     1      -9.247  12.968  67.620  1.00  0.00    -0.200 A  
HETATM   22  O   UNL     1     -11.081  11.713  63.444  1.00  0.00    -0.396 OA 
HETATM   23  C   UNL     1      -7.143  20.337  68.575  1.00  0.00    -0.206 A  
HETATM   24  C   UNL     1      -7.655  19.044  68.491  1.00  0.00    -0.329 A  
HETATM   25  O   UNL     1      -8.936  18.924  67.949  1.00  0.00    -0.287 OA 
HETATM   26  C   UNL     1      -9.590  17.708  67.913  1.00  0.00    -0.282 C  
HETATM   27  O   UNL     1     -10.713  17.661  67.426  1.00  0.00    -0.340 OA 
ENDBRANCH   2   4
TORSDOF 1
ENDMDL
MODEL       16
REMARK 921   NORMALIZED FREE ENERGY PREDICTED BY IDOCK:   -6.41 KCAL/MOL
REMARK 922        TOTAL FREE ENERGY PREDICTED BY IDOCK:   -7.18 KCAL/MOL
REMARK 923 INTER-LIGAND FREE ENERGY PREDICTED BY IDOCK:   -6.82 KCAL/MOL
REMARK 924 INTRA-LIGAND FREE ENERGY PREDICTED BY IDOCK:   -0.36 KCAL/MOL
REMARK 927      BINDING AFFINITY PREDICTED BY RF-SCORE:    0.00 PKD
ROOT
HETATM    1  C   UNL     1     -11.794  13.394  69.325  1.00  0.00    -0.385 C  
HETATM    2  C   UNL     1     -11.779  11.916  69.002  1.00  0.00    -0.331 C  
HETATM    3  O   UNL     1     -12.785  11.216  69.086  1.00  0.00    -0.255 OA 
ENDROOT
BRANCH   2   4
HETATM    4  C   UNL     1     -10.416  11.353  68.666  1.00  0.00    -0.224 C  
HETATM    5  C   UNL     1     -10.146  11.070  67.169  1.00  0.00    -0.227 C  
HETATM    6  C   UNL     1     -10.324  12.325  66.312  1.00  0.00    -0.257 A  
HETATM    7  C   UNL     1      -8.815  10.332  66.939  1.00  0.00    -0.141 C  
HETATM    8  C   UNL     1      -8.676   9.297  66.084  1.00  0.00    -0.149 C  
HETATM    9  C   UNL     1      -9.510  13.456  66.488  1.00  0.00    -0.252 A  
HETATM   10  C   UNL     1      -7.480   8.449  66.104  1.00  0.00    -0.088 A  
HETATM   11  C   UNL     1      -9.819  14.666  65.862  1.00  0.00    -0.358 A  
HETATM   12  O   UNL     1      -9.645   8.894  65.187  1.00  0.00    -0.435 OA 
HETATM   13  C   UNL     1      -7.336   7.282  65.347  1.00  0.00    -0.079 A  
HETATM   14  C   UNL     1     -10.943  14.753  65.036  1.00  0.00    -0.414 A  
HETATM   15  H   UNL     1      -9.546   8.165  64.585  1.00  0.00     0.000 HD 
HETATM   16  N   UNL     1     -11.350  16.057  64.498  1.00  0.00    -0.402 N  
HETATM   17  C   UNL     1     -11.718  13.617  64.776  1.00  0.00    -0.399 A  
HETATM   18  C   UNL     1      -6.204   6.468  65.491  1.00  0.00    -0.034 A  
HETATM   19  O   UNL     1     -12.354  16.094  63.772  1.00  0.00    -0.864 OA 
HETATM   20  C   UNL     1      -5.196   6.818  66.385  1.00  0.00    -0.017 A  
HETATM   21  C   UNL     1     -11.405  12.411  65.413  1.00  0.00    -0.379 A  
HETATM   22  O   UNL     1     -10.677  17.047  64.820  1.00  0.00    -0.760 OA 
HETATM   23  C   UNL     1      -5.311   7.987  67.128  1.00  0.00    -0.036 A  
HETATM   24  C   UNL     1      -6.450   8.774  66.976  1.00  0.00    -0.061 A  
HETATM   25  O   UNL     1      -6.520   9.915  67.778  1.00  0.00    -0.062 OA 
HETATM   26  C   UNL     1      -7.647  10.714  67.793  1.00  0.00    -0.095 C  
HETATM   27  O   UNL     1      -7.653  11.704  68.516  1.00  0.00    -0.114 OA 
ENDBRANCH   2   4
TORSDOF 1
ENDMDL
MODEL       17
REMARK 921   NORMALIZED FREE ENERGY PREDICTED BY IDOCK:   -6.30 KCAL/MOL
REMARK 922        TOTAL FREE ENERGY PREDICTED BY IDOCK:   -7.07 KCAL/MOL
REMARK 923 INTER-LIGAND FREE ENERGY PREDICTED BY IDOCK:   -6.67 KCAL/MOL
REMARK 924 INTRA-LIGAND FREE ENERGY PREDICTED BY IDOCK:   -0.40 KCAL/MOL
REMARK 927      BINDING AFFINITY PREDICTED BY RF-SCORE:    0.00 PKD
ROOT
HETATM    1  C   UNL     1     -12.172  12.205  64.755  1.00  0.00    -0.341 C  
HETATM    2  C   UNL     1     -12.497  13.572  65.315  1.00  0.00    -0.482 C  
HETATM    3  O   UNL     1     -13.653  13.954  65.481  1.00  0.00    -0.579 OA 
ENDROOT
BRANCH   2   4
HETATM    4  C   UNL     1     -11.298  14.461  65.558  1.00  0.00    -0.334 C  
HETATM    5  C   UNL     1     -11.188  15.086  66.969  1.00  0.00    -0.328 C  
HETATM    6  C   UNL     1     -11.170  14.018  68.064  1.00  0.00    -0.302 A  
HETATM    7  C   UNL     1     -10.049  16.115  67.071  1.00  0.00    -0.270 C  
HETATM    8  C   UNL     1     -10.174  17.306  67.694  1.00  0.00    -0.333 C  
HETATM    9  C   UNL     1     -10.139  13.069  68.147  1.00  0.00    -0.237 A  
HETATM   10  C   UNL     1      -9.172  18.362  67.526  1.00  0.00    -0.277 A  
HETATM   11  C   UNL     1     -10.241  11.971  69.004  1.00  0.00     0.015 A  
HETATM   12  O   UNL     1     -11.260  17.669  68.465  1.00  0.00    -0.110 OA 
HETATM   13  C   UNL     1      -9.312  19.660  68.027  1.00  0.00    -0.425 A  
HETATM   14  C   UNL     1     -11.378  11.818  69.803  1.00  0.00    -0.170 A  
HETATM   15  H   UNL     1     -11.348  18.507  68.903  1.00  0.00     0.000 HD 
HETATM   16  N   UNL     1     -11.552  10.593  70.592  1.00  0.00    -0.342 N  
HETATM   17  C   UNL     1     -12.378  12.797  69.803  1.00  0.00    -0.096 A  
HETATM   18  C   UNL     1      -8.357  20.646  67.743  1.00  0.00    -0.104 A  
HETATM   19  O   UNL     1     -12.575  10.493  71.285  1.00  0.00    -0.352 OA 
HETATM   20  C   UNL     1      -7.243  20.343  66.965  1.00  0.00    -0.347 A  
HETATM   21  C   UNL     1     -12.269  13.891  68.936  1.00  0.00    -0.257 A  
HETATM   22  O   UNL     1     -10.677   9.720  70.499  1.00  0.00    -0.275 OA 
HETATM   23  C   UNL     1      -7.075  19.051  66.480  1.00  0.00    -0.234 A  
HETATM   24  C   UNL     1      -8.042  18.091  66.765  1.00  0.00    -0.242 A  
HETATM   25  O   UNL     1      -7.832  16.824  66.218  1.00  0.00    -0.294 OA 
HETATM   26  C   UNL     1      -8.774  15.822  66.343  1.00  0.00    -0.337 C  
HETATM   27  O   UNL     1      -8.536  14.729  65.842  1.00  0.00     0.382 OA 
ENDBRANCH   2   4
TORSDOF 1
ENDMDL
MODEL       18
REMARK 921   NORMALIZED FREE ENERGY PREDICTED BY IDOCK:   -6.28 KCAL/MOL
REMARK 922        TOTAL FREE ENERGY PREDICTED BY IDOCK:   -7.05 KCAL/MOL
REMARK 923 INTER-LIGAND FREE ENERGY PREDICTED BY IDOCK:   -6.62 KCAL/MOL
REMARK 924 INTRA-LIGAND FREE ENERGY PREDICTED BY IDOCK:   -0.43 KCAL/MOL
REMARK 927      BINDING AFFINITY PREDICTED BY RF-SCORE:    0.00 PKD
ROOT
HETATM    1  C   UNL     1     -11.679   8.060  71.128  1.00  0.00    -0.307 C  
HETATM    2  C   UNL     1     -10.645   9.164  71.171  1.00  0.00    -0.309 C  
HETATM    3  O   UNL     1      -9.759   9.199  72.021  1.00  0.00    -0.283 OA 
ENDROOT
BRANCH   2   4
HETATM    4  C   UNL     1     -10.848  10.265  70.155  1.00  0.00    -0.362 C  
HETATM    5  C   UNL     1      -9.736  10.423  69.091  1.00  0.00    -0.234 C  
HETATM    6  C   UNL     1      -9.518   9.131  68.299  1.00  0.00    -0.152 A  
HETATM    7  C   UNL     1      -9.930  11.674  68.216  1.00  0.00    -0.201 C  
HETATM    8  C   UNL     1      -8.925  12.509  67.877  1.00  0.00    -0.188 C  
HETATM    9  C   UNL     1     -10.532   8.581  67.499  1.00  0.00    -0.328 A  
HETATM   10  C   UNL     1      -9.194  13.825  67.291  1.00  0.00    -0.239 A  
HETATM   11  C   UNL     1     -10.405   7.298  66.961  1.00  0.00    -0.376 A  
HETATM   12  O   UNL     1      -7.589  12.252  68.112  1.00  0.00    -0.108 OA 
HETATM   13  C   UNL     1      -8.210  14.789  67.050  1.00  0.00    -0.211 A  
HETATM   14  C   UNL     1      -9.247   6.554  67.208  1.00  0.00    -0.120 A  
HETATM   15  H   UNL     1      -6.882  12.840  67.874  1.00  0.00     0.000 HD 
HETATM   16  N   UNL     1      -9.175   5.156  66.768  1.00  0.00    -0.120 N  
HETATM   17  C   UNL     1      -8.187   7.116  67.928  1.00  0.00    -0.119 A  
HETATM   18  C   UNL     1      -8.555  16.064  66.578  1.00  0.00    -0.344 A  
HETATM   19  O   UNL     1      -8.133   4.528  67.008  1.00  0.00    -0.101 OA 
HETATM   20  C   UNL     1      -9.886  16.385  66.329  1.00  0.00    -0.336 A  
HETATM   21  C   UNL     1      -8.327   8.399  68.468  1.00  0.00    -0.131 A  
HETATM   22  O   UNL     1     -10.170   4.678  66.203  1.00  0.00    -0.241 OA 
HETATM   23  C   UNL     1     -10.875  15.430  66.539  1.00  0.00    -0.298 A  
HETATM   24  C   UNL     1     -10.510  14.175  67.019  1.00  0.00    -0.271 A  
HETATM   25  O   UNL     1     -11.553  13.275  67.243  1.00  0.00    -0.319 OA 
HETATM   26  C   UNL     1     -11.326  12.039  67.818  1.00  0.00    -0.303 C  
HETATM   27  O   UNL     1     -12.280  11.289  67.991  1.00  0.00    -0.621 OA 
ENDBRANCH   2   4
TORSDOF 1
ENDMDL
MODEL       19
REMARK 921   NORMALIZED FREE ENERGY PREDICTED BY IDOCK:   -6.26 KCAL/MOL
REMARK 922        TOTAL FREE ENERGY PREDICTED BY IDOCK:   -7.03 KCAL/MOL
REMARK 923 INTER-LIGAND FREE ENERGY PREDICTED BY IDOCK:   -6.67 KCAL/MOL
REMARK 924 INTRA-LIGAND FREE ENERGY PREDICTED BY IDOCK:   -0.36 KCAL/MOL
REMARK 927      BINDING AFFINITY PREDICTED BY RF-SCORE:    0.00 PKD
ROOT
HETATM    1  C   UNL     1     -10.700   6.038  67.194  1.00  0.00    -0.409 C  
HETATM    2  C   UNL     1      -9.469   6.596  67.875  1.00  0.00    -0.117 C  
HETATM    3  O   UNL     1      -8.739   5.902  68.580  1.00  0.00    -0.110 OA 
ENDROOT
BRANCH   2   4
HETATM    4  C   UNL     1      -9.265   8.084  67.702  1.00  0.00    -0.145 C  
HETATM    5  C   UNL     1     -10.179   9.000  68.550  1.00  0.00    -0.224 C  
HETATM    6  C   UNL     1     -10.043   8.712  70.047  1.00  0.00    -0.195 A  
HETATM    7  C   UNL     1     -10.032  10.486  68.178  1.00  0.00    -0.172 C  
HETATM    8  C   UNL     1     -11.080  11.326  68.040  1.00  0.00    -0.266 C  
HETATM    9  C   UNL     1      -8.828   8.901  70.723  1.00  0.00    -0.250 A  
HETATM   10  C   UNL     1     -10.923  12.643  67.415  1.00  0.00    -0.289 A  
HETATM   11  C   UNL     1      -8.652   8.429  72.026  1.00  0.00    -0.254 A  
HETATM   12  O   UNL     1     -12.379  11.012  68.388  1.00  0.00    -0.762 OA 
HETATM   13  C   UNL     1     -11.988  13.498  67.115  1.00  0.00    -0.426 A  
HETATM   14  C   UNL     1      -9.702   7.772  72.675  1.00  0.00    -0.218 A  
HETATM   15  H   UNL     1     -13.116  11.604  68.291  1.00  0.00     0.000 HD 
HETATM   16  N   UNL     1      -9.471   7.149  73.983  1.00  0.00    -0.252 N  
HETATM   17  C   UNL     1     -10.950   7.650  72.053  1.00  0.00    -0.291 A  
HETATM   18  C   UNL     1     -11.771  14.700  66.427  1.00  0.00    -0.329 A  
HETATM   19  O   UNL     1     -10.426   6.573  74.525  1.00  0.00    -0.275 OA 
HETATM   20  C   UNL     1     -10.484  15.068  66.043  1.00  0.00    -0.326 A  
HETATM   21  C   UNL     1     -11.114   8.120  70.745  1.00  0.00    -0.275 A  
HETATM   22  O   UNL     1      -8.329   7.216  74.459  1.00  0.00    -0.161 OA 
HETATM   23  C   UNL     1      -9.411  14.242  66.355  1.00  0.00    -0.297 A  
HETATM   24  C   UNL     1      -9.652  13.047  67.029  1.00  0.00    -0.236 A  
HETATM   25  O   UNL     1      -8.536  12.246  67.279  1.00  0.00    -0.167 OA 
HETATM   26  C   UNL     1      -8.664  10.992  67.844  1.00  0.00    -0.133 C  
HETATM   27  O   UNL     1      -7.650  10.333  68.042  1.00  0.00    -0.087 OA 
ENDBRANCH   2   4
TORSDOF 1
ENDMDL
MODEL       20
REMARK 921   NORMALIZED FREE ENERGY PREDICTED BY IDOCK:   -6.20 KCAL/MOL
REMARK 922        TOTAL FREE ENERGY PREDICTED BY IDOCK:   -6.97 KCAL/MOL
REMARK 923 INTER-LIGAND FREE ENERGY PREDICTED BY IDOCK:   -6.64 KCAL/MOL
REMARK 924 INTRA-LIGAND FREE ENERGY PREDICTED BY IDOCK:   -0.33 KCAL/MOL
REMARK 927      BINDING AFFINITY PREDICTED BY RF-SCORE:    0.00 PKD
ROOT
HETATM    1  C   UNL     1     -12.446  13.078  63.222  1.00  0.00    -0.283 C  
HETATM    2  C   UNL     1     -12.638  13.294  64.707  1.00  0.00    -0.337 C  
HETATM    3  O   UNL     1     -13.131  14.324  65.162  1.00  0.00    -0.704 OA 
ENDROOT
BRANCH   2   4
HETATM    4  C   UNL     1     -12.090  12.193  65.587  1.00  0.00    -0.180 C  
HETATM    5  C   UNL     1     -10.568  12.236  65.862  1.00  0.00    -0.290 C  
HETATM    6  C   UNL     1     -10.142  13.559  66.501  1.00  0.00    -0.282 A  
HETATM    7  C   UNL     1     -10.068  10.985  66.606  1.00  0.00    -0.262 C  
HETATM    8  C   UNL     1      -8.933  10.329  66.283  1.00  0.00    -0.153 C  
HETATM    9  C   UNL     1     -10.619  13.953  67.761  1.00  0.00    -0.248 A  
HETATM   10  C   UNL     1      -8.643   8.998  66.822  1.00  0.00    -0.129 A  
HETATM   11  C   UNL     1     -10.405  15.248  68.237  1.00  0.00    -0.234 A  
HETATM   12  O   UNL     1      -7.998  10.794  65.380  1.00  0.00    -0.281 OA 
HETATM   13  C   UNL     1      -7.561   8.209  66.419  1.00  0.00    -0.091 A  
HETATM   14  C   UNL     1      -9.693  16.165  67.457  1.00  0.00    -0.233 A  
HETATM   15  H   UNL     1      -7.199  10.332  65.153  1.00  0.00     0.000 HD 
HETATM   16  N   UNL     1      -9.596  17.565  67.889  1.00  0.00    -0.270 N  
HETATM   17  C   UNL     1      -9.132  15.769  66.238  1.00  0.00    -0.373 A  
HETATM   18  C   UNL     1      -7.403   6.905  66.907  1.00  0.00    -0.082 A  
HETATM   19  O   UNL     1      -8.959  18.347  67.170  1.00  0.00    -0.259 OA 
HETATM   20  C   UNL     1      -8.318   6.377  67.815  1.00  0.00    -0.118 A  
HETATM   21  C   UNL     1      -9.358  14.471  65.767  1.00  0.00    -0.035 A  
HETATM   22  O   UNL     1     -10.175  17.885  68.937  1.00  0.00    -0.374 OA 
HETATM   23  C   UNL     1      -9.385   7.156  68.245  1.00  0.00    -0.130 A  
HETATM   24  C   UNL     1      -9.529   8.445  67.738  1.00  0.00    -0.149 A  
HETATM   25  O   UNL     1     -10.642   9.161  68.183  1.00  0.00    -0.219 OA 
HETATM   26  C   UNL     1     -10.948  10.406  67.671  1.00  0.00    -0.312 C  
HETATM   27  O   UNL     1     -11.937  10.989  68.098  1.00  0.00    -0.610 OA 
ENDBRANCH   2   4
TORSDOF 1
ENDMDL
MODEL       21
REMARK 921   NORMALIZED FREE ENERGY PREDICTED BY IDOCK:   -6.20 KCAL/MOL
REMARK 922        TOTAL FREE ENERGY PREDICTED BY IDOCK:   -6.96 KCAL/MOL
REMARK 923 INTER-LIGAND FREE ENERGY PREDICTED BY IDOCK:   -6.56 KCAL/MOL
REMARK 924 INTRA-LIGAND FREE ENERGY PREDICTED BY IDOCK:   -0.40 KCAL/MOL
REMARK 927      BINDING AFFINITY PREDICTED BY RF-SCORE:    0.00 PKD
ROOT
HETATM    1  C   UNL     1      -5.979   9.645  68.915  1.00  0.00    -0.042 C  
HETATM    2  C   UNL     1      -7.090  10.097  69.838  1.00  0.00    -0.144 C  
HETATM    3  O   UNL     1      -7.089   9.840  71.039  1.00  0.00    -0.325 OA 
ENDROOT
BRANCH   2   4
HETATM    4  C   UNL     1      -8.240  10.799  69.152  1.00  0.00    -0.124 C  
HETATM    5  C   UNL     1      -9.087   9.936  68.187  1.00  0.00    -0.121 C  
HETATM    6  C   UNL     1      -9.678   8.711  68.889  1.00  0.00    -0.171 A  
HETATM    7  C   UNL     1     -10.114  10.768  67.399  1.00  0.00    -0.227 C  
HETATM    8  C   UNL     1     -10.347  10.607  66.079  1.00  0.00    -0.225 C  
HETATM    9  C   UNL     1     -10.589   8.840  69.949  1.00  0.00    -0.230 A  
HETATM   10  C   UNL     1     -11.114  11.595  65.315  1.00  0.00    -0.298 A  
HETATM   11  C   UNL     1     -10.950   7.735  70.724  1.00  0.00    -0.259 A  
HETATM   12  O   UNL     1      -9.839   9.571  65.321  1.00  0.00    -0.417 OA 
HETATM   13  C   UNL     1     -11.270  11.561  63.926  1.00  0.00    -0.439 A  
HETATM   14  C   UNL     1     -10.410   6.478  70.434  1.00  0.00    -0.198 A  
HETATM   15  H   UNL     1     -10.003   9.458  64.392  1.00  0.00     0.000 HD 
HETATM   16  N   UNL     1     -10.673   5.350  71.335  1.00  0.00    -0.222 N  
HETATM   17  C   UNL     1      -9.570   6.309  69.328  1.00  0.00    -0.147 A  
HETATM   18  C   UNL     1     -11.935  12.595  63.253  1.00  0.00    -0.526 A  
HETATM   19  O   UNL     1     -10.174   4.253  71.046  1.00  0.00    -0.139 OA 
HETATM   20  C   UNL     1     -12.464  13.670  63.962  1.00  0.00    -0.285 A  
HETATM   21  C   UNL     1      -9.208   7.423  68.562  1.00  0.00    -0.142 A  
HETATM   22  O   UNL     1     -11.359   5.567  72.344  1.00  0.00    -0.271 OA 
HETATM   23  C   UNL     1     -12.340  13.708  65.346  1.00  0.00    -0.510 A  
HETATM   24  C   UNL     1     -11.665  12.675  65.992  1.00  0.00    -0.417 A  
HETATM   25  O   UNL     1     -11.544  12.792  67.378  1.00  0.00    -0.315 OA 
HETATM   26  C   UNL     1     -10.805  11.886  68.114  1.00  0.00    -0.221 C  
HETATM   27  O   UNL     1     -10.733  12.038  69.328  1.00  0.00    -0.146 OA 
ENDBRANCH   2   4
TORSDOF 1
ENDMDL
MODEL       22
REMARK 921   NORMALIZED FREE ENERGY PREDICTED BY IDOCK:   -6.18 KCAL/MOL
REMARK 922        TOTAL FREE ENERGY PREDICTED BY IDOCK:   -6.94 KCAL/MOL
REMARK 923 INTER-LIGAND FREE ENERGY PREDICTED BY IDOCK:   -6.63 KCAL/MOL
REMARK 924 INTRA-LIGAND FREE ENERGY PREDICTED BY IDOCK:   -0.31 KCAL/MOL
REMARK 927      BINDING AFFINITY PREDICTED BY RF-SCORE:    0.00 PKD
ROOT
HETATM    1  C   UNL     1     -10.617  12.185  63.838  1.00  0.00    -0.457 C  
HETATM    2  C   UNL     1      -9.852  11.375  64.861  1.00  0.00    -0.258 C  
HETATM    3  O   UNL     1      -8.771  10.848  64.606  1.00  0.00    -0.140 OA 
ENDROOT
BRANCH   2   4
HETATM    4  C   UNL     1     -10.563  11.183  66.182  1.00  0.00    -0.305 C  
HETATM    5  C   UNL     1      -9.680  11.256  67.449  1.00  0.00    -0.190 C  
HETATM    6  C   UNL     1      -8.930  12.587  67.545  1.00  0.00    -0.185 A  
HETATM    7  C   UNL     1     -10.446  10.869  68.726  1.00  0.00    -0.224 C  
HETATM    8  C   UNL     1      -9.938  10.070  69.687  1.00  0.00    -0.236 C  
HETATM    9  C   UNL     1      -9.614  13.807  67.666  1.00  0.00    -0.219 A  
HETATM   10  C   UNL     1     -10.791   9.502  70.736  1.00  0.00    -0.386 A  
HETATM   11  C   UNL     1      -8.941  15.023  67.530  1.00  0.00    -0.189 A  
HETATM   12  O   UNL     1      -8.622   9.654  69.736  1.00  0.00    -0.163 OA 
HETATM   13  C   UNL     1     -10.356   8.559  71.672  1.00  0.00    -0.333 A  
HETATM   14  C   UNL     1      -7.564  15.031  67.285  1.00  0.00    -0.194 A  
HETATM   15  H   UNL     1      -8.264   9.091  70.413  1.00  0.00     0.000 HD 
HETATM   16  N   UNL     1      -6.885  16.299  66.997  1.00  0.00    -0.206 N  
HETATM   17  C   UNL     1      -6.847  13.830  67.249  1.00  0.00     0.147 A  
HETATM   18  C   UNL     1     -11.254   7.986  72.584  1.00  0.00    -0.462 A  
HETATM   19  O   UNL     1      -5.665  16.265  66.782  1.00  0.00    -0.334 OA 
HETATM   20  C   UNL     1     -12.595   8.360  72.578  1.00  0.00    -0.311 A  
HETATM   21  C   UNL     1      -7.531  12.616  67.380  1.00  0.00    -0.146 A  
HETATM   22  O   UNL     1      -7.576  17.328  66.963  1.00  0.00    -0.175 OA 
HETATM   23  C   UNL     1     -13.039   9.315  71.671  1.00  0.00    -0.451 A  
HETATM   24  C   UNL     1     -12.131   9.862  70.768  1.00  0.00    -0.308 A  
HETATM   25  O   UNL     1     -12.649  10.788  69.860  1.00  0.00    -0.294 OA 
HETATM   26  C   UNL     1     -11.870  11.316  68.849  1.00  0.00    -0.345 C  
HETATM   27  O   UNL     1     -12.377  12.125  68.081  1.00  0.00    -0.265 OA 
ENDBRANCH   2   4
TORSDOF 1
ENDMDL
MODEL       23
REMARK 921   NORMALIZED FREE ENERGY PREDICTED BY IDOCK:   -6.13 KCAL/MOL
REMARK 922        TOTAL FREE ENERGY PREDICTED BY IDOCK:   -6.89 KCAL/MOL
REMARK 923 INTER-LIGAND FREE ENERGY PREDICTED BY IDOCK:   -6.51 KCAL/MOL
REMARK 924 INTRA-LIGAND FREE ENERGY PREDICTED BY IDOCK:   -0.37 KCAL/MOL
REMARK 927      BINDING AFFINITY PREDICTED BY RF-SCORE:    0.00 PKD
ROOT
HETATM    1  C   UNL     1     -11.176  15.628  71.086  1.00  0.00    -0.409 C  
HETATM    2  C   UNL     1     -11.695  15.405  69.682  1.00  0.00    -0.338 C  
HETATM    3  O   UNL     1     -12.720  15.942  69.269  1.00  0.00     0.143 OA 
ENDROOT
BRANCH   2   4
HETATM    4  C   UNL     1     -10.912  14.401  68.867  1.00  0.00    -0.269 C  
HETATM    5  C   UNL     1     -10.541  14.832  67.428  1.00  0.00    -0.268 C  
HETATM    6  C   UNL     1      -9.734  16.132  67.413  1.00  0.00    -0.233 A  
HETATM    7  C   UNL     1      -9.911  13.688  66.613  1.00  0.00    -0.283 C  
HETATM    8  C   UNL     1     -10.236  13.421  65.331  1.00  0.00    -0.298 C  
HETATM    9  C   UNL     1      -8.469  16.217  68.017  1.00  0.00    -0.174 A  
HETATM   10  C   UNL     1      -9.831  12.166  64.689  1.00  0.00    -0.153 A  
HETATM   11  C   UNL     1      -7.840  17.452  68.193  1.00  0.00    -0.234 A  
HETATM   12  O   UNL     1     -11.023  14.236  64.542  1.00  0.00    -0.525 OA 
HETATM   13  C   UNL     1     -10.253  11.768  63.417  1.00  0.00    -0.482 A  
HETATM   14  C   UNL     1      -8.469  18.620  67.750  1.00  0.00    -0.275 A  
HETATM   15  H   UNL     1     -11.251  14.047  63.639  1.00  0.00     0.000 HD 
HETATM   16  N   UNL     1      -7.879  19.927  68.066  1.00  0.00    -0.296 N  
HETATM   17  C   UNL     1      -9.688  18.551  67.067  1.00  0.00    -0.321 A  
HETATM   18  C   UNL     1      -9.904  10.509  62.907  1.00  0.00    -0.224 A  
HETATM   19  O   UNL     1      -8.466  20.939  67.659  1.00  0.00    -0.146 OA 
HETATM   20  C   UNL     1      -9.119   9.639  63.658  1.00  0.00    -0.214 A  
HETATM   21  C   UNL     1     -10.313  17.310  66.901  1.00  0.00    -0.310 A  
HETATM   22  O   UNL     1      -6.838  19.940  68.740  1.00  0.00    -0.313 OA 
HETATM   23  C   UNL     1      -8.670  10.029  64.914  1.00  0.00    -0.201 A  
HETATM   24  C   UNL     1      -9.038  11.280  65.405  1.00  0.00    -0.147 A  
HETATM   25  O   UNL     1      -8.585  11.595  66.687  1.00  0.00    -0.176 OA 
HETATM   26  C   UNL     1      -8.974  12.760  67.321  1.00  0.00    -0.199 C  
HETATM   27  O   UNL     1      -8.545  12.986  68.446  1.00  0.00    -0.168 OA 
ENDBRANCH   2   4
TORSDOF 1
ENDMDL
MODEL       24
REMARK 921   NORMALIZED FREE ENERGY PREDICTED BY IDOCK:   -6.08 KCAL/MOL
REMARK 922        TOTAL FREE ENERGY PREDICTED BY IDOCK:   -6.84 KCAL/MOL
REMARK 923 INTER-LIGAND FREE ENERGY PREDICTED BY IDOCK:   -6.81 KCAL/MOL
REMARK 924 INTRA-LIGAND FREE ENERGY PREDICTED BY IDOCK:   -0.03 KCAL/MOL
REMARK 927      BINDING AFFINITY PREDICTED BY RF-SCORE:    0.00 PKD
ROOT
HETATM    1  C   UNL     1     -10.634  18.564  65.794  1.00  0.00    -0.265 C  
HETATM    2  C   UNL     1     -11.006  17.186  65.290  1.00  0.00     0.034 C  
HETATM    3  O   UNL     1     -11.241  16.963  64.105  1.00  0.00    -1.176 OA 
ENDROOT
BRANCH   2   4
HETATM    4  C   UNL     1     -11.161  16.136  66.366  1.00  0.00     0.085 C  
HETATM    5  C   UNL     1      -9.868  15.400  66.792  1.00  0.00    -0.255 C  
HETATM    6  C   UNL     1      -8.794  16.373  67.283  1.00  0.00    -0.203 A  
HETATM    7  C   UNL     1     -10.145  14.229  67.751  1.00  0.00    -0.231 C  
HETATM    8  C   UNL     1      -9.551  13.021  67.643  1.00  0.00    -0.206 C  
HETATM    9  C   UNL     1      -8.994  17.174  68.419  1.00  0.00    -0.259 A  
HETATM   10  C   UNL     1     -10.044  11.861  68.390  1.00  0.00    -0.206 A  
HETATM   11  C   UNL     1      -8.110  18.210  68.730  1.00  0.00    -0.251 A  
HETATM   12  O   UNL     1      -8.502  12.745  66.788  1.00  0.00    -0.362 OA 
HETATM   13  C   UNL     1      -9.566  10.558  68.216  1.00  0.00    -0.164 A  
HETATM   14  C   UNL     1      -7.003  18.449  67.910  1.00  0.00    -0.215 A  
HETATM   15  H   UNL     1      -8.085  11.895  66.712  1.00  0.00     0.000 HD 
HETATM   16  N   UNL     1      -6.160  19.625  68.151  1.00  0.00    -0.224 N  
HETATM   17  C   UNL     1      -6.736  17.608  66.823  1.00  0.00    -0.226 A  
HETATM   18  C   UNL     1     -10.154   9.481  68.894  1.00  0.00    -0.199 A  
HETATM   19  O   UNL     1      -5.190  19.803  67.401  1.00  0.00    -0.162 OA 
HETATM   20  C   UNL     1     -11.220   9.696  69.764  1.00  0.00    -0.208 A  
HETATM   21  C   UNL     1      -7.630  16.577  66.516  1.00  0.00    -0.304 A  
HETATM   22  O   UNL     1      -6.482  20.383  69.078  1.00  0.00    -0.301 OA 
HETATM   23  C   UNL     1     -11.691  10.987  69.968  1.00  0.00    -0.437 A  
HETATM   24  C   UNL     1     -11.099  12.040  69.275  1.00  0.00    -0.185 A  
HETATM   25  O   UNL     1     -11.643  13.306  69.497  1.00  0.00    -0.283 OA 
HETATM   26  C   UNL     1     -11.210  14.410  68.787  1.00  0.00    -0.260 C  
HETATM   27  O   UNL     1     -11.724  15.497  69.023  1.00  0.00    -0.346 OA 
ENDBRANCH   2   4
TORSDOF 1
ENDMDL
MODEL       25
REMARK 921   NORMALIZED FREE ENERGY PREDICTED BY IDOCK:   -6.06 KCAL/MOL
REMARK 922        TOTAL FREE ENERGY PREDICTED BY IDOCK:   -6.82 KCAL/MOL
REMARK 923 INTER-LIGAND FREE ENERGY PREDICTED BY IDOCK:   -6.43 KCAL/MOL
REMARK 924 INTRA-LIGAND FREE ENERGY PREDICTED BY IDOCK:   -0.39 KCAL/MOL
REMARK 927      BINDING AFFINITY PREDICTED BY RF-SCORE:    0.00 PKD
ROOT
HETATM    1  C   UNL     1     -12.309  11.886  63.474  1.00  0.00    -0.603 C  
HETATM    2  C   UNL     1     -12.765  12.773  64.611  1.00  0.00    -0.362 C  
HETATM    3  O   UNL     1     -13.844  12.612  65.176  1.00  0.00     0.543 OA 
ENDROOT
BRANCH   2   4
HETATM    4  C   UNL     1     -11.839  13.925  64.930  1.00  0.00    -0.401 C  
HETATM    5  C   UNL     1     -11.451  14.096  66.418  1.00  0.00    -0.362 C  
HETATM    6  C   UNL     1     -10.792  12.836  66.983  1.00  0.00    -0.282 A  
HETATM    7  C   UNL     1     -10.663  15.392  66.676  1.00  0.00    -0.309 C  
HETATM    8  C   UNL     1     -10.896  16.210  67.725  1.00  0.00    -0.318 C  
HETATM    9  C   UNL     1      -9.574  12.355  66.477  1.00  0.00    -0.242 A  
HETATM   10  C   UNL     1     -10.326  17.559  67.779  1.00  0.00    -0.367 A  
HETATM   11  C   UNL     1      -9.094  11.095  66.841  1.00  0.00    -0.166 A  
HETATM   12  O   UNL     1     -11.730  15.900  68.781  1.00  0.00    -0.387 OA 
HETATM   13  C   UNL     1     -10.642  18.502  68.762  1.00  0.00     0.127 A  
HETATM   14  C   UNL     1      -9.825  10.305  67.732  1.00  0.00    -0.169 A  
HETATM   15  H   UNL     1     -11.894  16.476  69.518  1.00  0.00     0.000 HD 
HETATM   16  N   UNL     1      -9.398   8.926  68.000  1.00  0.00    -0.142 N  
HETATM   17  C   UNL     1     -10.996  10.799  68.317  1.00  0.00    -0.307 A  
HETATM   18  C   UNL     1     -10.133  19.806  68.695  1.00  0.00    -0.546 A  
HETATM   19  O   UNL     1     -10.074   8.256  68.794  1.00  0.00    -0.189 OA 
HETATM   20  C   UNL     1      -9.293  20.180  67.650  1.00  0.00    -0.487 A  
HETATM   21  C   UNL     1     -11.473  12.060  67.941  1.00  0.00    -0.396 A  
HETATM   22  O   UNL     1      -8.398   8.507  67.399  1.00  0.00    -0.118 OA 
HETATM   23  C   UNL     1      -8.948  19.249  66.678  1.00  0.00    -0.369 A  
HETATM   24  C   UNL     1      -9.475  17.962  66.759  1.00  0.00    -0.287 A  
HETATM   25  O   UNL     1      -9.119  17.086  65.732  1.00  0.00    -0.530 OA 
HETATM   26  C   UNL     1      -9.662  15.819  65.647  1.00  0.00    -0.297 C  
HETATM   27  O   UNL     1      -9.314  15.092  64.724  1.00  0.00     0.535 OA 
ENDBRANCH   2   4
TORSDOF 1
ENDMDL
MODEL       26
REMARK 921   NORMALIZED FREE ENERGY PREDICTED BY IDOCK:   -6.00 KCAL/MOL
REMARK 922        TOTAL FREE ENERGY PREDICTED BY IDOCK:   -6.75 KCAL/MOL
REMARK 923 INTER-LIGAND FREE ENERGY PREDICTED BY IDOCK:   -6.33 KCAL/MOL
REMARK 924 INTRA-LIGAND FREE ENERGY PREDICTED BY IDOCK:   -0.42 KCAL/MOL
REMARK 927      BINDING AFFINITY PREDICTED BY RF-SCORE:    0.00 PKD
ROOT
HETATM    1  C   UNL     1      -7.160  12.206  66.709  1.00  0.00     0.095 C  
HETATM    2  C   UNL     1      -7.442  12.003  68.181  1.00  0.00    -0.112 C  
HETATM    3  O   UNL     1      -7.233  12.880  69.016  1.00  0.00    -0.076 OA 
ENDROOT
BRANCH   2   4
HETATM    4  C   UNL     1      -7.903  10.612  68.554  1.00  0.00    -0.115 C  
HETATM    5  C   UNL     1      -9.360  10.490  69.060  1.00  0.00    -0.205 C  
HETATM    6  C   UNL     1     -10.365  11.024  68.036  1.00  0.00    -0.209 A  
HETATM    7  C   UNL     1      -9.686   9.082  69.588  1.00  0.00    -0.177 C  
HETATM    8  C   UNL     1     -10.377   8.854  70.725  1.00  0.00    -0.226 C  
HETATM    9  C   UNL     1     -10.505  10.435  66.770  1.00  0.00    -0.287 A  
HETATM   10  C   UNL     1     -10.420   7.522  71.336  1.00  0.00    -0.226 A  
HETATM   11  C   UNL     1     -11.256  11.056  65.769  1.00  0.00     0.085 A  
HETATM   12  O   UNL     1     -11.028   9.834  71.448  1.00  0.00    -0.342 OA 
HETATM   13  C   UNL     1     -10.996   7.252  72.580  1.00  0.00    -0.341 A  
HETATM   14  C   UNL     1     -11.889  12.275  66.031  1.00  0.00    -0.341 A  
HETATM   15  H   UNL     1     -11.515   9.673  72.248  1.00  0.00     0.000 HD 
HETATM   16  N   UNL     1     -12.553  12.999  64.940  1.00  0.00    -0.451 N  
HETATM   17  C   UNL     1     -11.836  12.836  67.312  1.00  0.00    -0.414 A  
HETATM   18  C   UNL     1     -10.913   5.972  73.147  1.00  0.00    -0.269 A  
HETATM   19  O   UNL     1     -13.100  14.076  65.212  1.00  0.00    -0.782 OA 
HETATM   20  C   UNL     1     -10.263   4.944  72.469  1.00  0.00    -0.248 A  
HETATM   21  C   UNL     1     -11.076  12.210  68.306  1.00  0.00    -0.288 A  
HETATM   22  O   UNL     1     -12.507  12.499  63.807  1.00  0.00    -0.579 OA 
HETATM   23  C   UNL     1      -9.706   5.189  71.219  1.00  0.00    -0.228 A  
HETATM   24  C   UNL     1      -9.791   6.472  70.681  1.00  0.00    -0.183 A  
HETATM   25  O   UNL     1      -9.180   6.660  69.441  1.00  0.00    -0.142 OA 
HETATM   26  C   UNL     1      -9.106   7.910  68.858  1.00  0.00    -0.141 C  
HETATM   27  O   UNL     1      -8.558   8.017  67.767  1.00  0.00    -0.127 OA 
ENDBRANCH   2   4
TORSDOF 1
ENDMDL
MODEL       27
REMARK 921   NORMALIZED FREE ENERGY PREDICTED BY IDOCK:   -5.99 KCAL/MOL
REMARK 922        TOTAL FREE ENERGY PREDICTED BY IDOCK:   -6.74 KCAL/MOL
REMARK 923 INTER-LIGAND FREE ENERGY PREDICTED BY IDOCK:   -6.43 KCAL/MOL
REMARK 924 INTRA-LIGAND FREE ENERGY PREDICTED BY IDOCK:   -0.31 KCAL/MOL
REMARK 927      BINDING AFFINITY PREDICTED BY RF-SCORE:    0.00 PKD
ROOT
HETATM    1  C   UNL     1     -11.204  15.044  65.056  1.00  0.00    -0.413 C  
HETATM    2  C   UNL     1     -12.091  13.885  65.457  1.00  0.00    -0.407 C  
HETATM    3  O   UNL     1     -13.305  14.009  65.604  1.00  0.00    -0.636 OA 
ENDROOT
BRANCH   2   4
HETATM    4  C   UNL     1     -11.358  12.597  65.756  1.00  0.00    -0.370 C  
HETATM    5  C   UNL     1     -10.167  12.703  66.737  1.00  0.00    -0.246 C  
HETATM    6  C   UNL     1     -10.590  13.288  68.086  1.00  0.00    -0.259 A  
HETATM    7  C   UNL     1      -9.370  11.390  66.840  1.00  0.00    -0.191 C  
HETATM    8  C   UNL     1      -8.021  11.336  66.849  1.00  0.00    -0.155 C  
HETATM    9  C   UNL     1     -11.517  12.633  68.912  1.00  0.00    -0.354 A  
HETATM   10  C   UNL     1      -7.309  10.069  66.663  1.00  0.00    -0.103 A  
HETATM   11  C   UNL     1     -12.062  13.274  70.027  1.00  0.00    -0.385 A  
HETATM   12  O   UNL     1      -7.200  12.442  66.950  1.00  0.00    -0.358 OA 
HETATM   13  C   UNL     1      -5.922   9.965  66.521  1.00  0.00    -0.059 A  
HETATM   14  C   UNL     1     -11.671  14.580  70.337  1.00  0.00    -0.290 A  
HETATM   15  H   UNL     1      -6.251  12.403  66.956  1.00  0.00     0.000 HD 
HETATM   16  N   UNL     1     -12.351  15.305  71.418  1.00  0.00    -0.326 N  
HETATM   17  C   UNL     1     -10.684  15.221  69.580  1.00  0.00    -0.270 A  
HETATM   18  C   UNL     1      -5.319   8.729  66.248  1.00  0.00    -0.031 A  
HETATM   19  O   UNL     1     -11.978  16.461  71.660  1.00  0.00    -0.424 OA 
HETATM   20  C   UNL     1      -6.095   7.580  66.128  1.00  0.00    -0.038 A  
HETATM   21  C   UNL     1     -10.149  14.573  68.460  1.00  0.00    -0.242 A  
HETATM   22  O   UNL     1     -13.272  14.723  72.010  1.00  0.00    -0.313 OA 
HETATM   23  C   UNL     1      -7.473   7.660  66.291  1.00  0.00    -0.083 A  
HETATM   24  C   UNL     1      -8.051   8.901  66.551  1.00  0.00    -0.107 A  
HETATM   25  O   UNL     1      -9.442   8.918  66.668  1.00  0.00    -0.170 OA 
HETATM   26  C   UNL     1     -10.135  10.104  66.818  1.00  0.00    -0.219 C  
HETATM   27  O   UNL     1     -11.356  10.060  66.916  1.00  0.00     0.018 OA 
ENDBRANCH   2   4
TORSDOF 1
ENDMDL
MODEL       28
REMARK 921   NORMALIZED FREE ENERGY PREDICTED BY IDOCK:   -5.98 KCAL/MOL
REMARK 922        TOTAL FREE ENERGY PREDICTED BY IDOCK:   -6.73 KCAL/MOL
REMARK 923 INTER-LIGAND FREE ENERGY PREDICTED BY IDOCK:   -6.47 KCAL/MOL
REMARK 924 INTRA-LIGAND FREE ENERGY PREDICTED BY IDOCK:   -0.26 KCAL/MOL
REMARK 927      BINDING AFFINITY PREDICTED BY RF-SCORE:    0.00 PKD
ROOT
HETATM    1  C   UNL     1      -6.646   8.719  70.379  1.00  0.00    -0.042 C  
HETATM    2  C   UNL     1      -7.699   7.897  71.090  1.00  0.00    -0.085 C  
HETATM    3  O   UNL     1      -7.520   6.718  71.385  1.00  0.00    -0.084 OA 
ENDROOT
BRANCH   2   4
HETATM    4  C   UNL     1      -9.014   8.606  71.317  1.00  0.00    -0.268 C  
HETATM    5  C   UNL     1      -9.605   9.354  70.098  1.00  0.00    -0.275 C  
HETATM    6  C   UNL     1      -9.811   8.421  68.903  1.00  0.00    -0.184 A  
HETATM    7  C   UNL     1     -10.840  10.195  70.464  1.00  0.00    -0.340 C  
HETATM    8  C   UNL     1     -11.046  11.451  70.014  1.00  0.00     0.027 C  
HETATM    9  C   UNL     1     -10.699   7.336  68.965  1.00  0.00    -0.183 A  
HETATM   10  C   UNL     1     -12.077  12.311  70.603  1.00  0.00    -0.330 A  
HETATM   11  C   UNL     1     -10.718   6.366  67.959  1.00  0.00    -0.362 A  
HETATM   12  O   UNL     1     -10.283  12.062  69.039  1.00  0.00    -0.402 OA 
HETATM   13  C   UNL     1     -12.246  13.661  70.281  1.00  0.00    -0.423 A  
HETATM   14  C   UNL     1      -9.853   6.482  66.867  1.00  0.00    -0.164 A  
HETATM   15  H   UNL     1     -10.429  12.946  68.722  1.00  0.00     0.000 HD 
HETATM   16  N   UNL     1      -9.769   5.392  65.888  1.00  0.00    -0.113 N  
HETATM   17  C   UNL     1      -9.022   7.601  66.740  1.00  0.00    -0.166 A  
HETATM   18  C   UNL     1     -13.189  14.448  70.957  1.00  0.00    -0.395 A  
HETATM   19  O   UNL     1      -8.988   5.531  64.936  1.00  0.00    -0.083 OA 
HETATM   20  C   UNL     1     -13.983  13.890  71.955  1.00  0.00    -0.585 A  
HETATM   21  C   UNL     1      -9.006   8.564  67.756  1.00  0.00    -0.140 A  
HETATM   22  O   UNL     1     -10.467   4.387  66.085  1.00  0.00    -0.229 OA 
HETATM   23  C   UNL     1     -13.846  12.544  72.271  1.00  0.00    -0.223 A  
HETATM   24  C   UNL     1     -12.895  11.785  71.593  1.00  0.00    -0.328 A  
HETATM   25  O   UNL     1     -12.782  10.449  71.983  1.00  0.00    -0.397 OA 
HETATM   26  C   UNL     1     -11.803   9.627  71.459  1.00  0.00    -0.407 C  
HETATM   27  O   UNL     1     -11.751   8.463  71.838  1.00  0.00    -0.291 OA 
ENDBRANCH   2   4
TORSDOF 1
ENDMDL
MODEL       29
REMARK 921   NORMALIZED FREE ENERGY PREDICTED BY IDOCK:   -5.97 KCAL/MOL
REMARK 922        TOTAL FREE ENERGY PREDICTED BY IDOCK:   -6.72 KCAL/MOL
REMARK 923 INTER-LIGAND FREE ENERGY PREDICTED BY IDOCK:   -6.57 KCAL/MOL
REMARK 924 INTRA-LIGAND FREE ENERGY PREDICTED BY IDOCK:   -0.15 KCAL/MOL
REMARK 927      BINDING AFFINITY PREDICTED BY RF-SCORE:    0.00 PKD
ROOT
HETATM    1  C   UNL     1     -11.654  10.885  70.090  1.00  0.00    -0.425 C  
HETATM    2  C   UNL     1     -11.608  11.090  68.592  1.00  0.00    -0.316 C  
HETATM    3  O   UNL     1     -11.566  10.150  67.802  1.00  0.00    -0.239 OA 
ENDROOT
BRANCH   2   4
HETATM    4  C   UNL     1     -11.518  12.534  68.150  1.00  0.00    -0.368 C  
HETATM    5  C   UNL     1     -10.107  13.046  67.777  1.00  0.00    -0.229 C  
HETATM    6  C   UNL     1      -9.473  12.208  66.664  1.00  0.00    -0.226 A  
HETATM    7  C   UNL     1     -10.078  14.562  67.519  1.00  0.00    -0.228 C  
HETATM    8  C   UNL     1      -9.111  15.380  67.986  1.00  0.00    -0.175 C  
HETATM    9  C   UNL     1     -10.043  12.137  65.383  1.00  0.00    -0.282 A  
HETATM   10  C   UNL     1      -9.268  16.837  67.961  1.00  0.00    -0.228 A  
HETATM   11  C   UNL     1      -9.590  11.205  64.447  1.00  0.00    -0.288 A  
HETATM   12  O   UNL     1      -7.947  14.942  68.585  1.00  0.00    -0.129 OA 
HETATM   13  C   UNL     1      -8.370  17.730  68.555  1.00  0.00    -0.298 A  
HETATM   14  C   UNL     1      -8.545  10.338  64.780  1.00  0.00    -0.184 A  
HETATM   15  H   UNL     1      -7.266  15.517  68.914  1.00  0.00     0.000 HD 
HETATM   16  N   UNL     1      -8.169   9.264  63.853  1.00  0.00    -0.155 N  
HETATM   17  C   UNL     1      -7.903  10.449  66.018  1.00  0.00    -0.142 A  
HETATM   18  C   UNL     1      -8.636  19.106  68.577  1.00  0.00    -0.398 A  
HETATM   19  O   UNL     1      -7.239   8.514  64.186  1.00  0.00    -0.087 OA 
HETATM   20  C   UNL     1      -9.797  19.607  67.995  1.00  0.00    -0.524 A  
HETATM   21  C   UNL     1      -8.368  11.382  66.952  1.00  0.00    -0.159 A  
HETATM   22  O   UNL     1      -8.818   9.156  62.803  1.00  0.00    -0.220 OA 
HETATM   23  C   UNL     1     -10.688  18.736  67.379  1.00  0.00    -0.487 A  
HETATM   24  C   UNL     1     -10.408  17.372  67.378  1.00  0.00    -0.343 A  
HETATM   25  O   UNL     1     -11.361  16.549  66.775  1.00  0.00     0.222 OA 
HETATM   26  C   UNL     1     -11.246  15.173  66.808  1.00  0.00    -0.285 C  
HETATM   27  O   UNL     1     -12.112  14.499  66.262  1.00  0.00    -0.377 OA 
ENDBRANCH   2   4
TORSDOF 1
ENDMDL
MODEL       30
REMARK 921   NORMALIZED FREE ENERGY PREDICTED BY IDOCK:   -5.80 KCAL/MOL
REMARK 922        TOTAL FREE ENERGY PREDICTED BY IDOCK:   -6.54 KCAL/MOL
REMARK 923 INTER-LIGAND FREE ENERGY PREDICTED BY IDOCK:   -6.17 KCAL/MOL
REMARK 924 INTRA-LIGAND FREE ENERGY PREDICTED BY IDOCK:   -0.36 KCAL/MOL
REMARK 927      BINDING AFFINITY PREDICTED BY RF-SCORE:    0.00 PKD
ROOT
HETATM    1  C   UNL     1      -8.723   5.481  66.413  1.00  0.00    -0.123 C  
HETATM    2  C   UNL     1      -9.941   6.349  66.647  1.00  0.00    -0.149 C  
HETATM    3  O   UNL     1     -11.077   5.884  66.700  1.00  0.00    -0.246 OA 
ENDROOT
BRANCH   2   4
HETATM    4  C   UNL     1      -9.661   7.833  66.711  1.00  0.00    -0.296 C  
HETATM    5  C   UNL     1     -10.336   8.605  67.870  1.00  0.00    -0.286 C  
HETATM    6  C   UNL     1      -9.954   8.029  69.235  1.00  0.00    -0.191 A  
HETATM    7  C   UNL     1     -10.149  10.128  67.753  1.00  0.00    -0.216 C  
HETATM    8  C   UNL     1     -11.138  11.019  67.972  1.00  0.00    -0.286 C  
HETATM    9  C   UNL     1      -8.626   8.036  69.690  1.00  0.00    -0.135 A  
HETATM   10  C   UNL     1     -10.999  12.424  67.579  1.00  0.00    -0.293 A  
HETATM   11  C   UNL     1      -8.253   7.317  70.828  1.00  0.00    -0.112 A  
HETATM   12  O   UNL     1     -12.372  10.695  68.500  1.00  0.00    -0.814 OA 
HETATM   13  C   UNL     1     -12.034  13.362  67.648  1.00  0.00    -0.362 A  
HETATM   14  C   UNL     1      -9.215   6.589  71.535  1.00  0.00    -0.144 A  
HETATM   15  H   UNL     1     -13.069  11.323  68.655  1.00  0.00     0.000 HD 
HETATM   16  N   UNL     1      -8.799   5.717  72.640  1.00  0.00    -0.126 N  
HETATM   17  C   UNL     1     -10.560   6.638  71.152  1.00  0.00    -0.263 A  
HETATM   18  C   UNL     1     -11.855  14.664  67.162  1.00  0.00    -0.367 A  
HETATM   19  O   UNL     1      -9.681   5.086  73.240  1.00  0.00    -0.142 OA 
HETATM   20  C   UNL     1     -10.636  15.048  66.611  1.00  0.00    -0.301 A  
HETATM   21  C   UNL     1     -10.923   7.356  70.007  1.00  0.00    -0.264 A  
HETATM   22  O   UNL     1      -7.587   5.647  72.893  1.00  0.00    -0.095 OA 
HETATM   23  C   UNL     1      -9.588  14.136  66.557  1.00  0.00    -0.310 A  
HETATM   24  C   UNL     1      -9.792  12.844  67.036  1.00  0.00    -0.233 A  
HETATM   25  O   UNL     1      -8.712  11.968  66.919  1.00  0.00    -0.184 OA 
HETATM   26  C   UNL     1      -8.829  10.634  67.261  1.00  0.00    -0.136 C  
HETATM   27  O   UNL     1      -7.848   9.910  67.138  1.00  0.00    -0.098 OA 
ENDBRANCH   2   4
TORSDOF 1
ENDMDL
MODEL       31
REMARK 921   NORMALIZED FREE ENERGY PREDICTED BY IDOCK:   -5.71 KCAL/MOL
REMARK 922        TOTAL FREE ENERGY PREDICTED BY IDOCK:   -6.44 KCAL/MOL
REMARK 923 INTER-LIGAND FREE ENERGY PREDICTED BY IDOCK:   -6.12 KCAL/MOL
REMARK 924 INTRA-LIGAND FREE ENERGY PREDICTED BY IDOCK:   -0.32 KCAL/MOL
REMARK 927      BINDING AFFINITY PREDICTED BY RF-SCORE:    0.00 PKD
ROOT
HETATM    1  C   UNL     1      -9.846  12.258  68.249  1.00  0.00    -0.217 C  
HETATM    2  C   UNL     1      -9.651  13.085  66.998  1.00  0.00    -0.236 C  
HETATM    3  O   UNL     1     -10.147  12.770  65.919  1.00  0.00    -0.269 OA 
ENDROOT
BRANCH   2   4
HETATM    4  C   UNL     1      -8.721  14.268  67.155  1.00  0.00    -0.243 C  
HETATM    5  C   UNL     1      -9.398  15.650  67.316  1.00  0.00    -0.223 C  
HETATM    6  C   UNL     1     -10.352  15.681  68.511  1.00  0.00    -0.219 A  
HETATM    7  C   UNL     1      -8.386  16.809  67.285  1.00  0.00    -0.197 C  
HETATM    8  C   UNL     1      -8.587  17.955  66.600  1.00  0.00    -0.262 C  
HETATM    9  C   UNL     1      -9.891  15.492  69.824  1.00  0.00    -0.268 A  
HETATM   10  C   UNL     1      -7.493  18.903  66.366  1.00  0.00    -0.274 A  
HETATM   11  C   UNL     1     -10.787  15.302  70.878  1.00  0.00    -0.225 A  
HETATM   12  O   UNL     1      -9.781  18.304  66.002  1.00  0.00    -0.498 OA 
HETATM   13  C   UNL     1      -7.600  20.032  65.548  1.00  0.00    -0.142 A  
HETATM   14  C   UNL     1     -12.163  15.313  70.631  1.00  0.00    -0.364 A  
HETATM   15  H   UNL     1      -9.922  19.110  65.521  1.00  0.00     0.000 HD 
HETATM   16  N   UNL     1     -13.098  14.967  71.708  1.00  0.00    -0.330 N  
HETATM   17  C   UNL     1     -12.647  15.588  69.347  1.00  0.00     0.109 A  
HETATM   18  C   UNL     1      -6.484  20.840  65.292  1.00  0.00    -0.247 A  
HETATM   19  O   UNL     1     -14.309  14.986  71.449  1.00  0.00    -0.476 OA 
HETATM   20  C   UNL     1      -5.250  20.536  65.860  1.00  0.00    -0.204 A  
HETATM   21  C   UNL     1     -11.741  15.771  68.295  1.00  0.00    -0.229 A  
HETATM   22  O   UNL     1     -12.618  14.656  72.808  1.00  0.00    -0.355 OA 
HETATM   23  C   UNL     1      -5.131  19.431  66.695  1.00  0.00    -0.163 A  
HETATM   24  C   UNL     1      -6.252  18.636  66.927  1.00  0.00    -0.177 A  
HETATM   25  O   UNL     1      -6.057  17.522  67.745  1.00  0.00    -0.147 OA 
HETATM   26  C   UNL     1      -7.066  16.603  67.959  1.00  0.00    -0.148 C  
HETATM   27  O   UNL     1      -6.839  15.643  68.687  1.00  0.00    -0.114 OA 
ENDBRANCH   2   4
TORSDOF 1
ENDMDL
MODEL       32
REMARK 921   NORMALIZED FREE ENERGY PREDICTED BY IDOCK:   -5.67 KCAL/MOL
REMARK 922        TOTAL FREE ENERGY PREDICTED BY IDOCK:   -6.40 KCAL/MOL
REMARK 923 INTER-LIGAND FREE ENERGY PREDICTED BY IDOCK:   -6.05 KCAL/MOL
REMARK 924 INTRA-LIGAND FREE ENERGY PREDICTED BY IDOCK:   -0.35 KCAL/MOL
REMARK 927      BINDING AFFINITY PREDICTED BY RF-SCORE:    0.00 PKD
ROOT
HETATM    1  C   UNL     1      -8.602   7.129  66.849  1.00  0.00    -0.124 C  
HETATM    2  C   UNL     1      -9.708   8.161  66.867  1.00  0.00    -0.226 C  
HETATM    3  O   UNL     1     -10.892   7.855  66.754  1.00  0.00    -0.234 OA 
ENDROOT
BRANCH   2   4
HETATM    4  C   UNL     1      -9.237   9.597  66.934  1.00  0.00    -0.172 C  
HETATM    5  C   UNL     1     -10.002  10.520  67.912  1.00  0.00    -0.193 C  
HETATM    6  C   UNL     1      -9.971   9.982  69.344  1.00  0.00    -0.239 A  
HETATM    7  C   UNL     1      -9.581  11.994  67.782  1.00  0.00    -0.193 C  
HETATM    8  C   UNL     1     -10.458  13.021  67.774  1.00  0.00    -0.228 C  
HETATM    9  C   UNL     1      -8.765   9.840  70.049  1.00  0.00    -0.237 A  
HETATM   10  C   UNL     1     -10.049  14.368  67.368  1.00  0.00    -0.243 A  
HETATM   11  C   UNL     1      -8.719   9.148  71.261  1.00  0.00    -0.157 A  
HETATM   12  O   UNL     1     -11.803  12.896  68.062  1.00  0.00    -0.346 OA 
HETATM   13  C   UNL     1     -10.934  15.438  67.203  1.00  0.00    -0.317 A  
HETATM   14  C   UNL     1      -9.891   8.598  71.791  1.00  0.00    -0.295 A  
HETATM   15  H   UNL     1     -12.419  13.619  68.056  1.00  0.00     0.000 HD 
HETATM   16  N   UNL     1      -9.819   7.747  72.985  1.00  0.00    -0.256 N  
HETATM   17  C   UNL     1     -11.118   8.802  71.151  1.00  0.00    -0.340 A  
HETATM   18  C   UNL     1     -10.484  16.673  66.717  1.00  0.00    -0.261 A  
HETATM   19  O   UNL     1     -10.878   7.277  73.423  1.00  0.00    -0.374 OA 
HETATM   20  C   UNL     1      -9.140  16.858  66.402  1.00  0.00    -0.315 A  
HETATM   21  C   UNL     1     -11.153   9.492  69.934  1.00  0.00    -0.244 A  
HETATM   22  O   UNL     1      -8.699   7.532  73.471  1.00  0.00    -0.154 OA 
HETATM   23  C   UNL     1      -8.242  15.813  66.584  1.00  0.00    -0.305 A  
HETATM   24  C   UNL     1      -8.714  14.591  67.058  1.00  0.00    -0.234 A  
HETATM   25  O   UNL     1      -7.767  13.573  67.183  1.00  0.00    -0.111 OA 
HETATM   26  C   UNL     1      -8.134  12.290  67.541  1.00  0.00    -0.170 C  
HETATM   27  O   UNL     1      -7.261  11.436  67.636  1.00  0.00    -0.088 OA 
ENDBRANCH   2   4
TORSDOF 1
ENDMDL
MODEL       33
REMARK 921   NORMALIZED FREE ENERGY PREDICTED BY IDOCK:   -5.65 KCAL/MOL
REMARK 922        TOTAL FREE ENERGY PREDICTED BY IDOCK:   -6.38 KCAL/MOL
REMARK 923 INTER-LIGAND FREE ENERGY PREDICTED BY IDOCK:   -5.98 KCAL/MOL
REMARK 924 INTRA-LIGAND FREE ENERGY PREDICTED BY IDOCK:   -0.40 KCAL/MOL
REMARK 927      BINDING AFFINITY PREDICTED BY RF-SCORE:    0.00 PKD
ROOT
HETATM    1  C   UNL     1     -12.592   6.529  71.344  1.00  0.00    -0.131 C  
HETATM    2  C   UNL     1     -11.467   6.268  70.366  1.00  0.00    -0.344 C  
HETATM    3  O   UNL     1     -10.760   5.266  70.432  1.00  0.00    -0.250 OA 
ENDROOT
BRANCH   2   4
HETATM    4  C   UNL     1     -11.221   7.378  69.369  1.00  0.00     0.034 C  
HETATM    5  C   UNL     1     -10.725   8.722  69.954  1.00  0.00    -0.228 C  
HETATM    6  C   UNL     1      -9.429   8.553  70.749  1.00  0.00    -0.213 A  
HETATM    7  C   UNL     1     -10.678   9.842  68.900  1.00  0.00    -0.244 C  
HETATM    8  C   UNL     1     -11.110  11.100  69.130  1.00  0.00    -0.248 C  
HETATM    9  C   UNL     1      -8.245   8.111  70.137  1.00  0.00    -0.119 A  
HETATM   10  C   UNL     1     -11.310  12.049  68.032  1.00  0.00    -0.358 A  
HETATM   11  C   UNL     1      -7.134   7.749  70.902  1.00  0.00    -0.053 A  
HETATM   12  O   UNL     1     -11.472  11.582  70.373  1.00  0.00    -0.495 OA 
HETATM   13  C   UNL     1     -11.888  13.313  68.186  1.00  0.00    -0.388 A  
HETATM   14  C   UNL     1      -7.192   7.839  72.296  1.00  0.00    -0.081 A  
HETATM   15  H   UNL     1     -11.777  12.467  70.534  1.00  0.00     0.000 HD 
HETATM   16  N   UNL     1      -6.081   7.320  73.104  1.00  0.00    -0.056 N  
HETATM   17  C   UNL     1      -8.329   8.359  72.923  1.00  0.00    -0.205 A  
HETATM   18  C   UNL     1     -12.138  14.129  67.073  1.00  0.00    -0.449 A  
HETATM   19  O   UNL     1      -6.171   7.416  74.337  1.00  0.00    -0.080 OA 
HETATM   20  C   UNL     1     -11.801  13.695  65.794  1.00  0.00    -0.397 A  
HETATM   21  C   UNL     1      -9.440   8.713  72.149  1.00  0.00    -0.373 A  
HETATM   22  O   UNL     1      -5.129   6.798  72.506  1.00  0.00    -0.031 OA 
HETATM   23  C   UNL     1     -11.204  12.451  65.625  1.00  0.00    -0.360 A  
HETATM   24  C   UNL     1     -10.975  11.654  66.744  1.00  0.00    -0.290 A  
HETATM   25  O   UNL     1     -10.406  10.402  66.501  1.00  0.00    -0.234 OA 
HETATM   26  C   UNL     1     -10.231   9.483  67.517  1.00  0.00    -0.228 C  
HETATM   27  O   UNL     1      -9.726   8.400  67.247  1.00  0.00    -0.160 OA 
ENDBRANCH   2   4
TORSDOF 1
ENDMDL
MODEL       34
REMARK 921   NORMALIZED FREE ENERGY PREDICTED BY IDOCK:   -5.60 KCAL/MOL
REMARK 922        TOTAL FREE ENERGY PREDICTED BY IDOCK:   -6.33 KCAL/MOL
REMARK 923 INTER-LIGAND FREE ENERGY PREDICTED BY IDOCK:   -5.91 KCAL/MOL
REMARK 924 INTRA-LIGAND FREE ENERGY PREDICTED BY IDOCK:   -0.43 KCAL/MOL
REMARK 927      BINDING AFFINITY PREDICTED BY RF-SCORE:    0.00 PKD
ROOT
HETATM    1  C   UNL     1      -9.440   8.034  71.528  1.00  0.00    -0.204 C  
HETATM    2  C   UNL     1      -8.770   9.203  70.840  1.00  0.00    -0.221 C  
HETATM    3  O   UNL     1      -7.622   9.551  71.108  1.00  0.00    -0.328 OA 
ENDROOT
BRANCH   2   4
HETATM    4  C   UNL     1      -9.652   9.965  69.877  1.00  0.00    -0.265 C  
HETATM    5  C   UNL     1      -9.235   9.918  68.388  1.00  0.00    -0.130 C  
HETATM    6  C   UNL     1      -9.154   8.482  67.865  1.00  0.00    -0.145 A  
HETATM    7  C   UNL     1     -10.074  10.864  67.510  1.00  0.00    -0.214 C  
HETATM    8  C   UNL     1      -9.546  11.654  66.552  1.00  0.00    -0.209 C  
HETATM    9  C   UNL     1     -10.286   7.653  67.818  1.00  0.00    -0.282 A  
HETATM   10  C   UNL     1     -10.326  12.734  65.941  1.00  0.00    -0.298 A  
HETATM   11  C   UNL     1     -10.165   6.288  67.552  1.00  0.00    -0.213 A  
HETATM   12  O   UNL     1      -8.237  11.582  66.118  1.00  0.00    -0.336 OA 
HETATM   13  C   UNL     1      -9.798  13.673  65.050  1.00  0.00    -0.087 A  
HETATM   14  C   UNL     1      -8.902   5.736  67.314  1.00  0.00    -0.106 A  
HETATM   15  H   UNL     1      -7.866  12.138  65.444  1.00  0.00     0.000 HD 
HETATM   16  N   UNL     1      -8.757   4.282  67.181  1.00  0.00    -0.104 N  
HETATM   17  C   UNL     1      -7.770   6.558  67.268  1.00  0.00    -0.101 A  
HETATM   18  C   UNL     1     -10.580  14.738  64.582  1.00  0.00    -0.234 A  
HETATM   19  O   UNL     1      -7.622   3.831  66.973  1.00  0.00    -0.078 OA 
HETATM   20  C   UNL     1     -11.905  14.868  64.989  1.00  0.00    -0.299 A  
HETATM   21  C   UNL     1      -7.901   7.924  67.543  1.00  0.00    -0.122 A  
HETATM   22  O   UNL     1      -9.777   3.588  67.306  1.00  0.00    -0.183 OA 
HETATM   23  C   UNL     1     -12.455  13.930  65.854  1.00  0.00    -0.519 A  
HETATM   24  C   UNL     1     -11.655  12.887  66.315  1.00  0.00    -0.372 A  
HETATM   25  O   UNL     1     -12.256  12.000  67.210  1.00  0.00    -0.496 OA 
HETATM   26  C   UNL     1     -11.534  10.990  67.816  1.00  0.00    -0.261 C  
HETATM   27  O   UNL     1     -12.113  10.240  68.593  1.00  0.00    -0.099 OA 
ENDBRANCH   2   4
TORSDOF 1
ENDMDL
MODEL       35
REMARK 921   NORMALIZED FREE ENERGY PREDICTED BY IDOCK:   -5.60 KCAL/MOL
REMARK 922        TOTAL FREE ENERGY PREDICTED BY IDOCK:   -6.33 KCAL/MOL
REMARK 923 INTER-LIGAND FREE ENERGY PREDICTED BY IDOCK:   -5.99 KCAL/MOL
REMARK 924 INTRA-LIGAND FREE ENERGY PREDICTED BY IDOCK:   -0.34 KCAL/MOL
REMARK 927      BINDING AFFINITY PREDICTED BY RF-SCORE:    0.00 PKD
ROOT
HETATM    1  C   UNL     1      -7.963  11.915  68.782  1.00  0.00    -0.040 C  
HETATM    2  C   UNL     1      -7.456  11.827  67.359  1.00  0.00    -0.143 C  
HETATM    3  O   UNL     1      -7.059  12.813  66.742  1.00  0.00     0.178 OA 
ENDROOT
BRANCH   2   4
HETATM    4  C   UNL     1      -7.569  10.458  66.727  1.00  0.00    -0.110 C  
HETATM    5  C   UNL     1      -8.963   9.792  66.789  1.00  0.00    -0.156 C  
HETATM    6  C   UNL     1     -10.040  10.663  66.139  1.00  0.00    -0.306 A  
HETATM    7  C   UNL     1      -8.944   8.336  66.291  1.00  0.00    -0.221 C  
HETATM    8  C   UNL     1      -9.588   7.327  66.914  1.00  0.00    -0.174 C  
HETATM    9  C   UNL     1      -9.996  10.989  64.774  1.00  0.00    -0.350 A  
HETATM   10  C   UNL     1      -9.316   5.926  66.577  1.00  0.00    -0.166 A  
HETATM   11  C   UNL     1     -10.849  11.956  64.239  1.00  0.00    -0.396 A  
HETATM   12  O   UNL     1     -10.481   7.499  67.953  1.00  0.00    -0.203 OA 
HETATM   13  C   UNL     1      -9.841   4.837  67.278  1.00  0.00    -0.218 A  
HETATM   14  C   UNL     1     -11.771  12.603  65.067  1.00  0.00    -0.359 A  
HETATM   15  H   UNL     1     -10.934   6.789  68.391  1.00  0.00     0.000 HD 
HETATM   16  N   UNL     1     -12.563  13.720  64.540  1.00  0.00    -0.261 N  
HETATM   17  C   UNL     1     -11.894  12.232  66.411  1.00  0.00    -0.382 A  
HETATM   18  C   UNL     1      -9.459   3.526  66.960  1.00  0.00    -0.207 A  
HETATM   19  O   UNL     1     -13.368  14.269  65.306  1.00  0.00    -0.660 OA 
HETATM   20  C   UNL     1      -8.556   3.289  65.927  1.00  0.00    -0.120 A  
HETATM   21  C   UNL     1     -11.030  11.266  66.939  1.00  0.00    -0.348 A  
HETATM   22  O   UNL     1     -12.364  14.063  63.365  1.00  0.00    -0.748 OA 
HETATM   23  C   UNL     1      -8.043   4.358  65.203  1.00  0.00    -0.102 A  
HETATM   24  C   UNL     1      -8.429   5.653  65.544  1.00  0.00    -0.146 A  
HETATM   25  O   UNL     1      -7.850   6.683  64.802  1.00  0.00    -0.104 OA 
HETATM   26  C   UNL     1      -8.072   8.010  65.118  1.00  0.00    -0.143 C  
HETATM   27  O   UNL     1      -7.538   8.873  64.432  1.00  0.00    -0.105 OA 
ENDBRANCH   2   4
TORSDOF 1
ENDMDL
MODEL       36
REMARK 921   NORMALIZED FREE ENERGY PREDICTED BY IDOCK:   -5.53 KCAL/MOL
REMARK 922        TOTAL FREE ENERGY PREDICTED BY IDOCK:   -6.26 KCAL/MOL
REMARK 923 INTER-LIGAND FREE ENERGY PREDICTED BY IDOCK:   -5.86 KCAL/MOL
REMARK 924 INTRA-LIGAND FREE ENERGY PREDICTED BY IDOCK:   -0.40 KCAL/MOL
REMARK 927      BINDING AFFINITY PREDICTED BY RF-SCORE:    0.00 PKD
ROOT
HETATM    1  C   UNL     1     -10.486   5.646  66.588  1.00  0.00    -0.340 C  
HETATM    2  C   UNL     1      -9.209   5.985  67.324  1.00  0.00    -0.114 C  
HETATM    3  O   UNL     1      -8.481   5.120  67.807  1.00  0.00    -0.105 OA 
ENDROOT
BRANCH   2   4
HETATM    4  C   UNL     1      -8.952   7.464  67.504  1.00  0.00    -0.126 C  
HETATM    5  C   UNL     1     -10.000   8.243  68.333  1.00  0.00    -0.211 C  
HETATM    6  C   UNL     1     -10.167   7.655  69.736  1.00  0.00    -0.210 A  
HETATM    7  C   UNL     1      -9.760   9.762  68.310  1.00  0.00    -0.160 C  
HETATM    8  C   UNL     1     -10.747  10.670  68.152  1.00  0.00    -0.225 C  
HETATM    9  C   UNL     1      -9.106   7.637  70.655  1.00  0.00    -0.158 A  
HETATM   10  C   UNL     1     -10.449  12.074  67.853  1.00  0.00    -0.221 A  
HETATM   11  C   UNL     1      -9.197   6.907  71.842  1.00  0.00    -0.144 A  
HETATM   12  O   UNL     1     -12.093  10.366  68.175  1.00  0.00    -0.688 OA 
HETATM   13  C   UNL     1     -11.420  13.029  67.540  1.00  0.00    -0.375 A  
HETATM   14  C   UNL     1     -10.365   6.193  72.130  1.00  0.00    -0.197 A  
HETATM   15  H   UNL     1     -12.787  11.005  68.064  1.00  0.00     0.000 HD 
HETATM   16  N   UNL     1     -10.406   5.310  73.301  1.00  0.00    -0.191 N  
HETATM   17  C   UNL     1     -11.467   6.267  71.272  1.00  0.00    -0.352 A  
HETATM   18  C   UNL     1     -11.054  14.330  67.168  1.00  0.00    -0.318 A  
HETATM   19  O   UNL     1     -11.458   4.692  73.521  1.00  0.00    -0.314 OA 
HETATM   20  C   UNL     1      -9.711  14.695  67.119  1.00  0.00    -0.235 A  
HETATM   21  C   UNL     1     -11.364   6.996  70.081  1.00  0.00    -0.321 A  
HETATM   22  O   UNL     1      -9.379   5.217  73.989  1.00  0.00    -0.127 OA 
HETATM   23  C   UNL     1      -8.733  13.765  67.452  1.00  0.00    -0.210 A  
HETATM   24  C   UNL     1      -9.121  12.475  67.807  1.00  0.00    -0.191 A  
HETATM   25  O   UNL     1      -8.089  11.580  68.094  1.00  0.00    -0.130 OA 
HETATM   26  C   UNL     1      -8.345  10.248  68.354  1.00  0.00    -0.119 C  
HETATM   27  O   UNL     1      -7.400   9.507  68.600  1.00  0.00    -0.073 OA 
ENDBRANCH   2   4
TORSDOF 1
ENDMDL
MODEL       37
REMARK 921   NORMALIZED FREE ENERGY PREDICTED BY IDOCK:   -5.53 KCAL/MOL
REMARK 922        TOTAL FREE ENERGY PREDICTED BY IDOCK:   -6.25 KCAL/MOL
REMARK 923 INTER-LIGAND FREE ENERGY PREDICTED BY IDOCK:   -5.83 KCAL/MOL
REMARK 924 INTRA-LIGAND FREE ENERGY PREDICTED BY IDOCK:   -0.42 KCAL/MOL
REMARK 927      BINDING AFFINITY PREDICTED BY RF-SCORE:    0.00 PKD
ROOT
HETATM    1  C   UNL     1     -10.012  12.717  68.102  1.00  0.00    -0.225 C  
HETATM    2  C   UNL     1     -11.006  11.631  68.452  1.00  0.00    -0.220 C  
HETATM    3  O   UNL     1     -12.133  11.591  67.965  1.00  0.00    -0.617 OA 
ENDROOT
BRANCH   2   4
HETATM    4  C   UNL     1     -10.540  10.662  69.516  1.00  0.00    -0.265 C  
HETATM    5  C   UNL     1     -10.471   9.174  69.100  1.00  0.00    -0.230 C  
HETATM    6  C   UNL     1      -9.560   8.963  67.888  1.00  0.00    -0.171 A  
HETATM    7  C   UNL     1     -10.168   8.243  70.287  1.00  0.00    -0.199 C  
HETATM    8  C   UNL     1     -10.807   7.072  70.497  1.00  0.00    -0.251 C  
HETATM    9  C   UNL     1      -8.188   9.257  67.942  1.00  0.00    -0.115 A  
HETATM   10  C   UNL     1     -10.692   6.362  71.774  1.00  0.00    -0.273 A  
HETATM   11  C   UNL     1      -7.413   9.274  66.780  1.00  0.00    -0.087 A  
HETATM   12  O   UNL     1     -11.667   6.483  69.593  1.00  0.00    -0.621 OA 
HETATM   13  C   UNL     1     -11.436   5.225  72.106  1.00  0.00    -0.007 A  
HETATM   14  C   UNL     1      -8.003   8.982  65.547  1.00  0.00    -0.106 A  
HETATM   15  H   UNL     1     -12.116   5.659  69.741  1.00  0.00     0.000 HD 
HETATM   16  N   UNL     1      -7.225   9.144  64.313  1.00  0.00    -0.097 N  
HETATM   17  C   UNL     1      -9.348   8.601  65.480  1.00  0.00    -0.105 A  
HETATM   18  C   UNL     1     -11.346   4.656  73.384  1.00  0.00    -0.394 A  
HETATM   19  O   UNL     1      -7.784   8.878  63.239  1.00  0.00    -0.113 OA 
HETATM   20  C   UNL     1     -10.501   5.210  74.342  1.00  0.00    -0.294 A  
HETATM   21  C   UNL     1     -10.119   8.593  66.649  1.00  0.00    -0.364 A  
HETATM   22  O   UNL     1      -6.061   9.558  64.416  1.00  0.00    -0.075 OA 
HETATM   23  C   UNL     1      -9.736   6.325  74.022  1.00  0.00    -0.222 A  
HETATM   24  C   UNL     1      -9.850   6.880  72.749  1.00  0.00    -0.167 A  
HETATM   25  O   UNL     1      -9.082   8.019  72.504  1.00  0.00    -0.165 OA 
HETATM   26  C   UNL     1      -9.192   8.719  71.317  1.00  0.00    -0.241 C  
HETATM   27  O   UNL     1      -8.493   9.712  71.156  1.00  0.00    -0.204 OA 
ENDBRANCH   2   4
TORSDOF 1
ENDMDL
MODEL       38
REMARK 921   NORMALIZED FREE ENERGY PREDICTED BY IDOCK:   -5.52 KCAL/MOL
REMARK 922        TOTAL FREE ENERGY PREDICTED BY IDOCK:   -6.25 KCAL/MOL
REMARK 923 INTER-LIGAND FREE ENERGY PREDICTED BY IDOCK:   -5.83 KCAL/MOL
REMARK 924 INTRA-LIGAND FREE ENERGY PREDICTED BY IDOCK:   -0.41 KCAL/MOL
REMARK 927      BINDING AFFINITY PREDICTED BY RF-SCORE:    0.00 PKD
ROOT
HETATM    1  C   UNL     1      -6.059   7.505  68.964  1.00  0.00    -0.034 C  
HETATM    2  C   UNL     1      -6.097   8.384  67.734  1.00  0.00    -0.048 C  
HETATM    3  O   UNL     1      -5.135   8.495  66.977  1.00  0.00    -0.031 OA 
ENDROOT
BRANCH   2   4
HETATM    4  C   UNL     1      -7.367   9.187  67.565  1.00  0.00    -0.084 C  
HETATM    5  C   UNL     1      -8.291   8.763  66.399  1.00  0.00    -0.117 C  
HETATM    6  C   UNL     1      -8.712   7.296  66.511  1.00  0.00    -0.141 A  
HETATM    7  C   UNL     1      -9.460   9.741  66.186  1.00  0.00    -0.261 C  
HETATM    8  C   UNL     1      -9.863  10.167  64.971  1.00  0.00    -0.322 C  
HETATM    9  C   UNL     1      -9.474   6.832  67.595  1.00  0.00    -0.126 A  
HETATM   10  C   UNL     1     -10.781  11.301  64.828  1.00  0.00    -0.352 A  
HETATM   11  C   UNL     1      -9.665   5.464  67.804  1.00  0.00    -0.160 A  
HETATM   12  O   UNL     1      -9.409   9.647  63.775  1.00  0.00    -0.404 OA 
HETATM   13  C   UNL     1     -11.124  11.879  63.601  1.00  0.00    -0.517 A  
HETATM   14  C   UNL     1      -9.103   4.541  66.917  1.00  0.00    -0.124 A  
HETATM   15  H   UNL     1      -9.693   9.947  62.920  1.00  0.00     0.000 HD 
HETATM   16  N   UNL     1      -9.178   3.106  67.218  1.00  0.00    -0.182 N  
HETATM   17  C   UNL     1      -8.415   4.982  65.781  1.00  0.00    -0.124 A  
HETATM   18  C   UNL     1     -11.930  13.024  63.548  1.00  0.00    -0.615 A  
HETATM   19  O   UNL     1      -8.665   2.320  66.408  1.00  0.00    -0.111 OA 
HETATM   20  C   UNL     1     -12.413  13.599  64.721  1.00  0.00    -0.391 A  
HETATM   21  C   UNL     1      -8.223   6.355  65.583  1.00  0.00    -0.140 A  
HETATM   22  O   UNL     1      -9.730   2.768  68.275  1.00  0.00    -0.130 OA 
HETATM   23  C   UNL     1     -12.102  13.023  65.948  1.00  0.00    -0.503 A  
HETATM   24  C   UNL     1     -11.291  11.892  65.976  1.00  0.00    -0.316 A  
HETATM   25  O   UNL     1     -10.986  11.385  67.241  1.00  0.00    -0.249 OA 
HETATM   26  C   UNL     1     -10.105  10.333  67.401  1.00  0.00    -0.202 C  
HETATM   27  O   UNL     1      -9.875   9.928  68.534  1.00  0.00    -0.150 OA 
ENDBRANCH   2   4
TORSDOF 1
ENDMDL
MODEL       39
REMARK 921   NORMALIZED FREE ENERGY PREDICTED BY IDOCK:   -5.46 KCAL/MOL
REMARK 922        TOTAL FREE ENERGY PREDICTED BY IDOCK:   -6.18 KCAL/MOL
REMARK 923 INTER-LIGAND FREE ENERGY PREDICTED BY IDOCK:   -6.14 KCAL/MOL
REMARK 924 INTRA-LIGAND FREE ENERGY PREDICTED BY IDOCK:   -0.04 KCAL/MOL
REMARK 927      BINDING AFFINITY PREDICTED BY RF-SCORE:    0.00 PKD
ROOT
HETATM    1  C   UNL     1     -13.316   9.902  71.870  1.00  0.00    -0.524 C  
HETATM    2  C   UNL     1     -12.056  10.427  71.218  1.00  0.00    -0.362 C  
HETATM    3  O   UNL     1     -11.916  11.610  70.919  1.00  0.00    -0.289 OA 
ENDROOT
BRANCH   2   4
HETATM    4  C   UNL     1     -11.030   9.370  70.875  1.00  0.00    -0.391 C  
HETATM    5  C   UNL     1     -10.894   9.014  69.375  1.00  0.00    -0.152 C  
HETATM    6  C   UNL     1     -10.558  10.242  68.527  1.00  0.00    -0.240 A  
HETATM    7  C   UNL     1      -9.967   7.809  69.137  1.00  0.00    -0.182 C  
HETATM    8  C   UNL     1     -10.251   6.810  68.275  1.00  0.00    -0.175 C  
HETATM    9  C   UNL     1      -9.362  10.954  68.708  1.00  0.00    -0.190 A  
HETATM   10  C   UNL     1      -9.492   5.556  68.286  1.00  0.00    -0.137 A  
HETATM   11  C   UNL     1      -9.162  12.191  68.091  1.00  0.00    -0.197 A  
HETATM   12  O   UNL     1     -11.300   6.832  67.378  1.00  0.00    -0.668 OA 
HETATM   13  C   UNL     1      -9.824   4.434  67.521  1.00  0.00    -0.180 A  
HETATM   14  C   UNL     1     -10.159  12.725  67.269  1.00  0.00    -0.226 A  
HETATM   15  H   UNL     1     -11.500   6.129  66.771  1.00  0.00     0.000 HD 
HETATM   16  N   UNL     1     -10.013  14.087  66.740  1.00  0.00    -0.262 N  
HETATM   17  C   UNL     1     -11.322  11.993  67.003  1.00  0.00    -0.396 A  
HETATM   18  C   UNL     1      -9.110   3.235  67.656  1.00  0.00    -0.210 A  
HETATM   19  O   UNL     1     -10.919  14.525  66.018  1.00  0.00    -0.311 OA 
HETATM   20  C   UNL     1      -8.046   3.148  68.550  1.00  0.00    -0.071 A  
HETATM   21  C   UNL     1     -11.515  10.757  67.631  1.00  0.00    -0.234 A  
HETATM   22  O   UNL     1      -9.002  14.725  67.067  1.00  0.00    -0.212 OA 
HETATM   23  C   UNL     1      -7.686   4.261  69.301  1.00  0.00    -0.054 A  
HETATM   24  C   UNL     1      -8.418   5.438  69.158  1.00  0.00    -0.103 A  
HETATM   25  O   UNL     1      -8.028   6.507  69.967  1.00  0.00    -0.111 OA 
HETATM   26  C   UNL     1      -8.743   7.688  69.991  1.00  0.00    -0.142 C  
HETATM   27  O   UNL     1      -8.356   8.593  70.720  1.00  0.00    -0.122 OA 
ENDBRANCH   2   4
TORSDOF 1
ENDMDL
MODEL       40
REMARK 921   NORMALIZED FREE ENERGY PREDICTED BY IDOCK:   -5.43 KCAL/MOL
REMARK 922        TOTAL FREE ENERGY PREDICTED BY IDOCK:   -6.15 KCAL/MOL
REMARK 923 INTER-LIGAND FREE ENERGY PREDICTED BY IDOCK:   -6.36 KCAL/MOL
REMARK 924 INTRA-LIGAND FREE ENERGY PREDICTED BY IDOCK:    0.21 KCAL/MOL
REMARK 927      BINDING AFFINITY PREDICTED BY RF-SCORE:    0.00 PKD
ROOT
HETATM    1  C   UNL     1     -12.014  13.145  69.962  1.00  0.00    -0.391 C  
HETATM    2  C   UNL     1     -11.807  13.410  68.487  1.00  0.00    -0.366 C  
HETATM    3  O   UNL     1     -12.508  14.200  67.859  1.00  0.00    -0.108 OA 
ENDROOT
BRANCH   2   4
HETATM    4  C   UNL     1     -10.742  12.560  67.831  1.00  0.00    -0.239 C  
HETATM    5  C   UNL     1     -10.396  12.914  66.365  1.00  0.00    -0.277 C  
HETATM    6  C   UNL     1      -9.943  14.369  66.222  1.00  0.00    -0.320 A  
HETATM    7  C   UNL     1      -9.444  11.890  65.721  1.00  0.00    -0.210 C  
HETATM    8  C   UNL     1      -9.603  11.411  64.469  1.00  0.00    -0.192 C  
HETATM    9  C   UNL     1      -8.785  14.843  66.858  1.00  0.00    -0.276 A  
HETATM   10  C   UNL     1      -8.852  10.242  64.001  1.00  0.00    -0.237 A  
HETATM   11  C   UNL     1      -8.501  16.210  66.906  1.00  0.00    -0.264 A  
HETATM   12  O   UNL     1     -10.514  11.905  63.557  1.00  0.00    -0.385 OA 
HETATM   13  C   UNL     1      -9.073   9.612  62.772  1.00  0.00    -0.254 A  
HETATM   14  C   UNL     1      -9.372  17.121  66.300  1.00  0.00    -0.234 A  
HETATM   15  H   UNL     1     -10.626  11.567  62.677  1.00  0.00     0.000 HD 
HETATM   16  N   UNL     1      -9.154  18.562  66.476  1.00  0.00    -0.296 N  
HETATM   17  C   UNL     1     -10.485  16.665  65.585  1.00  0.00    -0.313 A  
HETATM   18  C   UNL     1      -8.384   8.439  62.433  1.00  0.00    -0.180 A  
HETATM   19  O   UNL     1      -9.949  19.337  65.927  1.00  0.00    -0.434 OA 
HETATM   20  C   UNL     1      -7.457   7.888  63.315  1.00  0.00    -0.119 A  
HETATM   21  C   UNL     1     -10.765  15.294  65.549  1.00  0.00    -0.385 A  
HETATM   22  O   UNL     1      -8.199  18.917  67.183  1.00  0.00    -0.262 OA 
HETATM   23  C   UNL     1      -7.208   8.515  64.530  1.00  0.00    -0.086 A  
HETATM   24  C   UNL     1      -7.912   9.674  64.849  1.00  0.00    -0.124 A  
HETATM   25  O   UNL     1      -7.641  10.232  66.100  1.00  0.00    -0.112 OA 
HETATM   26  C   UNL     1      -8.353  11.318  66.571  1.00  0.00    -0.168 C  
HETATM   27  O   UNL     1      -8.072  11.768  67.676  1.00  0.00    -0.129 OA 
ENDBRANCH   2   4
TORSDOF 1
ENDMDL
MODEL       41
REMARK 921   NORMALIZED FREE ENERGY PREDICTED BY IDOCK:   -5.43 KCAL/MOL
REMARK 922        TOTAL FREE ENERGY PREDICTED BY IDOCK:   -6.15 KCAL/MOL
REMARK 923 INTER-LIGAND FREE ENERGY PREDICTED BY IDOCK:   -5.90 KCAL/MOL
REMARK 924 INTRA-LIGAND FREE ENERGY PREDICTED BY IDOCK:   -0.26 KCAL/MOL
REMARK 927      BINDING AFFINITY PREDICTED BY RF-SCORE:    0.00 PKD
ROOT
HETATM    1  C   UNL     1     -11.705  13.422  69.818  1.00  0.00    -0.355 C  
HETATM    2  C   UNL     1     -11.906  11.934  70.000  1.00  0.00    -0.328 C  
HETATM    3  O   UNL     1     -12.938  11.465  70.474  1.00  0.00    -0.112 OA 
ENDROOT
BRANCH   2   4
HETATM    4  C   UNL     1     -10.708  11.082  69.646  1.00  0.00    -0.193 C  
HETATM    5  C   UNL     1     -10.706  10.465  68.227  1.00  0.00    -0.275 C  
HETATM    6  C   UNL     1     -10.817  11.536  67.140  1.00  0.00    -0.314 A  
HETATM    7  C   UNL     1      -9.550   9.471  68.018  1.00  0.00    -0.155 C  
HETATM    8  C   UNL     1      -9.694   8.279  67.402  1.00  0.00    -0.174 C  
HETATM    9  C   UNL     1      -9.827  12.516  66.971  1.00  0.00    -0.217 A  
HETATM   10  C   UNL     1      -8.650   7.253  67.474  1.00  0.00    -0.122 A  
HETATM   11  C   UNL     1     -10.038  13.613  66.133  1.00  0.00    -0.311 A  
HETATM   12  O   UNL     1     -10.834   7.885  66.729  1.00  0.00    -0.404 OA 
HETATM   13  C   UNL     1      -8.796   5.953  66.980  1.00  0.00    -0.112 A  
HETATM   14  C   UNL     1     -11.246  13.734  65.439  1.00  0.00    -0.302 A  
HETATM   15  H   UNL     1     -10.935   7.046  66.295  1.00  0.00     0.000 HD 
HETATM   16  N   UNL     1     -11.527  14.956  64.676  1.00  0.00    -0.396 N  
HETATM   17  C   UNL     1     -12.212  12.725  65.523  1.00  0.00    -0.519 A  
HETATM   18  C   UNL     1      -7.790   4.996  67.172  1.00  0.00    -0.096 A  
HETATM   19  O   UNL     1     -12.610  15.026  64.077  1.00  0.00    -0.817 OA 
HETATM   20  C   UNL     1      -6.620   5.331  67.849  1.00  0.00    -0.050 A  
HETATM   21  C   UNL     1     -11.994  11.633  66.371  1.00  0.00     0.387 A  
HETATM   22  O   UNL     1     -10.674  15.855  64.695  1.00  0.00    -0.553 OA 
HETATM   23  C   UNL     1      -6.448   6.625  68.325  1.00  0.00    -0.049 A  
HETATM   24  C   UNL     1      -7.466   7.557  68.132  1.00  0.00    -0.105 A  
HETATM   25  O   UNL     1      -7.245   8.828  68.666  1.00  0.00    -0.071 OA 
HETATM   26  C   UNL     1      -8.224   9.802  68.631  1.00  0.00    -0.106 C  
HETATM   27  O   UNL     1      -7.976  10.900  69.114  1.00  0.00    -0.147 OA 
ENDBRANCH   2   4
TORSDOF 1
ENDMDL
MODEL       42
REMARK 921   NORMALIZED FREE ENERGY PREDICTED BY IDOCK:   -5.39 KCAL/MOL
REMARK 922        TOTAL FREE ENERGY PREDICTED BY IDOCK:   -6.10 KCAL/MOL
REMARK 923 INTER-LIGAND FREE ENERGY PREDICTED BY IDOCK:   -5.70 KCAL/MOL
REMARK 924 INTRA-LIGAND FREE ENERGY PREDICTED BY IDOCK:   -0.40 KCAL/MOL
REMARK 927      BINDING AFFINITY PREDICTED BY RF-SCORE:    0.00 PKD
ROOT
HETATM    1  C   UNL     1      -6.362  12.451  68.358  1.00  0.00    -0.056 C  
HETATM    2  C   UNL     1      -6.605  11.431  67.267  1.00  0.00    -0.104 C  
HETATM    3  O   UNL     1      -6.268  11.625  66.102  1.00  0.00    -0.027 OA 
ENDROOT
BRANCH   2   4
HETATM    4  C   UNL     1      -7.377  10.206  67.702  1.00  0.00    -0.089 C  
HETATM    5  C   UNL     1      -8.796  10.458  68.262  1.00  0.00    -0.135 C  
HETATM    6  C   UNL     1      -9.682  11.199  67.258  1.00  0.00    -0.186 A  
HETATM    7  C   UNL     1      -9.434   9.186  68.849  1.00  0.00    -0.151 C  
HETATM    8  C   UNL     1     -10.112   9.163  70.016  1.00  0.00    -0.206 C  
HETATM    9  C   UNL     1     -10.016  10.633  66.017  1.00  0.00    -0.295 A  
HETATM   10  C   UNL     1     -10.454   7.897  70.672  1.00  0.00    -0.216 A  
HETATM   11  C   UNL     1     -10.633  11.396  65.023  1.00  0.00    -0.359 A  
HETATM   12  O   UNL     1     -10.472  10.289  70.728  1.00  0.00    -0.361 OA 
HETATM   13  C   UNL     1     -11.026   7.806  71.944  1.00  0.00    -0.294 A  
HETATM   14  C   UNL     1     -10.936  12.738  65.267  1.00  0.00    -0.284 A  
HETATM   15  H   UNL     1     -10.949  10.272  71.550  1.00  0.00     0.000 HD 
HETATM   16  N   UNL     1     -11.448  13.577  64.177  1.00  0.00    -0.379 N  
HETATM   17  C   UNL     1     -10.693  13.300  66.525  1.00  0.00    -0.290 A  
HETATM   18  C   UNL     1     -11.235   6.559  72.550  1.00  0.00    -0.298 A  
HETATM   19  O   UNL     1     -11.703  14.763  64.432  1.00  0.00    -0.391 OA 
HETATM   20  C   UNL     1     -10.886   5.387  71.884  1.00  0.00    -0.253 A  
HETATM   21  C   UNL     1     -10.069  12.529  67.513  1.00  0.00    -0.207 A  
HETATM   22  O   UNL     1     -11.574  13.055  63.059  1.00  0.00    -0.223 OA 
HETATM   23  C   UNL     1     -10.339   5.458  70.608  1.00  0.00    -0.333 A  
HETATM   24  C   UNL     1     -10.130   6.709  70.031  1.00  0.00    -0.177 A  
HETATM   25  O   UNL     1      -9.544   6.712  68.764  1.00  0.00    -0.132 OA 
HETATM   26  C   UNL     1      -9.191   7.891  68.138  1.00  0.00    -0.136 C  
HETATM   27  O   UNL     1      -8.680   7.834  67.026  1.00  0.00    -0.125 OA 
ENDBRANCH   2   4
TORSDOF 1
ENDMDL
MODEL       43
REMARK 921   NORMALIZED FREE ENERGY PREDICTED BY IDOCK:   -5.36 KCAL/MOL
REMARK 922        TOTAL FREE ENERGY PREDICTED BY IDOCK:   -6.07 KCAL/MOL
REMARK 923 INTER-LIGAND FREE ENERGY PREDICTED BY IDOCK:   -5.95 KCAL/MOL
REMARK 924 INTRA-LIGAND FREE ENERGY PREDICTED BY IDOCK:   -0.12 KCAL/MOL
REMARK 927      BINDING AFFINITY PREDICTED BY RF-SCORE:    0.00 PKD
ROOT
HETATM    1  C   UNL     1     -12.763  11.434  71.549  1.00  0.00    -0.462 C  
HETATM    2  C   UNL     1     -12.484  10.918  70.155  1.00  0.00    -0.283 C  
HETATM    3  O   UNL     1     -12.446   9.718  69.896  1.00  0.00     0.209 OA 
ENDROOT
BRANCH   2   4
HETATM    4  C   UNL     1     -12.161  11.986  69.134  1.00  0.00    -0.241 C  
HETATM    5  C   UNL     1     -10.664  12.170  68.791  1.00  0.00    -0.252 C  
HETATM    6  C   UNL     1     -10.032  10.872  68.281  1.00  0.00    -0.187 A  
HETATM    7  C   UNL     1     -10.411  13.392  67.890  1.00  0.00    -0.238 C  
HETATM    8  C   UNL     1      -9.398  14.263  68.084  1.00  0.00    -0.206 C  
HETATM    9  C   UNL     1     -10.471  10.259  67.097  1.00  0.00    -0.311 A  
HETATM   10  C   UNL     1      -9.360  15.552  67.388  1.00  0.00    -0.211 A  
HETATM   11  C   UNL     1     -10.049   8.972  66.757  1.00  0.00    -0.344 A  
HETATM   12  O   UNL     1      -8.370  14.072  68.986  1.00  0.00    -0.334 OA 
HETATM   13  C   UNL     1      -8.420  16.554  67.649  1.00  0.00    -0.182 A  
HETATM   14  C   UNL     1      -9.166   8.286  67.598  1.00  0.00    -0.137 A  
HETATM   15  H   UNL     1      -7.658  14.686  69.122  1.00  0.00     0.000 HD 
HETATM   16  N   UNL     1      -8.839   6.883  67.318  1.00  0.00    -0.118 N  
HETATM   17  C   UNL     1      -8.647   8.911  68.737  1.00  0.00    -0.136 A  
HETATM   18  C   UNL     1      -8.505  17.801  67.013  1.00  0.00    -0.245 A  
HETATM   19  O   UNL     1      -8.055   6.309  68.087  1.00  0.00    -0.113 OA 
HETATM   20  C   UNL     1      -9.523  18.056  66.099  1.00  0.00    -0.161 A  
HETATM   21  C   UNL     1      -9.081  10.199  69.073  1.00  0.00    -0.176 A  
HETATM   22  O   UNL     1      -9.384   6.349  66.341  1.00  0.00    -0.159 OA 
HETATM   23  C   UNL     1     -10.452  17.063  65.809  1.00  0.00    -0.261 A  
HETATM   24  C   UNL     1     -10.354  15.836  66.461  1.00  0.00    -0.294 A  
HETATM   25  O   UNL     1     -11.338  14.896  66.152  1.00  0.00    -0.344 OA 
HETATM   26  C   UNL     1     -11.408  13.684  66.813  1.00  0.00    -0.328 C  
HETATM   27  O   UNL     1     -12.293  12.896  66.501  1.00  0.00    -0.440 OA 
ENDBRANCH   2   4
TORSDOF 1
ENDMDL
MODEL       44
REMARK 921   NORMALIZED FREE ENERGY PREDICTED BY IDOCK:   -5.35 KCAL/MOL
REMARK 922        TOTAL FREE ENERGY PREDICTED BY IDOCK:   -6.06 KCAL/MOL
REMARK 923 INTER-LIGAND FREE ENERGY PREDICTED BY IDOCK:   -5.66 KCAL/MOL
REMARK 924 INTRA-LIGAND FREE ENERGY PREDICTED BY IDOCK:   -0.40 KCAL/MOL
REMARK 927      BINDING AFFINITY PREDICTED BY RF-SCORE:    0.00 PKD
ROOT
HETATM    1  C   UNL     1      -7.359   8.237  64.374  1.00  0.00    -0.092 C  
HETATM    2  C   UNL     1      -6.907   8.826  65.693  1.00  0.00    -0.075 C  
HETATM    3  O   UNL     1      -6.265   8.176  66.515  1.00  0.00    -0.048 OA 
ENDROOT
BRANCH   2   4
HETATM    4  C   UNL     1      -7.389  10.234  65.959  1.00  0.00    -0.129 C  
HETATM    5  C   UNL     1      -8.917  10.411  66.125  1.00  0.00    -0.175 C  
HETATM    6  C   UNL     1      -9.472   9.538  67.253  1.00  0.00    -0.170 A  
HETATM    7  C   UNL     1      -9.333  11.890  66.208  1.00  0.00    -0.234 C  
HETATM    8  C   UNL     1     -10.399  12.402  65.556  1.00  0.00    -0.271 C  
HETATM    9  C   UNL     1      -9.069   9.717  68.586  1.00  0.00    -0.132 A  
HETATM   10  C   UNL     1     -10.593  13.850  65.433  1.00  0.00    -0.344 A  
HETATM   11  C   UNL     1      -9.406   8.783  69.568  1.00  0.00    -0.157 A  
HETATM   12  O   UNL     1     -11.341  11.643  64.891  1.00  0.00    -0.272 OA 
HETATM   13  C   UNL     1     -11.592  14.441  64.655  1.00  0.00    -0.414 A  
HETATM   14  C   UNL     1     -10.167   7.661  69.227  1.00  0.00    -0.210 A  
HETATM   15  H   UNL     1     -12.090  12.003  64.432  1.00  0.00     0.000 HD 
HETATM   16  N   UNL     1     -10.395   6.608  70.224  1.00  0.00    -0.198 N  
HETATM   17  C   UNL     1     -10.654   7.507  67.925  1.00  0.00    -0.250 A  
HETATM   18  C   UNL     1     -11.656  15.834  64.507  1.00  0.00    -0.247 A  
HETATM   19  O   UNL     1     -11.072   5.627  69.883  1.00  0.00    -0.321 OA 
HETATM   20  C   UNL     1     -10.729  16.652  65.146  1.00  0.00    -0.205 A  
HETATM   21  C   UNL     1     -10.306   8.445  66.946  1.00  0.00    -0.378 A  
HETATM   22  O   UNL     1      -9.878   6.751  71.342  1.00  0.00    -0.179 OA 
HETATM   23  C   UNL     1      -9.744  16.083  65.945  1.00  0.00    -0.378 A  
HETATM   24  C   UNL     1      -9.694  14.696  66.068  1.00  0.00    -0.312 A  
HETATM   25  O   UNL     1      -8.659  14.186  66.854  1.00  0.00    -0.204 OA 
HETATM   26  C   UNL     1      -8.442  12.826  66.964  1.00  0.00    -0.153 C  
HETATM   27  O   UNL     1      -7.519  12.435  67.668  1.00  0.00    -0.115 OA 
ENDBRANCH   2   4
TORSDOF 1
ENDMDL
MODEL       45
REMARK 921   NORMALIZED FREE ENERGY PREDICTED BY IDOCK:   -5.33 KCAL/MOL
REMARK 922        TOTAL FREE ENERGY PREDICTED BY IDOCK:   -6.05 KCAL/MOL
REMARK 923 INTER-LIGAND FREE ENERGY PREDICTED BY IDOCK:   -5.67 KCAL/MOL
REMARK 924 INTRA-LIGAND FREE ENERGY PREDICTED BY IDOCK:   -0.37 KCAL/MOL
REMARK 927      BINDING AFFINITY PREDICTED BY RF-SCORE:    0.00 PKD
ROOT
HETATM    1  C   UNL     1      -6.451  15.736  69.415  1.00  0.00    -0.165 C  
HETATM    2  C   UNL     1      -6.917  15.180  68.087  1.00  0.00    -0.125 C  
HETATM    3  O   UNL     1      -6.414  15.523  67.020  1.00  0.00    -0.285 OA 
ENDROOT
BRANCH   2   4
HETATM    4  C   UNL     1      -8.108  14.252  68.169  1.00  0.00    -0.144 C  
HETATM    5  C   UNL     1      -9.370  14.822  68.858  1.00  0.00    -0.184 C  
HETATM    6  C   UNL     1      -9.860  16.103  68.180  1.00  0.00    -0.227 A  
HETATM    7  C   UNL     1     -10.463  13.757  69.062  1.00  0.00    -0.117 C  
HETATM    8  C   UNL     1     -11.174  13.628  70.202  1.00  0.00     0.201 C  
HETATM    9  C   UNL     1     -10.300  16.105  66.846  1.00  0.00    -0.297 A  
HETATM   10  C   UNL     1     -11.994  12.440  70.457  1.00  0.00    -0.284 A  
HETATM   11  C   UNL     1     -10.533  17.304  66.170  1.00  0.00    -0.279 A  
HETATM   12  O   UNL     1     -11.143  14.534  71.244  1.00  0.00    -0.458 OA 
HETATM   13  C   UNL     1     -12.638  12.181  71.671  1.00  0.00    -0.204 A  
HETATM   14  C   UNL     1     -10.341  18.522  66.830  1.00  0.00    -0.401 A  
HETATM   15  H   UNL     1     -11.643  14.442  72.046  1.00  0.00     0.000 HD 
HETATM   16  N   UNL     1     -10.443  19.779  66.079  1.00  0.00    -0.515 N  
HETATM   17  C   UNL     1      -9.989  18.544  68.184  1.00  0.00    -0.393 A  
HETATM   18  C   UNL     1     -13.324  10.976  71.876  1.00  0.00    -0.423 A  
HETATM   19  O   UNL     1     -10.264  20.837  66.698  1.00  0.00    -0.145 OA 
HETATM   20  C   UNL     1     -13.385  10.021  70.865  1.00  0.00    -0.281 A  
HETATM   21  C   UNL     1      -9.751  17.337  68.851  1.00  0.00    -0.251 A  
HETATM   22  O   UNL     1     -10.680  19.706  64.864  1.00  0.00    -0.070 OA 
HETATM   23  C   UNL     1     -12.771  10.272  69.644  1.00  0.00     0.377 A  
HETATM   24  C   UNL     1     -12.086  11.472  69.467  1.00  0.00    -0.284 A  
HETATM   25  O   UNL     1     -11.461  11.647  68.230  1.00  0.00    -0.252 OA 
HETATM   26  C   UNL     1     -10.664  12.746  67.977  1.00  0.00    -0.230 C  
HETATM   27  O   UNL     1     -10.141  12.848  66.873  1.00  0.00    -0.234 OA 
ENDBRANCH   2   4
TORSDOF 1
ENDMDL
MODEL       46
REMARK 921   NORMALIZED FREE ENERGY PREDICTED BY IDOCK:   -5.26 KCAL/MOL
REMARK 922        TOTAL FREE ENERGY PREDICTED BY IDOCK:   -5.97 KCAL/MOL
REMARK 923 INTER-LIGAND FREE ENERGY PREDICTED BY IDOCK:   -5.55 KCAL/MOL
REMARK 924 INTRA-LIGAND FREE ENERGY PREDICTED BY IDOCK:   -0.42 KCAL/MOL
REMARK 927      BINDING AFFINITY PREDICTED BY RF-SCORE:    0.00 PKD
ROOT
HETATM    1  C   UNL     1      -5.697  14.369  67.506  1.00  0.00     0.145 C  
HETATM    2  C   UNL     1      -6.178  13.428  68.590  1.00  0.00    -0.088 C  
HETATM    3  O   UNL     1      -5.882  13.584  69.772  1.00  0.00    -0.102 OA 
ENDROOT
BRANCH   2   4
HETATM    4  C   UNL     1      -6.962  12.235  68.093  1.00  0.00    -0.087 C  
HETATM    5  C   UNL     1      -8.463  12.202  68.467  1.00  0.00    -0.083 C  
HETATM    6  C   UNL     1      -9.201  13.447  67.971  1.00  0.00    -0.209 A  
HETATM    7  C   UNL     1      -9.138  10.873  68.083  1.00  0.00    -0.155 C  
HETATM    8  C   UNL     1      -9.995  10.213  68.890  1.00  0.00    -0.199 C  
HETATM    9  C   UNL     1      -9.306  13.741  66.602  1.00  0.00    -0.277 A  
HETATM   10  C   UNL     1     -10.390   8.829  68.612  1.00  0.00    -0.230 A  
HETATM   11  C   UNL     1      -9.782  14.980  66.168  1.00  0.00    -0.334 A  
HETATM   12  O   UNL     1     -10.510  10.727  70.064  1.00  0.00    -0.447 OA 
HETATM   13  C   UNL     1     -11.158   8.045  69.479  1.00  0.00     0.026 A  
HETATM   14  C   UNL     1     -10.174  15.940  67.107  1.00  0.00    -0.278 A  
HETATM   15  H   UNL     1     -11.113  10.261  70.632  1.00  0.00     0.000 HD 
HETATM   16  N   UNL     1     -10.533  17.291  66.658  1.00  0.00    -0.293 N  
HETATM   17  C   UNL     1     -10.161  15.638  68.473  1.00  0.00    -0.211 A  
HETATM   18  C   UNL     1     -11.414   6.697  69.191  1.00  0.00    -0.199 A  
HETATM   19  O   UNL     1     -10.872  18.114  67.520  1.00  0.00    -0.389 OA 
HETATM   20  C   UNL     1     -10.915   6.120  68.026  1.00  0.00    -0.399 A  
HETATM   21  C   UNL     1      -9.676  14.396  68.898  1.00  0.00    -0.145 A  
HETATM   22  O   UNL     1     -10.455  17.533  65.445  1.00  0.00    -0.647 OA 
HETATM   23  C   UNL     1     -10.171   6.891  67.141  1.00  0.00    -0.308 A  
HETATM   24  C   UNL     1      -9.920   8.225  67.453  1.00  0.00    -0.209 A  
HETATM   25  O   UNL     1      -9.136   8.933  66.540  1.00  0.00    -0.147 OA 
HETATM   26  C   UNL     1      -8.732  10.230  66.794  1.00  0.00    -0.126 C  
HETATM   27  O   UNL     1      -8.045  10.804  65.957  1.00  0.00    -0.156 OA 
ENDBRANCH   2   4
TORSDOF 1
ENDMDL
MODEL       47
REMARK 921   NORMALIZED FREE ENERGY PREDICTED BY IDOCK:   -5.24 KCAL/MOL
REMARK 922        TOTAL FREE ENERGY PREDICTED BY IDOCK:   -5.95 KCAL/MOL
REMARK 923 INTER-LIGAND FREE ENERGY PREDICTED BY IDOCK:   -5.60 KCAL/MOL
REMARK 924 INTRA-LIGAND FREE ENERGY PREDICTED BY IDOCK:   -0.35 KCAL/MOL
REMARK 927      BINDING AFFINITY PREDICTED BY RF-SCORE:    0.00 PKD
ROOT
HETATM    1  C   UNL     1      -9.967   8.927  71.531  1.00  0.00    -0.391 C  
HETATM    2  C   UNL     1     -10.631   8.829  70.175  1.00  0.00    -0.221 C  
HETATM    3  O   UNL     1     -10.854   7.751  69.631  1.00  0.00    -0.244 OA 
ENDROOT
BRANCH   2   4
HETATM    4  C   UNL     1     -10.906  10.156  69.505  1.00  0.00    -0.289 C  
HETATM    5  C   UNL     1      -9.695  10.843  68.830  1.00  0.00    -0.196 C  
HETATM    6  C   UNL     1      -9.047   9.945  67.774  1.00  0.00    -0.138 A  
HETATM    7  C   UNL     1     -10.021  12.263  68.337  1.00  0.00    -0.210 C  
HETATM    8  C   UNL     1      -9.196  13.318  68.505  1.00  0.00    -0.073 C  
HETATM    9  C   UNL     1      -9.749   9.532  66.631  1.00  0.00    -0.270 A  
HETATM   10  C   UNL     1      -9.659  14.690  68.279  1.00  0.00    -0.208 A  
HETATM   11  C   UNL     1      -9.234   8.542  65.790  1.00  0.00    -0.210 A  
HETATM   12  O   UNL     1      -7.898  13.224  68.967  1.00  0.00    -0.329 OA 
HETATM   13  C   UNL     1      -8.901  15.829  68.571  1.00  0.00    -0.193 A  
HETATM   14  C   UNL     1      -7.995   7.962  66.079  1.00  0.00    -0.103 A  
HETATM   15  H   UNL     1      -7.318  13.966  69.086  1.00  0.00     0.000 HD 
HETATM   16  N   UNL     1      -7.523   6.823  65.283  1.00  0.00    -0.081 N  
HETATM   17  C   UNL     1      -7.237   8.419  67.163  1.00  0.00    -0.084 A  
HETATM   18  C   UNL     1      -9.447  17.112  68.421  1.00  0.00    -0.276 A  
HETATM   19  O   UNL     1      -6.422   6.334  65.572  1.00  0.00    -0.037 OA 
HETATM   20  C   UNL     1     -10.753  17.271  67.965  1.00  0.00    -0.367 A  
HETATM   21  C   UNL     1      -7.765   9.407  68.003  1.00  0.00    -0.084 A  
HETATM   22  O   UNL     1      -8.265   6.403  64.383  1.00  0.00    -0.106 OA 
HETATM   23  C   UNL     1     -11.512  16.151  67.647  1.00  0.00     0.038 A  
HETATM   24  C   UNL     1     -10.952  14.886  67.814  1.00  0.00    -0.293 A  
HETATM   25  O   UNL     1     -11.779  13.803  67.512  1.00  0.00    -0.332 OA 
HETATM   26  C   UNL     1     -11.372  12.503  67.740  1.00  0.00    -0.296 C  
HETATM   27  O   UNL     1     -12.140  11.591  67.455  1.00  0.00    -0.614 OA 
ENDBRANCH   2   4
TORSDOF 1
ENDMDL
MODEL       48
REMARK 921   NORMALIZED FREE ENERGY PREDICTED BY IDOCK:   -5.20 KCAL/MOL
REMARK 922        TOTAL FREE ENERGY PREDICTED BY IDOCK:   -5.91 KCAL/MOL
REMARK 923 INTER-LIGAND FREE ENERGY PREDICTED BY IDOCK:   -5.50 KCAL/MOL
REMARK 924 INTRA-LIGAND FREE ENERGY PREDICTED BY IDOCK:   -0.40 KCAL/MOL
REMARK 927      BINDING AFFINITY PREDICTED BY RF-SCORE:    0.00 PKD
ROOT
HETATM    1  C   UNL     1     -12.398  11.562  71.278  1.00  0.00    -0.314 C  
HETATM    2  C   UNL     1     -12.756  10.098  71.147  1.00  0.00    -0.396 C  
HETATM    3  O   UNL     1     -13.884   9.724  70.838  1.00  0.00    -0.178 OA 
ENDROOT
BRANCH   2   4
HETATM    4  C   UNL     1     -11.649   9.137  71.520  1.00  0.00    -0.439 C  
HETATM    5  C   UNL     1     -10.996   8.362  70.351  1.00  0.00    -0.249 C  
HETATM    6  C   UNL     1     -10.418   9.306  69.295  1.00  0.00    -0.228 A  
HETATM    7  C   UNL     1     -10.015   7.280  70.836  1.00  0.00    -0.186 C  
HETATM    8  C   UNL     1      -9.961   6.037  70.313  1.00  0.00    -0.187 C  
HETATM    9  C   UNL     1      -9.375  10.196  69.598  1.00  0.00    -0.215 A  
HETATM   10  C   UNL     1      -9.221   4.962  70.982  1.00  0.00    -0.192 A  
HETATM   11  C   UNL     1      -9.006  11.201  68.700  1.00  0.00    -0.162 A  
HETATM   12  O   UNL     1     -10.636   5.641  69.176  1.00  0.00    -0.253 OA 
HETATM   13  C   UNL     1      -9.242   3.626  70.571  1.00  0.00    -0.210 A  
HETATM   14  C   UNL     1      -9.671  11.317  67.476  1.00  0.00    -0.177 A  
HETATM   15  H   UNL     1     -10.598   4.766  68.809  1.00  0.00     0.000 HD 
HETATM   16  N   UNL     1      -9.385  12.459  66.599  1.00  0.00    -0.223 N  
HETATM   17  C   UNL     1     -10.653  10.387  67.115  1.00  0.00    -0.319 A  
HETATM   18  C   UNL     1      -8.589   2.635  71.318  1.00  0.00    -0.103 A  
HETATM   19  O   UNL     1      -9.998  12.528  65.524  1.00  0.00    -0.263 OA 
HETATM   20  C   UNL     1      -7.897   2.971  72.478  1.00  0.00    -0.058 A  
HETATM   21  C   UNL     1     -11.021   9.388  68.024  1.00  0.00    -0.119 A  
HETATM   22  O   UNL     1      -8.564  13.298  66.997  1.00  0.00    -0.208 OA 
HETATM   23  C   UNL     1      -7.845   4.298  72.888  1.00  0.00    -0.082 A  
HETATM   24  C   UNL     1      -8.510   5.264  72.136  1.00  0.00    -0.126 A  
HETATM   25  O   UNL     1      -8.449   6.571  72.622  1.00  0.00    -0.121 OA 
HETATM   26  C   UNL     1      -9.157   7.595  72.022  1.00  0.00    -0.131 C  
HETATM   27  O   UNL     1      -9.067   8.723  72.490  1.00  0.00    -0.367 OA 
ENDBRANCH   2   4
TORSDOF 1
ENDMDL
MODEL       49
REMARK 921   NORMALIZED FREE ENERGY PREDICTED BY IDOCK:   -5.19 KCAL/MOL
REMARK 922        TOTAL FREE ENERGY PREDICTED BY IDOCK:   -5.90 KCAL/MOL
REMARK 923 INTER-LIGAND FREE ENERGY PREDICTED BY IDOCK:   -5.47 KCAL/MOL
REMARK 924 INTRA-LIGAND FREE ENERGY PREDICTED BY IDOCK:   -0.42 KCAL/MOL
REMARK 927      BINDING AFFINITY PREDICTED BY RF-SCORE:    0.00 PKD
ROOT
HETATM    1  C   UNL     1      -8.758   8.930  65.783  1.00  0.00    -0.205 C  
HETATM    2  C   UNL     1      -9.550  10.158  65.390  1.00  0.00    -0.264 C  
HETATM    3  O   UNL     1     -10.532  10.097  64.655  1.00  0.00    -0.078 OA 
ENDROOT
BRANCH   2   4
HETATM    4  C   UNL     1      -8.983  11.467  65.890  1.00  0.00    -0.152 C  
HETATM    5  C   UNL     1      -9.882  12.276  66.855  1.00  0.00    -0.216 C  
HETATM    6  C   UNL     1     -10.264  11.463  68.094  1.00  0.00    -0.200 A  
HETATM    7  C   UNL     1      -9.311  13.670  67.166  1.00  0.00    -0.240 C  
HETATM    8  C   UNL     1     -10.059  14.793  67.195  1.00  0.00    -0.240 C  
HETATM    9  C   UNL     1      -9.293  11.010  69.002  1.00  0.00    -0.105 A  
HETATM   10  C   UNL     1      -9.440  16.121  67.213  1.00  0.00    -0.231 A  
HETATM   11  C   UNL     1      -9.619  10.090  70.000  1.00  0.00    -0.205 A  
HETATM   12  O   UNL     1     -11.439  14.809  67.134  1.00  0.00    -0.354 OA 
HETATM   13  C   UNL     1     -10.153  17.318  67.102  1.00  0.00    -0.297 A  
HETATM   14  C   UNL     1     -10.931   9.620  70.110  1.00  0.00    -0.275 A  
HETATM   15  H   UNL     1     -11.965  15.599  67.155  1.00  0.00     0.000 HD 
HETATM   16  N   UNL     1     -11.241   8.545  71.061  1.00  0.00    -0.260 N  
HETATM   17  C   UNL     1     -11.933  10.123  69.274  1.00  0.00     0.097 A  
HETATM   18  C   UNL     1      -9.484  18.548  67.027  1.00  0.00    -0.292 A  
HETATM   19  O   UNL     1     -12.415   8.154  71.127  1.00  0.00    -0.280 OA 
HETATM   20  C   UNL     1      -8.094  18.596  67.077  1.00  0.00    -0.259 A  
HETATM   21  C   UNL     1     -11.596  11.040  68.272  1.00  0.00    -0.354 A  
HETATM   22  O   UNL     1     -10.305   8.078  71.726  1.00  0.00    -0.200 OA 
HETATM   23  C   UNL     1      -7.369  17.418  67.213  1.00  0.00    -0.194 A  
HETATM   24  C   UNL     1      -8.055  16.207  67.273  1.00  0.00    -0.175 A  
HETATM   25  O   UNL     1      -7.267  15.058  67.373  1.00  0.00    -0.194 OA 
HETATM   26  C   UNL     1      -7.828  13.796  67.333  1.00  0.00    -0.153 C  
HETATM   27  O   UNL     1      -7.089  12.823  67.425  1.00  0.00    -0.148 OA 
ENDBRANCH   2   4
TORSDOF 1
ENDMDL
MODEL       50
REMARK 921   NORMALIZED FREE ENERGY PREDICTED BY IDOCK:   -5.18 KCAL/MOL
REMARK 922        TOTAL FREE ENERGY PREDICTED BY IDOCK:   -5.89 KCAL/MOL
REMARK 923 INTER-LIGAND FREE ENERGY PREDICTED BY IDOCK:   -5.57 KCAL/MOL
REMARK 924 INTRA-LIGAND FREE ENERGY PREDICTED BY IDOCK:   -0.31 KCAL/MOL
REMARK 927      BINDING AFFINITY PREDICTED BY RF-SCORE:    0.00 PKD
ROOT
HETATM    1  C   UNL     1      -7.604   8.484  64.144  1.00  0.00    -0.123 C  
HETATM    2  C   UNL     1      -8.687   9.537  64.055  1.00  0.00    -0.216 C  
HETATM    3  O   UNL     1      -9.461   9.601  63.103  1.00  0.00    -0.125 OA 
ENDROOT
BRANCH   2   4
HETATM    4  C   UNL     1      -8.677  10.557  65.171  1.00  0.00    -0.197 C  
HETATM    5  C   UNL     1      -9.706  10.336  66.305  1.00  0.00    -0.263 C  
HETATM    6  C   UNL     1      -9.543   8.964  66.963  1.00  0.00    -0.232 A  
HETATM    7  C   UNL     1      -9.752  11.511  67.297  1.00  0.00    -0.197 C  
HETATM    8  C   UNL     1     -10.899  12.036  67.777  1.00  0.00    -0.215 C  
HETATM    9  C   UNL     1      -8.366   8.612  67.643  1.00  0.00    -0.121 A  
HETATM   10  C   UNL     1     -10.911  13.319  68.487  1.00  0.00    -0.286 A  
HETATM   11  C   UNL     1      -8.138   7.295  68.046  1.00  0.00    -0.120 A  
HETATM   12  O   UNL     1     -12.148  11.479  67.589  1.00  0.00    -0.623 OA 
HETATM   13  C   UNL     1     -12.076  13.983  68.883  1.00  0.00    -0.351 A  
HETATM   14  C   UNL     1      -9.097   6.312  67.784  1.00  0.00    -0.114 A  
HETATM   15  H   UNL     1     -12.955  11.848  67.927  1.00  0.00     0.000 HD 
HETATM   16  N   UNL     1      -8.795   4.905  68.073  1.00  0.00    -0.103 N  
HETATM   17  C   UNL     1     -10.315   6.656  67.187  1.00  0.00    -0.319 A  
HETATM   18  C   UNL     1     -12.013  15.254  69.470  1.00  0.00    -0.356 A  
HETATM   19  O   UNL     1      -9.670   4.064  67.824  1.00  0.00    -0.166 OA 
HETATM   20  C   UNL     1     -10.783  15.871  69.680  1.00  0.00    -0.304 A  
HETATM   21  C   UNL     1     -10.532   7.978  66.780  1.00  0.00    -0.319 A  
HETATM   22  O   UNL     1      -7.673   4.640  68.530  1.00  0.00    -0.075 OA 
HETATM   23  C   UNL     1      -9.613  15.215  69.315  1.00  0.00    -0.218 A  
HETATM   24  C   UNL     1      -9.701  13.958  68.723  1.00  0.00    -0.093 A  
HETATM   25  O   UNL     1      -8.492  13.369  68.348  1.00  0.00    -0.165 OA 
HETATM   26  C   UNL     1      -8.459  12.174  67.657  1.00  0.00    -0.163 C  
HETATM   27  O   UNL     1      -7.369  11.703  67.352  1.00  0.00    -0.110 OA 
ENDBRANCH   2   4
TORSDOF 1
ENDMDL
MODEL       51
REMARK 921   NORMALIZED FREE ENERGY PREDICTED BY IDOCK:   -5.16 KCAL/MOL
REMARK 922        TOTAL FREE ENERGY PREDICTED BY IDOCK:   -5.86 KCAL/MOL
REMARK 923 INTER-LIGAND FREE ENERGY PREDICTED BY IDOCK:   -5.44 KCAL/MOL
REMARK 924 INTRA-LIGAND FREE ENERGY PREDICTED BY IDOCK:   -0.42 KCAL/MOL
REMARK 927      BINDING AFFINITY PREDICTED BY RF-SCORE:    0.00 PKD
ROOT
HETATM    1  C   UNL     1      -7.810   7.992  72.702  1.00  0.00    -0.169 C  
HETATM    2  C   UNL     1      -8.000   6.735  71.881  1.00  0.00    -0.101 C  
HETATM    3  O   UNL     1      -8.129   5.628  72.397  1.00  0.00    -0.106 OA 
ENDROOT
BRANCH   2   4
HETATM    4  C   UNL     1      -7.920   6.936  70.385  1.00  0.00    -0.114 C  
HETATM    5  C   UNL     1      -9.187   6.564  69.578  1.00  0.00    -0.142 C  
HETATM    6  C   UNL     1     -10.415   7.340  70.058  1.00  0.00    -0.234 A  
HETATM    7  C   UNL     1      -8.957   6.623  68.058  1.00  0.00    -0.117 C  
HETATM    8  C   UNL     1      -9.406   5.683  67.200  1.00  0.00    -0.115 C  
HETATM    9  C   UNL     1     -10.481   8.739  69.967  1.00  0.00    -0.222 A  
HETATM   10  C   UNL     1      -8.929   5.627  65.815  1.00  0.00    -0.153 A  
HETATM   11  C   UNL     1     -11.499   9.453  70.603  1.00  0.00    -0.344 A  
HETATM   12  O   UNL     1     -10.270   4.663  67.546  1.00  0.00    -0.115 OA 
HETATM   13  C   UNL     1      -9.244   4.599  64.920  1.00  0.00    -0.144 A  
HETATM   14  C   UNL     1     -12.477   8.767  71.331  1.00  0.00    -0.303 A  
HETATM   15  H   UNL     1     -10.585   4.002  66.942  1.00  0.00     0.000 HD 
HETATM   16  N   UNL     1     -13.459   9.522  72.119  1.00  0.00    -0.446 N  
HETATM   17  C   UNL     1     -12.482   7.368  71.362  1.00  0.00    -0.402 A  
HETATM   18  C   UNL     1      -8.672   4.560  63.641  1.00  0.00    -0.132 A  
HETATM   19  O   UNL     1     -14.307   8.878  72.752  1.00  0.00    -0.600 OA 
HETATM   20  C   UNL     1      -7.787   5.556  63.236  1.00  0.00    -0.095 A  
HETATM   21  C   UNL     1     -11.454   6.663  70.727  1.00  0.00    -0.407 A  
HETATM   22  O   UNL     1     -13.366  10.758  72.122  1.00  0.00    -0.442 OA 
HETATM   23  C   UNL     1      -7.482   6.599  64.103  1.00  0.00    -0.097 A  
HETATM   24  C   UNL     1      -8.054   6.610  65.374  1.00  0.00    -0.129 A  
HETATM   25  O   UNL     1      -7.678   7.665  66.208  1.00  0.00    -0.086 OA 
HETATM   26  C   UNL     1      -8.096   7.724  67.523  1.00  0.00    -0.124 C  
HETATM   27  O   UNL     1      -7.735   8.673  68.210  1.00  0.00    -0.098 OA 
ENDBRANCH   2   4
TORSDOF 1
ENDMDL
MODEL       52
REMARK 921   NORMALIZED FREE ENERGY PREDICTED BY IDOCK:   -5.14 KCAL/MOL
REMARK 922        TOTAL FREE ENERGY PREDICTED BY IDOCK:   -5.85 KCAL/MOL
REMARK 923 INTER-LIGAND FREE ENERGY PREDICTED BY IDOCK:   -5.58 KCAL/MOL
REMARK 924 INTRA-LIGAND FREE ENERGY PREDICTED BY IDOCK:   -0.27 KCAL/MOL
REMARK 927      BINDING AFFINITY PREDICTED BY RF-SCORE:    0.00 PKD
ROOT
HETATM    1  C   UNL     1     -12.018  13.093  69.962  1.00  0.00    -0.391 C  
HETATM    2  C   UNL     1     -11.801  13.124  68.465  1.00  0.00    -0.342 C  
HETATM    3  O   UNL     1     -12.394  13.911  67.732  1.00  0.00    -0.252 OA 
ENDROOT
BRANCH   2   4
HETATM    4  C   UNL     1     -10.877  12.050  67.935  1.00  0.00    -0.254 C  
HETATM    5  C   UNL     1      -9.980  12.452  66.740  1.00  0.00    -0.234 C  
HETATM    6  C   UNL     1      -9.102  13.662  67.069  1.00  0.00    -0.254 A  
HETATM    7  C   UNL     1      -9.212  11.256  66.151  1.00  0.00    -0.222 C  
HETATM    8  C   UNL     1      -9.083  11.034  64.825  1.00  0.00    -0.137 C  
HETATM    9  C   UNL     1      -8.133  13.611  68.083  1.00  0.00    -0.156 A  
HETATM   10  C   UNL     1      -8.596   9.750  64.313  1.00  0.00    -0.202 A  
HETATM   11  C   UNL     1      -7.495  14.773  68.525  1.00  0.00    -0.117 A  
HETATM   12  O   UNL     1      -9.458  11.933  63.847  1.00  0.00    -0.494 OA 
HETATM   13  C   UNL     1      -8.573   9.408  62.957  1.00  0.00    -0.222 A  
HETATM   14  C   UNL     1      -7.812  16.003  67.941  1.00  0.00    -0.138 A  
HETATM   15  H   UNL     1      -9.367  11.777  62.914  1.00  0.00     0.000 HD 
HETATM   16  N   UNL     1      -7.253  17.239  68.503  1.00  0.00    -0.213 N  
HETATM   17  C   UNL     1      -8.710  16.066  66.870  1.00  0.00    -0.259 A  
HETATM   18  C   UNL     1      -8.186   8.124  62.548  1.00  0.00    -0.156 A  
HETATM   19  O   UNL     1      -7.560  18.310  67.960  1.00  0.00    -0.238 OA 
HETATM   20  C   UNL     1      -7.804   7.172  63.489  1.00  0.00    -0.103 A  
HETATM   21  C   UNL     1      -9.349  14.898  66.439  1.00  0.00    -0.327 A  
HETATM   22  O   UNL     1      -6.525  17.139  69.501  1.00  0.00    -0.233 OA 
HETATM   23  C   UNL     1      -7.797   7.503  64.838  1.00  0.00    -0.128 A  
HETATM   24  C   UNL     1      -8.196   8.781  65.222  1.00  0.00    -0.144 A  
HETATM   25  O   UNL     1      -8.201   9.037  66.595  1.00  0.00    -0.115 OA 
HETATM   26  C   UNL     1      -8.679  10.230  67.101  1.00  0.00    -0.129 C  
HETATM   27  O   UNL     1      -8.659  10.402  68.315  1.00  0.00    -0.121 OA 
ENDBRANCH   2   4
TORSDOF 1
ENDMDL
MODEL       53
REMARK 921   NORMALIZED FREE ENERGY PREDICTED BY IDOCK:   -5.08 KCAL/MOL
REMARK 922        TOTAL FREE ENERGY PREDICTED BY IDOCK:   -5.78 KCAL/MOL
REMARK 923 INTER-LIGAND FREE ENERGY PREDICTED BY IDOCK:   -6.10 KCAL/MOL
REMARK 924 INTRA-LIGAND FREE ENERGY PREDICTED BY IDOCK:    0.32 KCAL/MOL
REMARK 927      BINDING AFFINITY PREDICTED BY RF-SCORE:    0.00 PKD
ROOT
HETATM    1  C   UNL     1     -11.995  11.845  69.648  1.00  0.00    -0.365 C  
HETATM    2  C   UNL     1     -11.740  12.064  68.173  1.00  0.00    -0.333 C  
HETATM    3  O   UNL     1     -12.517  12.695  67.460  1.00  0.00    -0.139 OA 
ENDROOT
BRANCH   2   4
HETATM    4  C   UNL     1     -10.514  11.367  67.629  1.00  0.00    -0.225 C  
HETATM    5  C   UNL     1     -10.227  11.569  66.122  1.00  0.00    -0.272 C  
HETATM    6  C   UNL     1     -10.084  13.049  65.763  1.00  0.00    -0.294 A  
HETATM    7  C   UNL     1      -9.076  10.682  65.617  1.00  0.00    -0.206 C  
HETATM    8  C   UNL     1      -9.114  10.004  64.450  1.00  0.00    -0.247 C  
HETATM    9  C   UNL     1      -9.058  13.840  66.305  1.00  0.00    -0.012 A  
HETATM   10  C   UNL     1      -8.132   8.960  64.143  1.00  0.00    -0.160 A  
HETATM   11  C   UNL     1      -9.064  15.228  66.149  1.00  0.00    -0.314 A  
HETATM   12  O   UNL     1     -10.096  10.161  63.492  1.00  0.00    -0.480 OA 
HETATM   13  C   UNL     1      -8.200   8.128  63.022  1.00  0.00    -0.103 A  
HETATM   14  C   UNL     1     -10.096  15.842  65.433  1.00  0.00    -0.302 A  
HETATM   15  H   UNL     1     -10.122   9.684  62.671  1.00  0.00     0.000 HD 
HETATM   16  N   UNL     1     -10.183  17.307  65.396  1.00  0.00    -0.001 N  
HETATM   17  C   UNL     1     -11.081  15.067  64.810  1.00  0.00    -0.388 A  
HETATM   18  C   UNL     1      -7.278   7.086  62.845  1.00  0.00    -0.068 A  
HETATM   19  O   UNL     1     -11.114  17.813  64.753  1.00  0.00    -0.852 OA 
HETATM   20  C   UNL     1      -6.270   6.872  63.781  1.00  0.00    -0.043 A  
HETATM   21  C   UNL     1     -11.070  13.678  64.977  1.00  0.00    -0.338 A  
HETATM   22  O   UNL     1      -9.333  17.950  66.028  1.00  0.00    -0.508 OA 
HETATM   23  C   UNL     1      -6.172   7.706  64.889  1.00  0.00    -0.038 A  
HETATM   24  C   UNL     1      -7.106   8.728  65.049  1.00  0.00    -0.080 A  
HETATM   25  O   UNL     1      -6.974   9.505  66.201  1.00  0.00    -0.088 OA 
HETATM   26  C   UNL     1      -7.902  10.477  66.523  1.00  0.00    -0.134 C  
HETATM   27  O   UNL     1      -7.736  11.130  67.546  1.00  0.00    -0.109 OA 
ENDBRANCH   2   4
TORSDOF 1
ENDMDL
MODEL       54
REMARK 921   NORMALIZED FREE ENERGY PREDICTED BY IDOCK:   -5.01 KCAL/MOL
REMARK 922        TOTAL FREE ENERGY PREDICTED BY IDOCK:   -5.71 KCAL/MOL
REMARK 923 INTER-LIGAND FREE ENERGY PREDICTED BY IDOCK:   -5.31 KCAL/MOL
REMARK 924 INTRA-LIGAND FREE ENERGY PREDICTED BY IDOCK:   -0.40 KCAL/MOL
REMARK 927      BINDING AFFINITY PREDICTED BY RF-SCORE:    0.00 PKD
ROOT
HETATM    1  C   UNL     1      -5.999   8.100  71.627  1.00  0.00    -0.037 C  
HETATM    2  C   UNL     1      -7.311   8.427  72.306  1.00  0.00    -0.093 C  
HETATM    3  O   UNL     1      -7.543   8.110  73.470  1.00  0.00    -0.143 OA 
ENDROOT
BRANCH   2   4
HETATM    4  C   UNL     1      -8.342   9.084  71.416  1.00  0.00    -0.135 C  
HETATM    5  C   UNL     1      -8.814   8.257  70.197  1.00  0.00    -0.141 C  
HETATM    6  C   UNL     1      -9.396   6.905  70.616  1.00  0.00    -0.162 A  
HETATM    7  C   UNL     1      -9.718   9.067  69.249  1.00  0.00    -0.168 C  
HETATM    8  C   UNL     1      -9.603   9.037  67.905  1.00  0.00    -0.147 C  
HETATM    9  C   UNL     1     -10.545   6.818  71.419  1.00  0.00    -0.247 A  
HETATM   10  C   UNL     1     -10.283  10.025  67.061  1.00  0.00    -0.295 A  
HETATM   11  C   UNL     1     -10.938   5.600  71.977  1.00  0.00    -0.302 A  
HETATM   12  O   UNL     1      -8.800   8.153  67.213  1.00  0.00    -0.128 OA 
HETATM   13  C   UNL     1     -10.093  10.136  65.680  1.00  0.00    -0.324 A  
HETATM   14  C   UNL     1     -10.190   4.446  71.725  1.00  0.00    -0.131 A  
HETATM   15  H   UNL     1      -8.720   8.133  66.266  1.00  0.00     0.000 HD 
HETATM   16  N   UNL     1     -10.516   3.200  72.429  1.00  0.00    -0.073 N  
HETATM   17  C   UNL     1      -9.093   4.492  70.858  1.00  0.00    -0.185 A  
HETATM   18  C   UNL     1     -10.702  11.168  64.953  1.00  0.00    -0.318 A  
HETATM   19  O   UNL     1      -9.828   2.200  72.180  1.00  0.00    -0.123 OA 
HETATM   20  C   UNL     1     -11.518  12.095  65.597  1.00  0.00    -0.408 A  
HETATM   21  C   UNL     1      -8.702   5.719  70.308  1.00  0.00    -0.137 A  
HETATM   22  O   UNL     1     -11.448   3.228  73.246  1.00  0.00    -0.110 OA 
HETATM   23  C   UNL     1     -11.738  11.985  66.965  1.00  0.00    -0.341 A  
HETATM   24  C   UNL     1     -11.113  10.957  67.668  1.00  0.00    -0.313 A  
HETATM   25  O   UNL     1     -11.346  10.925  69.045  1.00  0.00    -0.235 OA 
HETATM   26  C   UNL     1     -10.697  10.019  69.862  1.00  0.00    -0.286 C  
HETATM   27  O   UNL     1     -10.940  10.035  71.063  1.00  0.00    -0.322 OA 
ENDBRANCH   2   4
TORSDOF 1
ENDMDL
MODEL       55
REMARK 921   NORMALIZED FREE ENERGY PREDICTED BY IDOCK:   -4.94 KCAL/MOL
REMARK 922        TOTAL FREE ENERGY PREDICTED BY IDOCK:   -5.63 KCAL/MOL
REMARK 923 INTER-LIGAND FREE ENERGY PREDICTED BY IDOCK:   -5.31 KCAL/MOL
REMARK 924 INTRA-LIGAND FREE ENERGY PREDICTED BY IDOCK:   -0.31 KCAL/MOL
REMARK 927      BINDING AFFINITY PREDICTED BY RF-SCORE:    0.00 PKD
ROOT
HETATM    1  C   UNL     1     -10.874   8.029  72.058  1.00  0.00    -0.333 C  
HETATM    2  C   UNL     1      -9.461   8.401  71.664  1.00  0.00    -0.214 C  
HETATM    3  O   UNL     1      -8.787   9.196  72.314  1.00  0.00    -0.277 OA 
ENDROOT
BRANCH   2   4
HETATM    4  C   UNL     1      -8.984   7.797  70.363  1.00  0.00    -0.147 C  
HETATM    5  C   UNL     1      -9.921   7.974  69.145  1.00  0.00    -0.188 C  
HETATM    6  C   UNL     1     -10.214   9.449  68.861  1.00  0.00    -0.215 A  
HETATM    7  C   UNL     1      -9.450   7.175  67.917  1.00  0.00    -0.135 C  
HETATM    8  C   UNL     1     -10.280   6.459  67.130  1.00  0.00    -0.199 C  
HETATM    9  C   UNL     1      -9.193  10.343  68.503  1.00  0.00    -0.145 A  
HETATM   10  C   UNL     1      -9.762   5.496  66.153  1.00  0.00    -0.147 A  
HETATM   11  C   UNL     1      -9.427  11.720  68.463  1.00  0.00    -0.165 A  
HETATM   12  O   UNL     1     -11.657   6.498  67.215  1.00  0.00    -0.737 OA 
HETATM   13  C   UNL     1     -10.566   4.625  65.412  1.00  0.00    -0.167 A  
HETATM   14  C   UNL     1     -10.697  12.217  68.769  1.00  0.00    -0.219 A  
HETATM   15  H   UNL     1     -12.242   5.994  66.661  1.00  0.00     0.000 HD 
HETATM   16  N   UNL     1     -10.905  13.666  68.871  1.00  0.00    -0.248 N  
HETATM   17  C   UNL     1     -11.752  11.339  69.041  1.00  0.00    -0.410 A  
HETATM   18  C   UNL     1      -9.993   3.663  64.568  1.00  0.00    -0.190 A  
HETATM   19  O   UNL     1     -12.045  14.068  69.146  1.00  0.00    -0.346 OA 
HETATM   20  C   UNL     1      -8.609   3.570  64.446  1.00  0.00    -0.093 A  
HETATM   21  C   UNL     1     -11.506   9.962  69.086  1.00  0.00    -0.017 A  
HETATM   22  O   UNL     1      -9.923  14.402  68.697  1.00  0.00    -0.234 OA 
HETATM   23  C   UNL     1      -7.796   4.444  65.156  1.00  0.00    -0.086 A  
HETATM   24  C   UNL     1      -8.387   5.385  65.997  1.00  0.00    -0.120 A  
HETATM   25  O   UNL     1      -7.513   6.208  66.709  1.00  0.00    -0.084 OA 
HETATM   26  C   UNL     1      -7.978   7.104  67.652  1.00  0.00    -0.114 C  
HETATM   27  O   UNL     1      -7.165   7.802  68.248  1.00  0.00    -0.084 OA 
ENDBRANCH   2   4
TORSDOF 1
ENDMDL
MODEL       56
REMARK 921   NORMALIZED FREE ENERGY PREDICTED BY IDOCK:   -4.91 KCAL/MOL
REMARK 922        TOTAL FREE ENERGY PREDICTED BY IDOCK:   -5.60 KCAL/MOL
REMARK 923 INTER-LIGAND FREE ENERGY PREDICTED BY IDOCK:   -5.19 KCAL/MOL
REMARK 924 INTRA-LIGAND FREE ENERGY PREDICTED BY IDOCK:   -0.41 KCAL/MOL
REMARK 927      BINDING AFFINITY PREDICTED BY RF-SCORE:    0.00 PKD
ROOT
HETATM    1  C   UNL     1      -8.905   6.224  66.286  1.00  0.00    -0.153 C  
HETATM    2  C   UNL     1     -10.169   6.862  66.820  1.00  0.00    -0.206 C  
HETATM    3  O   UNL     1     -11.246   6.272  66.834  1.00  0.00    -0.335 OA 
ENDROOT
BRANCH   2   4
HETATM    4  C   UNL     1     -10.023   8.308  67.239  1.00  0.00    -0.289 C  
HETATM    5  C   UNL     1     -10.445   8.643  68.689  1.00  0.00    -0.208 C  
HETATM    6  C   UNL     1      -9.672   7.810  69.714  1.00  0.00    -0.176 A  
HETATM    7  C   UNL     1     -10.439  10.156  68.971  1.00  0.00    -0.239 C  
HETATM    8  C   UNL     1     -11.418  10.791  69.649  1.00  0.00    -0.305 C  
HETATM    9  C   UNL     1      -8.278   7.917  69.845  1.00  0.00    -0.120 A  
HETATM   10  C   UNL     1     -11.518  12.253  69.650  1.00  0.00    -0.285 A  
HETATM   11  C   UNL     1      -7.558   7.003  70.618  1.00  0.00    -0.093 A  
HETATM   12  O   UNL     1     -12.438  10.150  70.324  1.00  0.00    -0.473 OA 
HETATM   13  C   UNL     1     -12.583  12.964  70.212  1.00  0.00    -0.084 A  
HETATM   14  C   UNL     1      -8.232   5.975  71.285  1.00  0.00    -0.123 A  
HETATM   15  H   UNL     1     -13.127  10.598  70.801  1.00  0.00     0.000 HD 
HETATM   16  N   UNL     1      -7.465   4.932  71.975  1.00  0.00    -0.081 N  
HETATM   17  C   UNL     1      -9.629   5.902  71.241  1.00  0.00    -0.195 A  
HETATM   18  C   UNL     1     -12.660  14.358  70.088  1.00  0.00    -0.340 A  
HETATM   19  O   UNL     1      -8.098   4.036  72.552  1.00  0.00    -0.087 OA 
HETATM   20  C   UNL     1     -11.665  15.060  69.413  1.00  0.00    -0.351 A  
HETATM   21  C   UNL     1     -10.341   6.818  70.458  1.00  0.00    -0.226 A  
HETATM   22  O   UNL     1      -6.228   4.996  71.921  1.00  0.00    -0.027 OA 
HETATM   23  C   UNL     1     -10.586  14.372  68.870  1.00  0.00    -0.250 A  
HETATM   24  C   UNL     1     -10.537  12.986  68.995  1.00  0.00    -0.044 A  
HETATM   25  O   UNL     1      -9.446  12.353  68.396  1.00  0.00    -0.212 OA 
HETATM   26  C   UNL     1      -9.344  10.976  68.362  1.00  0.00    -0.179 C  
HETATM   27  O   UNL     1      -8.365  10.474  67.823  1.00  0.00    -0.111 OA 
ENDBRANCH   2   4
TORSDOF 1
ENDMDL
MODEL       57
REMARK 921   NORMALIZED FREE ENERGY PREDICTED BY IDOCK:   -4.90 KCAL/MOL
REMARK 922        TOTAL FREE ENERGY PREDICTED BY IDOCK:   -5.59 KCAL/MOL
REMARK 923 INTER-LIGAND FREE ENERGY PREDICTED BY IDOCK:   -5.27 KCAL/MOL
REMARK 924 INTRA-LIGAND FREE ENERGY PREDICTED BY IDOCK:   -0.32 KCAL/MOL
REMARK 927      BINDING AFFINITY PREDICTED BY RF-SCORE:    0.00 PKD
ROOT
HETATM    1  C   UNL     1     -13.866   9.685  71.056  1.00  0.00     0.008 C  
HETATM    2  C   UNL     1     -12.460  10.208  71.254  1.00  0.00    -0.406 C  
HETATM    3  O   UNL     1     -12.126  11.338  70.907  1.00  0.00    -0.348 OA 
ENDROOT
BRANCH   2   4
HETATM    4  C   UNL     1     -11.480   9.203  71.817  1.00  0.00    -0.452 C  
HETATM    5  C   UNL     1     -10.851   8.221  70.800  1.00  0.00    -0.252 C  
HETATM    6  C   UNL     1     -10.123   8.958  69.673  1.00  0.00    -0.202 A  
HETATM    7  C   UNL     1     -10.015   7.123  71.480  1.00  0.00    -0.190 C  
HETATM    8  C   UNL     1     -10.062   5.822  71.123  1.00  0.00    -0.203 C  
HETATM    9  C   UNL     1      -9.011   9.775  69.930  1.00  0.00    -0.254 A  
HETATM   10  C   UNL     1      -9.475   4.778  71.968  1.00  0.00    -0.186 A  
HETATM   11  C   UNL     1      -8.492  10.613  68.940  1.00  0.00    -0.154 A  
HETATM   12  O   UNL     1     -10.715   5.347  70.002  1.00  0.00    -0.308 OA 
HETATM   13  C   UNL     1      -9.614   3.408  71.728  1.00  0.00    -0.225 A  
HETATM   14  C   UNL     1      -9.076  10.630  67.670  1.00  0.00    -0.142 A  
HETATM   15  H   UNL     1     -10.748   4.431  69.751  1.00  0.00     0.000 HD 
HETATM   16  N   UNL     1      -8.627  11.613  66.677  1.00  0.00    -0.179 N  
HETATM   17  C   UNL     1     -10.128   9.760  67.365  1.00  0.00    -0.259 A  
HETATM   18  C   UNL     1      -9.108   2.466  72.635  1.00  0.00    -0.106 A  
HETATM   19  O   UNL     1      -9.171  11.599  65.564  1.00  0.00    -0.194 OA 
HETATM   20  C   UNL     1      -8.446   2.884  73.787  1.00  0.00    -0.073 A  
HETATM   21  C   UNL     1     -10.646   8.929  68.366  1.00  0.00    -0.190 A  
HETATM   22  O   UNL     1      -7.745  12.415  67.019  1.00  0.00    -0.144 OA 
HETATM   23  C   UNL     1      -8.278   4.242  74.029  1.00  0.00    -0.096 A  
HETATM   24  C   UNL     1      -8.799   5.159  73.119  1.00  0.00    -0.115 A  
HETATM   25  O   UNL     1      -8.628   6.507  73.440  1.00  0.00    -0.123 OA 
HETATM   26  C   UNL     1      -9.193   7.506  72.671  1.00  0.00    -0.152 C  
HETATM   27  O   UNL     1      -9.010   8.673  72.999  1.00  0.00    -0.326 OA 
ENDBRANCH   2   4
TORSDOF 1
ENDMDL
MODEL       58
REMARK 921   NORMALIZED FREE ENERGY PREDICTED BY IDOCK:   -4.88 KCAL/MOL
REMARK 922        TOTAL FREE ENERGY PREDICTED BY IDOCK:   -5.57 KCAL/MOL
REMARK 923 INTER-LIGAND FREE ENERGY PREDICTED BY IDOCK:   -5.28 KCAL/MOL
REMARK 924 INTRA-LIGAND FREE ENERGY PREDICTED BY IDOCK:   -0.28 KCAL/MOL
REMARK 927      BINDING AFFINITY PREDICTED BY RF-SCORE:    0.00 PKD
ROOT
HETATM    1  C   UNL     1     -12.099  11.723  70.578  1.00  0.00    -0.439 C  
HETATM    2  C   UNL     1     -11.826  10.972  69.293  1.00  0.00    -0.340 C  
HETATM    3  O   UNL     1     -12.156  11.412  68.194  1.00  0.00    -0.623 OA 
ENDROOT
BRANCH   2   4
HETATM    4  C   UNL     1     -11.209   9.604  69.474  1.00  0.00    -0.144 C  
HETATM    5  C   UNL     1     -10.164   9.181  68.414  1.00  0.00    -0.230 C  
HETATM    6  C   UNL     1      -9.005  10.176  68.328  1.00  0.00    -0.120 A  
HETATM    7  C   UNL     1      -9.727   7.714  68.568  1.00  0.00    -0.162 C  
HETATM    8  C   UNL     1      -9.586   6.865  67.528  1.00  0.00    -0.128 C  
HETATM    9  C   UNL     1      -8.152  10.404  69.420  1.00  0.00    -0.161 A  
HETATM   10  C   UNL     1      -9.447   5.421  67.737  1.00  0.00    -0.132 A  
HETATM   11  C   UNL     1      -7.242  11.464  69.410  1.00  0.00    -0.030 A  
HETATM   12  O   UNL     1      -9.634   7.247  66.202  1.00  0.00    -0.385 OA 
HETATM   13  C   UNL     1      -9.439   4.479  66.704  1.00  0.00    -0.183 A  
HETATM   14  C   UNL     1      -7.167  12.304  68.295  1.00  0.00    -0.101 A  
HETATM   15  H   UNL     1      -9.534   6.649  65.470  1.00  0.00     0.000 HD 
HETATM   16  N   UNL     1      -6.320  13.502  68.343  1.00  0.00    -0.084 N  
HETATM   17  C   UNL     1      -7.944  12.043  67.161  1.00  0.00    -0.175 A  
HETATM   18  C   UNL     1      -9.402   3.106  66.985  1.00  0.00    -0.180 A  
HETATM   19  O   UNL     1      -6.281  14.222  67.335  1.00  0.00    -0.335 OA 
HETATM   20  C   UNL     1      -9.359   2.659  68.304  1.00  0.00    -0.258 A  
HETATM   21  C   UNL     1      -8.857  10.982  67.183  1.00  0.00    -0.140 A  
HETATM   22  O   UNL     1      -5.710  13.733  69.397  1.00  0.00    -0.084 OA 
HETATM   23  C   UNL     1      -9.341   3.583  69.342  1.00  0.00    -0.243 A  
HETATM   24  C   UNL     1      -9.390   4.941  69.039  1.00  0.00    -0.129 A  
HETATM   25  O   UNL     1      -9.406   5.814  70.128  1.00  0.00    -0.150 OA 
HETATM   26  C   UNL     1      -9.561   7.176  69.956  1.00  0.00    -0.164 C  
HETATM   27  O   UNL     1      -9.568   7.896  70.948  1.00  0.00    -0.160 OA 
ENDBRANCH   2   4
TORSDOF 1
ENDMDL
MODEL       59
REMARK 921   NORMALIZED FREE ENERGY PREDICTED BY IDOCK:   -4.82 KCAL/MOL
REMARK 922        TOTAL FREE ENERGY PREDICTED BY IDOCK:   -5.51 KCAL/MOL
REMARK 923 INTER-LIGAND FREE ENERGY PREDICTED BY IDOCK:   -5.14 KCAL/MOL
REMARK 924 INTRA-LIGAND FREE ENERGY PREDICTED BY IDOCK:   -0.37 KCAL/MOL
REMARK 927      BINDING AFFINITY PREDICTED BY RF-SCORE:    0.00 PKD
ROOT
HETATM    1  C   UNL     1      -7.865   7.136  73.769  1.00  0.00    -0.125 C  
HETATM    2  C   UNL     1      -7.339   7.989  72.636  1.00  0.00    -0.107 C  
HETATM    3  O   UNL     1      -7.009   9.162  72.796  1.00  0.00    -0.306 OA 
ENDROOT
BRANCH   2   4
HETATM    4  C   UNL     1      -7.346   7.320  71.280  1.00  0.00    -0.077 C  
HETATM    5  C   UNL     1      -8.705   6.754  70.806  1.00  0.00    -0.146 C  
HETATM    6  C   UNL     1      -9.788   7.834  70.765  1.00  0.00    -0.183 A  
HETATM    7  C   UNL     1      -8.583   5.933  69.510  1.00  0.00    -0.117 C  
HETATM    8  C   UNL     1      -9.207   4.753  69.313  1.00  0.00    -0.118 C  
HETATM    9  C   UNL     1      -9.685   8.945  69.912  1.00  0.00    -0.185 A  
HETATM   10  C   UNL     1      -8.845   3.876  68.196  1.00  0.00    -0.140 A  
HETATM   11  C   UNL     1     -10.557  10.029  70.038  1.00  0.00    -0.344 A  
HETATM   12  O   UNL     1     -10.164   4.230  70.160  1.00  0.00    -0.125 OA 
HETATM   13  C   UNL     1      -9.351   2.585  68.019  1.00  0.00    -0.254 A  
HETATM   14  C   UNL     1     -11.556  10.006  71.016  1.00  0.00    -0.393 A  
HETATM   15  H   UNL     1     -10.603   3.399  70.022  1.00  0.00     0.000 HD 
HETATM   16  N   UNL     1     -12.375  11.203  71.246  1.00  0.00    -0.331 N  
HETATM   17  C   UNL     1     -11.733   8.874  71.818  1.00  0.00    -0.432 A  
HETATM   18  C   UNL     1      -8.884   1.767  66.981  1.00  0.00    -0.144 A  
HETATM   19  O   UNL     1     -13.248  11.145  72.123  1.00  0.00    -0.481 OA 
HETATM   20  C   UNL     1      -7.914   2.236  66.098  1.00  0.00    -0.082 A  
HETATM   21  C   UNL     1     -10.851   7.795  71.689  1.00  0.00    -0.265 A  
HETATM   22  O   UNL     1     -12.129  12.208  70.563  1.00  0.00    -0.364 OA 
HETATM   23  C   UNL     1      -7.418   3.526  66.244  1.00  0.00    -0.077 A  
HETATM   24  C   UNL     1      -7.889   4.317  67.290  1.00  0.00    -0.096 A  
HETATM   25  O   UNL     1      -7.324   5.588  67.402  1.00  0.00    -0.074 OA 
HETATM   26  C   UNL     1      -7.632   6.421  68.461  1.00  0.00    -0.097 C  
HETATM   27  O   UNL     1      -7.106   7.527  68.509  1.00  0.00    -0.076 OA 
ENDBRANCH   2   4
TORSDOF 1
ENDMDL
MODEL       60
REMARK 921   NORMALIZED FREE ENERGY PREDICTED BY IDOCK:   -4.79 KCAL/MOL
REMARK 922        TOTAL FREE ENERGY PREDICTED BY IDOCK:   -5.47 KCAL/MOL
REMARK 923 INTER-LIGAND FREE ENERGY PREDICTED BY IDOCK:   -5.05 KCAL/MOL
REMARK 924 INTRA-LIGAND FREE ENERGY PREDICTED BY IDOCK:   -0.42 KCAL/MOL
REMARK 927      BINDING AFFINITY PREDICTED BY RF-SCORE:    0.00 PKD
ROOT
HETATM    1  C   UNL     1      -9.126   6.517  72.236  1.00  0.00    -0.138 C  
HETATM    2  C   UNL     1      -8.440   7.837  71.957  1.00  0.00    -0.116 C  
HETATM    3  O   UNL     1      -7.290   8.068  72.323  1.00  0.00    -0.082 OA 
ENDROOT
BRANCH   2   4
HETATM    4  C   UNL     1      -9.309   8.876  71.285  1.00  0.00    -0.336 C  
HETATM    5  C   UNL     1      -8.926   9.249  69.834  1.00  0.00    -0.194 C  
HETATM    6  C   UNL     1      -8.917   8.026  68.915  1.00  0.00    -0.141 A  
HETATM    7  C   UNL     1      -9.742  10.437  69.296  1.00  0.00    -0.231 C  
HETATM    8  C   UNL     1      -9.202  11.454  68.591  1.00  0.00    -0.146 C  
HETATM    9  C   UNL     1     -10.083   7.286  68.666  1.00  0.00    -0.182 A  
HETATM   10  C   UNL     1      -9.949  12.691  68.345  1.00  0.00    -0.210 A  
HETATM   11  C   UNL     1     -10.026   6.053  68.012  1.00  0.00    -0.162 A  
HETATM   12  O   UNL     1      -7.907  11.466  68.113  1.00  0.00    -0.115 OA 
HETATM   13  C   UNL     1      -9.400  13.830  67.748  1.00  0.00    -0.213 A  
HETATM   14  C   UNL     1      -8.792   5.552  67.584  1.00  0.00    -0.105 A  
HETATM   15  H   UNL     1      -7.527  12.182  67.617  1.00  0.00     0.000 HD 
HETATM   16  N   UNL     1      -8.712   4.195  67.030  1.00  0.00    -0.108 N  
HETATM   17  C   UNL     1      -7.628   6.312  67.741  1.00  0.00    -0.101 A  
HETATM   18  C   UNL     1     -10.146  15.011  67.634  1.00  0.00    -0.231 A  
HETATM   19  O   UNL     1      -7.602   3.786  66.664  1.00  0.00    -0.079 OA 
HETATM   20  C   UNL     1     -11.456  15.063  68.104  1.00  0.00    -0.355 A  
HETATM   21  C   UNL     1      -7.696   7.543  68.404  1.00  0.00    -0.120 A  
HETATM   22  O   UNL     1      -9.758   3.531  66.982  1.00  0.00    -0.176 OA 
HETATM   23  C   UNL     1     -12.026  13.933  68.677  1.00  0.00    -0.401 A  
HETATM   24  C   UNL     1     -11.261  12.774  68.790  1.00  0.00    -0.283 A  
HETATM   25  O   UNL     1     -11.881  11.686  69.408  1.00  0.00    -0.299 OA 
HETATM   26  C   UNL     1     -11.189  10.520  69.672  1.00  0.00    -0.282 C  
HETATM   27  O   UNL     1     -11.783   9.597  70.217  1.00  0.00    -0.240 OA 
ENDBRANCH   2   4
TORSDOF 1
ENDMDL
MODEL       61
REMARK 921   NORMALIZED FREE ENERGY PREDICTED BY IDOCK:   -4.77 KCAL/MOL
REMARK 922        TOTAL FREE ENERGY PREDICTED BY IDOCK:   -5.45 KCAL/MOL
REMARK 923 INTER-LIGAND FREE ENERGY PREDICTED BY IDOCK:   -5.06 KCAL/MOL
REMARK 924 INTRA-LIGAND FREE ENERGY PREDICTED BY IDOCK:   -0.39 KCAL/MOL
REMARK 927      BINDING AFFINITY PREDICTED BY RF-SCORE:    0.00 PKD
ROOT
HETATM    1  C   UNL     1      -8.800   7.597  65.911  1.00  0.00    -0.163 C  
HETATM    2  C   UNL     1      -7.920   7.907  67.103  1.00  0.00    -0.117 C  
HETATM    3  O   UNL     1      -7.548   7.038  67.887  1.00  0.00    -0.105 OA 
ENDROOT
BRANCH   2   4
HETATM    4  C   UNL     1      -7.620   9.375  67.307  1.00  0.00    -0.091 C  
HETATM    5  C   UNL     1      -8.808  10.257  67.759  1.00  0.00    -0.125 C  
HETATM    6  C   UNL     1      -9.428   9.753  69.064  1.00  0.00    -0.173 A  
HETATM    7  C   UNL     1      -8.461  11.756  67.763  1.00  0.00    -0.147 C  
HETATM    8  C   UNL     1      -9.286  12.713  67.289  1.00  0.00    -0.195 C  
HETATM    9  C   UNL     1      -8.693   9.717  70.260  1.00  0.00    -0.248 A  
HETATM   10  C   UNL     1      -8.811  14.080  67.051  1.00  0.00    -0.234 A  
HETATM   11  C   UNL     1      -9.187   9.055  71.386  1.00  0.00    -0.293 A  
HETATM   12  O   UNL     1     -10.597  12.494  66.916  1.00  0.00    -0.233 OA 
HETATM   13  C   UNL     1      -9.572  15.075  66.432  1.00  0.00    -0.314 A  
HETATM   14  C   UNL     1     -10.436   8.429  71.330  1.00  0.00    -0.224 A  
HETATM   15  H   UNL     1     -11.178  13.168  66.582  1.00  0.00     0.000 HD 
HETATM   16  N   UNL     1     -10.890   7.611  72.461  1.00  0.00    -0.284 N  
HETATM   17  C   UNL     1     -11.225   8.527  70.179  1.00  0.00    -0.139 A  
HETATM   18  C   UNL     1      -9.017  16.331  66.149  1.00  0.00    -0.374 A  
HETATM   19  O   UNL     1     -12.001   7.070  72.374  1.00  0.00    -0.239 OA 
HETATM   20  C   UNL     1      -7.697  16.610  66.495  1.00  0.00    -0.337 A  
HETATM   21  C   UNL     1     -10.718   9.187  69.053  1.00  0.00    -0.176 A  
HETATM   22  O   UNL     1     -10.123   7.490  73.428  1.00  0.00    -0.296 OA 
HETATM   23  C   UNL     1      -6.934  15.641  67.134  1.00  0.00    -0.169 A  
HETATM   24  C   UNL     1      -7.503  14.396  67.394  1.00  0.00    -0.159 A  
HETATM   25  O   UNL     1      -6.672  13.455  68.005  1.00  0.00    -0.098 OA 
HETATM   26  C   UNL     1      -7.091  12.156  68.216  1.00  0.00    -0.084 C  
HETATM   27  O   UNL     1      -6.320  11.372  68.756  1.00  0.00    -0.048 OA 
ENDBRANCH   2   4
TORSDOF 1
ENDMDL
MODEL       62
REMARK 921   NORMALIZED FREE ENERGY PREDICTED BY IDOCK:   -4.76 KCAL/MOL
REMARK 922        TOTAL FREE ENERGY PREDICTED BY IDOCK:   -5.44 KCAL/MOL
REMARK 923 INTER-LIGAND FREE ENERGY PREDICTED BY IDOCK:   -5.10 KCAL/MOL
REMARK 924 INTRA-LIGAND FREE ENERGY PREDICTED BY IDOCK:   -0.34 KCAL/MOL
REMARK 927      BINDING AFFINITY PREDICTED BY RF-SCORE:    0.00 PKD
ROOT
HETATM    1  C   UNL     1      -7.109  14.238  69.260  1.00  0.00    -0.107 C  
HETATM    2  C   UNL     1      -7.323  13.250  68.134  1.00  0.00    -0.120 C  
HETATM    3  O   UNL     1      -6.716  13.329  67.069  1.00  0.00    -0.078 OA 
ENDROOT
BRANCH   2   4
HETATM    4  C   UNL     1      -8.405  12.225  68.385  1.00  0.00    -0.144 C  
HETATM    5  C   UNL     1      -9.784  12.780  68.813  1.00  0.00     0.058 C  
HETATM    6  C   UNL     1     -10.345  13.767  67.786  1.00  0.00    -0.241 A  
HETATM    7  C   UNL     1     -10.767  11.669  69.223  1.00  0.00    -0.144 C  
HETATM    8  C   UNL     1     -11.567  11.745  70.308  1.00  0.00    -0.119 C  
HETATM    9  C   UNL     1     -10.650  13.367  66.475  1.00  0.00    -0.287 A  
HETATM   10  C   UNL     1     -12.270  10.565  70.818  1.00  0.00    -0.468 A  
HETATM   11  C   UNL     1     -10.948  14.310  65.489  1.00  0.00    -0.319 A  
HETATM   12  O   UNL     1     -11.737  12.884  71.069  1.00  0.00    -0.229 OA 
HETATM   13  C   UNL     1     -12.997  10.544  72.013  1.00  0.00    -0.490 A  
HETATM   14  C   UNL     1     -10.957  15.671  65.810  1.00  0.00    -0.248 A  
HETATM   15  H   UNL     1     -12.300  12.937  71.833  1.00  0.00     0.000 HD 
HETATM   16  N   UNL     1     -11.124  16.667  64.745  1.00  0.00    -0.272 N  
HETATM   17  C   UNL     1     -10.743  16.087  67.128  1.00  0.00    -0.283 A  
HETATM   18  C   UNL     1     -13.562   9.352  72.488  1.00  0.00    -0.441 A  
HETATM   19  O   UNL     1     -11.124  17.863  65.069  1.00  0.00    -0.705 OA 
HETATM   20  C   UNL     1     -13.418   8.169  71.768  1.00  0.00    -0.381 A  
HETATM   21  C   UNL     1     -10.439  15.135  68.109  1.00  0.00    -0.245 A  
HETATM   22  O   UNL     1     -11.233  16.253  63.581  1.00  0.00    -0.458 OA 
HETATM   23  C   UNL     1     -12.720   8.177  70.566  1.00  0.00     0.566 A  
HETATM   24  C   UNL     1     -12.158   9.371  70.119  1.00  0.00     0.241 A  
HETATM   25  O   UNL     1     -11.439   9.302  68.924  1.00  0.00     0.222 OA 
HETATM   26  C   UNL     1     -10.748  10.395  68.437  1.00  0.00    -0.225 C  
HETATM   27  O   UNL     1     -10.134  10.278  67.383  1.00  0.00    -0.184 OA 
ENDBRANCH   2   4
TORSDOF 1
ENDMDL
MODEL       63
REMARK 921   NORMALIZED FREE ENERGY PREDICTED BY IDOCK:   -4.72 KCAL/MOL
REMARK 922        TOTAL FREE ENERGY PREDICTED BY IDOCK:   -5.40 KCAL/MOL
REMARK 923 INTER-LIGAND FREE ENERGY PREDICTED BY IDOCK:   -5.16 KCAL/MOL
REMARK 924 INTRA-LIGAND FREE ENERGY PREDICTED BY IDOCK:   -0.24 KCAL/MOL
REMARK 927      BINDING AFFINITY PREDICTED BY RF-SCORE:    0.00 PKD
ROOT
HETATM    1  C   UNL     1      -7.108  15.165  69.215  1.00  0.00    -0.172 C  
HETATM    2  C   UNL     1      -7.431  14.459  67.916  1.00  0.00    -0.152 C  
HETATM    3  O   UNL     1      -7.952  15.039  66.966  1.00  0.00    -0.207 OA 
ENDROOT
BRANCH   2   4
HETATM    4  C   UNL     1      -7.154  12.973  67.914  1.00  0.00    -0.128 C  
HETATM    5  C   UNL     1      -8.324  12.061  68.352  1.00  0.00    -0.151 C  
HETATM    6  C   UNL     1      -9.567  12.275  67.485  1.00  0.00    -0.184 A  
HETATM    7  C   UNL     1      -7.903  10.588  68.498  1.00  0.00    -0.111 C  
HETATM    8  C   UNL     1      -8.281   9.804  69.528  1.00  0.00    -0.144 C  
HETATM    9  C   UNL     1      -9.558  12.001  66.108  1.00  0.00    -0.252 A  
HETATM   10  C   UNL     1      -7.637   8.511  69.778  1.00  0.00    -0.083 A  
HETATM   11  C   UNL     1     -10.615  12.405  65.289  1.00  0.00    -0.322 A  
HETATM   12  O   UNL     1      -9.227  10.159  70.469  1.00  0.00    -0.266 OA 
HETATM   13  C   UNL     1      -7.883   7.719  70.904  1.00  0.00    -0.089 A  
HETATM   14  C   UNL     1     -11.707  13.078  65.846  1.00  0.00    -0.394 A  
HETATM   15  H   UNL     1      -9.493   9.607  71.195  1.00  0.00     0.000 HD 
HETATM   16  N   UNL     1     -12.745  13.631  64.968  1.00  0.00    -0.375 N  
HETATM   17  C   UNL     1     -11.779  13.284  67.228  1.00  0.00    -0.424 A  
HETATM   18  C   UNL     1      -7.156   6.541  71.125  1.00  0.00    -0.077 A  
HETATM   19  O   UNL     1     -13.695  14.223  65.499  1.00  0.00    -0.342 OA 
HETATM   20  C   UNL     1      -6.184   6.133  70.215  1.00  0.00    -0.031 A  
HETATM   21  C   UNL     1     -10.711  12.882  68.040  1.00  0.00    -0.244 A  
HETATM   22  O   UNL     1     -12.598  13.491  63.745  1.00  0.00    -0.701 OA 
HETATM   23  C   UNL     1      -5.944   6.895  69.078  1.00  0.00    -0.022 A  
HETATM   24  C   UNL     1      -6.670   8.068  68.885  1.00  0.00    -0.053 A  
HETATM   25  O   UNL     1      -6.355   8.805  67.742  1.00  0.00    -0.055 OA 
HETATM   26  C   UNL     1      -6.932  10.037  67.500  1.00  0.00    -0.086 C  
HETATM   27  O   UNL     1      -6.618  10.641  66.481  1.00  0.00    -0.091 OA 
ENDBRANCH   2   4
TORSDOF 1
ENDMDL
MODEL       64
REMARK 921   NORMALIZED FREE ENERGY PREDICTED BY IDOCK:   -4.72 KCAL/MOL
REMARK 922        TOTAL FREE ENERGY PREDICTED BY IDOCK:   -5.40 KCAL/MOL
REMARK 923 INTER-LIGAND FREE ENERGY PREDICTED BY IDOCK:   -5.00 KCAL/MOL
REMARK 924 INTRA-LIGAND FREE ENERGY PREDICTED BY IDOCK:   -0.39 KCAL/MOL
REMARK 927      BINDING AFFINITY PREDICTED BY RF-SCORE:    0.00 PKD
ROOT
HETATM    1  C   UNL     1      -8.164   8.503  65.565  1.00  0.00    -0.138 C  
HETATM    2  C   UNL     1      -9.386   9.300  65.964  1.00  0.00    -0.223 C  
HETATM    3  O   UNL     1      -9.919  10.106  65.206  1.00  0.00    -0.300 OA 
ENDROOT
BRANCH   2   4
HETATM    4  C   UNL     1      -9.837   9.101  67.394  1.00  0.00    -0.237 C  
HETATM    5  C   UNL     1      -8.892   9.650  68.489  1.00  0.00    -0.124 C  
HETATM    6  C   UNL     1      -8.631  11.148  68.318  1.00  0.00    -0.146 A  
HETATM    7  C   UNL     1      -9.333   9.244  69.906  1.00  0.00    -0.214 C  
HETATM    8  C   UNL     1      -8.479   8.809  70.857  1.00  0.00    -0.175 C  
HETATM    9  C   UNL     1      -9.669  12.088  68.410  1.00  0.00    -0.199 A  
HETATM   10  C   UNL     1      -8.965   8.171  72.083  1.00  0.00    -0.246 A  
HETATM   11  C   UNL     1      -9.467  13.419  68.036  1.00  0.00    -0.218 A  
HETATM   12  O   UNL     1      -7.103   8.849  70.742  1.00  0.00    -0.059 OA 
HETATM   13  C   UNL     1      -8.134   7.575  73.036  1.00  0.00    -0.141 A  
HETATM   14  C   UNL     1      -8.211  13.827  67.576  1.00  0.00    -0.188 A  
HETATM   15  H   UNL     1      -6.502   8.543  71.411  1.00  0.00     0.000 HD 
HETATM   16  N   UNL     1      -8.038  15.185  67.045  1.00  0.00    -0.213 N  
HETATM   17  C   UNL     1      -7.139  12.929  67.559  1.00  0.00    -0.153 A  
HETATM   18  C   UNL     1      -8.676   6.896  74.137  1.00  0.00    -0.194 A  
HETATM   19  O   UNL     1      -6.911  15.509  66.645  1.00  0.00    -0.072 OA 
HETATM   20  C   UNL     1     -10.056   6.816  74.304  1.00  0.00    -0.348 A  
HETATM   21  C   UNL     1      -7.353  11.596  67.930  1.00  0.00    -0.096 A  
HETATM   22  O   UNL     1      -9.036  15.920  67.009  1.00  0.00    -0.201 OA 
HETATM   23  C   UNL     1     -10.896   7.424  73.379  1.00  0.00    -0.362 A  
HETATM   24  C   UNL     1     -10.335   8.084  72.288  1.00  0.00    -0.271 A  
HETATM   25  O   UNL     1     -11.235   8.641  71.377  1.00  0.00    -0.245 OA 
HETATM   26  C   UNL     1     -10.800   9.226  70.203  1.00  0.00    -0.242 C  
HETATM   27  O   UNL     1     -11.634   9.699  69.441  1.00  0.00     0.004 OA 
ENDBRANCH   2   4
TORSDOF 1
ENDMDL
MODEL       65
REMARK 921   NORMALIZED FREE ENERGY PREDICTED BY IDOCK:   -4.70 KCAL/MOL
REMARK 922        TOTAL FREE ENERGY PREDICTED BY IDOCK:   -5.37 KCAL/MOL
REMARK 923 INTER-LIGAND FREE ENERGY PREDICTED BY IDOCK:   -4.99 KCAL/MOL
REMARK 924 INTRA-LIGAND FREE ENERGY PREDICTED BY IDOCK:   -0.39 KCAL/MOL
REMARK 927      BINDING AFFINITY PREDICTED BY RF-SCORE:    0.00 PKD
ROOT
HETATM    1  C   UNL     1      -7.389   6.353  71.984  1.00  0.00    -0.092 C  
HETATM    2  C   UNL     1      -7.490   7.842  71.737  1.00  0.00    -0.074 C  
HETATM    3  O   UNL     1      -7.739   8.641  72.637  1.00  0.00    -0.335 OA 
ENDROOT
BRANCH   2   4
HETATM    4  C   UNL     1      -7.361   8.257  70.288  1.00  0.00    -0.055 C  
HETATM    5  C   UNL     1      -8.538   7.872  69.361  1.00  0.00    -0.137 C  
HETATM    6  C   UNL     1      -9.867   8.442  69.862  1.00  0.00    -0.186 A  
HETATM    7  C   UNL     1      -8.242   8.166  67.880  1.00  0.00    -0.129 C  
HETATM    8  C   UNL     1      -8.541   7.313  66.877  1.00  0.00    -0.124 C  
HETATM    9  C   UNL     1     -10.083   9.826  69.954  1.00  0.00    -0.288 A  
HETATM   10  C   UNL     1      -7.995   7.501  65.530  1.00  0.00    -0.121 A  
HETATM   11  C   UNL     1     -11.204  10.335  70.614  1.00  0.00    -0.406 A  
HETATM   12  O   UNL     1      -9.303   6.172  67.029  1.00  0.00    -0.119 OA 
HETATM   13  C   UNL     1      -8.150   6.581  64.489  1.00  0.00    -0.079 A  
HETATM   14  C   UNL     1     -12.134   9.457  71.180  1.00  0.00    -0.328 A  
HETATM   15  H   UNL     1      -9.513   5.572  66.323  1.00  0.00     0.000 HD 
HETATM   16  N   UNL     1     -13.230   9.988  71.999  1.00  0.00    -0.454 N  
HETATM   17  C   UNL     1     -11.985   8.074  71.025  1.00  0.00    -0.260 A  
HETATM   18  C   UNL     1      -7.516   6.781  63.254  1.00  0.00    -0.083 A  
HETATM   19  O   UNL     1     -14.032   9.178  72.486  1.00  0.00    -0.479 OA 
HETATM   20  C   UNL     1      -6.729   7.910  63.043  1.00  0.00    -0.080 A  
HETATM   21  C   UNL     1     -10.855   7.574  70.367  1.00  0.00    -0.255 A  
HETATM   22  O   UNL     1     -13.276  11.215  72.172  1.00  0.00    -0.481 OA 
HETATM   23  C   UNL     1      -6.584   8.847  64.059  1.00  0.00    -0.083 A  
HETATM   24  C   UNL     1      -7.215   8.622  65.280  1.00  0.00    -0.083 A  
HETATM   25  O   UNL     1      -6.999   9.583  66.270  1.00  0.00    -0.088 OA 
HETATM   26  C   UNL     1      -7.484   9.414  67.553  1.00  0.00    -0.091 C  
HETATM   27  O   UNL     1      -7.265  10.290  68.381  1.00  0.00    -0.077 OA 
ENDBRANCH   2   4
TORSDOF 1
ENDMDL
MODEL       66
REMARK 921   NORMALIZED FREE ENERGY PREDICTED BY IDOCK:   -4.69 KCAL/MOL
REMARK 922        TOTAL FREE ENERGY PREDICTED BY IDOCK:   -5.37 KCAL/MOL
REMARK 923 INTER-LIGAND FREE ENERGY PREDICTED BY IDOCK:   -5.13 KCAL/MOL
REMARK 924 INTRA-LIGAND FREE ENERGY PREDICTED BY IDOCK:   -0.24 KCAL/MOL
REMARK 927      BINDING AFFINITY PREDICTED BY RF-SCORE:    0.00 PKD
ROOT
HETATM    1  C   UNL     1      -7.823  17.229  65.850  1.00  0.00    -0.054 C  
HETATM    2  C   UNL     1      -9.287  17.091  66.207  1.00  0.00    -0.248 C  
HETATM    3  O   UNL     1     -10.184  17.422  65.436  1.00  0.00    -0.603 OA 
ENDROOT
BRANCH   2   4
HETATM    4  C   UNL     1      -9.555  16.611  67.616  1.00  0.00    -0.239 C  
HETATM    5  C   UNL     1     -10.817  15.737  67.809  1.00  0.00    -0.316 C  
HETATM    6  C   UNL     1     -10.788  14.491  66.920  1.00  0.00    -0.305 A  
HETATM    7  C   UNL     1     -11.113  15.448  69.291  1.00  0.00    -0.280 C  
HETATM    8  C   UNL     1     -12.349  15.510  69.830  1.00  0.00    -0.232 C  
HETATM    9  C   UNL     1      -9.797  13.508  67.066  1.00  0.00    -0.251 A  
HETATM   10  C   UNL     1     -12.548  15.508  71.282  1.00  0.00    -0.509 A  
HETATM   11  C   UNL     1      -9.646  12.495  66.116  1.00  0.00    -0.230 A  
HETATM   12  O   UNL     1     -13.510  15.656  69.096  1.00  0.00     0.868 OA 
HETATM   13  C   UNL     1     -13.784  15.711  71.902  1.00  0.00    -0.512 A  
HETATM   14  C   UNL     1     -10.501  12.447  65.011  1.00  0.00    -0.294 A  
HETATM   15  H   UNL     1     -14.379  15.700  69.476  1.00  0.00     0.000 HD 
HETATM   16  N   UNL     1     -10.251  11.474  63.941  1.00  0.00    -0.324 N  
HETATM   17  C   UNL     1     -11.552  13.363  64.891  1.00  0.00    -0.354 A  
HETATM   18  C   UNL     1     -13.882  15.794  73.298  1.00  0.00    -0.227 A  
HETATM   19  O   UNL     1     -11.029  11.464  62.976  1.00  0.00    -0.165 OA 
HETATM   20  C   UNL     1     -12.745  15.661  74.091  1.00  0.00    -0.663 A  
HETATM   21  C   UNL     1     -11.690  14.379  65.844  1.00  0.00    -0.371 A  
HETATM   22  O   UNL     1      -9.262  10.735  64.055  1.00  0.00    -0.206 OA 
HETATM   23  C   UNL     1     -11.512  15.434  73.493  1.00  0.00     0.195 A  
HETATM   24  C   UNL     1     -11.438  15.366  72.103  1.00  0.00    -0.433 A  
HETATM   25  O   UNL     1     -10.164  15.172  71.565  1.00  0.00     0.648 OA 
HETATM   26  C   UNL     1      -9.950  15.195  70.200  1.00  0.00     0.050 C  
HETATM   27  O   UNL     1      -8.812  15.019  69.782  1.00  0.00    -0.077 OA 
ENDBRANCH   2   4
TORSDOF 1
ENDMDL
MODEL       67
REMARK 921   NORMALIZED FREE ENERGY PREDICTED BY IDOCK:   -4.68 KCAL/MOL
REMARK 922        TOTAL FREE ENERGY PREDICTED BY IDOCK:   -5.35 KCAL/MOL
REMARK 923 INTER-LIGAND FREE ENERGY PREDICTED BY IDOCK:   -5.11 KCAL/MOL
REMARK 924 INTRA-LIGAND FREE ENERGY PREDICTED BY IDOCK:   -0.24 KCAL/MOL
REMARK 927      BINDING AFFINITY PREDICTED BY RF-SCORE:    0.00 PKD
ROOT
HETATM    1  C   UNL     1     -12.530  12.883  69.584  1.00  0.00     0.084 C  
HETATM    2  C   UNL     1     -11.781  12.589  68.302  1.00  0.00    -0.340 C  
HETATM    3  O   UNL     1     -11.921  11.534  67.688  1.00  0.00    -0.630 OA 
ENDROOT
BRANCH   2   4
HETATM    4  C   UNL     1     -10.780  13.646  67.894  1.00  0.00    -0.257 C  
HETATM    5  C   UNL     1      -9.335  13.454  68.411  1.00  0.00    -0.165 C  
HETATM    6  C   UNL     1      -8.750  12.107  67.978  1.00  0.00    -0.180 A  
HETATM    7  C   UNL     1      -8.433  14.662  68.105  1.00  0.00    -0.156 C  
HETATM    8  C   UNL     1      -7.567  15.190  68.996  1.00  0.00    -0.162 C  
HETATM    9  C   UNL     1      -8.559  11.792  66.623  1.00  0.00    -0.170 A  
HETATM   10  C   UNL     1      -6.942  16.496  68.768  1.00  0.00    -0.180 A  
HETATM   11  C   UNL     1      -8.237  10.492  66.228  1.00  0.00    -0.147 A  
HETATM   12  O   UNL     1      -7.252  14.612  70.210  1.00  0.00    -0.361 OA 
HETATM   13  C   UNL     1      -6.152  17.159  69.711  1.00  0.00    -0.229 A  
HETATM   14  C   UNL     1      -8.088   9.490  67.192  1.00  0.00    -0.106 A  
HETATM   15  H   UNL     1      -6.643  14.984  70.837  1.00  0.00     0.000 HD 
HETATM   16  N   UNL     1      -7.896   8.098  66.769  1.00  0.00    -0.094 N  
HETATM   17  C   UNL     1      -8.187   9.800  68.553  1.00  0.00    -0.106 A  
HETATM   18  C   UNL     1      -5.667  18.451  69.461  1.00  0.00    -0.244 A  
HETATM   19  O   UNL     1      -7.771   7.238  67.653  1.00  0.00    -0.107 OA 
HETATM   20  C   UNL     1      -5.958  19.089  68.258  1.00  0.00    -0.221 A  
HETATM   21  C   UNL     1      -8.516  11.104  68.939  1.00  0.00    -0.095 A  
HETATM   22  O   UNL     1      -7.893   7.861  65.552  1.00  0.00    -0.098 OA 
HETATM   23  C   UNL     1      -6.721  18.435  67.299  1.00  0.00    -0.206 A  
HETATM   24  C   UNL     1      -7.200  17.156  67.575  1.00  0.00    -0.157 A  
HETATM   25  O   UNL     1      -7.991  16.569  66.585  1.00  0.00    -0.223 OA 
HETATM   26  C   UNL     1      -8.609  15.351  66.788  1.00  0.00    -0.273 C  
HETATM   27  O   UNL     1      -9.292  14.882  65.884  1.00  0.00    -0.286 OA 
ENDBRANCH   2   4
TORSDOF 1
ENDMDL
MODEL       68
REMARK 921   NORMALIZED FREE ENERGY PREDICTED BY IDOCK:   -4.63 KCAL/MOL
REMARK 922        TOTAL FREE ENERGY PREDICTED BY IDOCK:   -5.30 KCAL/MOL
REMARK 923 INTER-LIGAND FREE ENERGY PREDICTED BY IDOCK:   -4.95 KCAL/MOL
REMARK 924 INTRA-LIGAND FREE ENERGY PREDICTED BY IDOCK:   -0.36 KCAL/MOL
REMARK 927      BINDING AFFINITY PREDICTED BY RF-SCORE:    0.00 PKD
ROOT
HETATM    1  C   UNL     1     -13.018  10.502  70.093  1.00  0.00    -0.030 C  
HETATM    2  C   UNL     1     -11.532  10.787  70.087  1.00  0.00    -0.331 C  
HETATM    3  O   UNL     1     -11.047  11.725  69.459  1.00  0.00    -0.218 OA 
ENDROOT
BRANCH   2   4
HETATM    4  C   UNL     1     -10.688   9.776  70.829  1.00  0.00    -0.393 C  
HETATM    5  C   UNL     1     -10.442   8.431  70.105  1.00  0.00    -0.230 C  
HETATM    6  C   UNL     1      -9.784   8.632  68.738  1.00  0.00    -0.171 A  
HETATM    7  C   UNL     1      -9.735   7.399  71.000  1.00  0.00    -0.164 C  
HETATM    8  C   UNL     1     -10.095   6.100  71.068  1.00  0.00    -0.188 C  
HETATM    9  C   UNL     1      -8.506   9.201  68.616  1.00  0.00    -0.127 A  
HETATM   10  C   UNL     1      -9.590   5.224  72.129  1.00  0.00    -0.183 A  
HETATM   11  C   UNL     1      -8.008   9.584  67.368  1.00  0.00    -0.106 A  
HETATM   12  O   UNL     1     -11.006   5.501  70.221  1.00  0.00    -0.269 OA 
HETATM   13  C   UNL     1     -10.032   3.914  72.338  1.00  0.00    -0.232 A  
HETATM   14  C   UNL     1      -8.782   9.386  66.221  1.00  0.00    -0.140 A  
HETATM   15  H   UNL     1     -11.260   4.587  70.269  1.00  0.00     0.000 HD 
HETATM   16  N   UNL     1      -8.323   9.920  64.933  1.00  0.00    -0.141 N  
HETATM   17  C   UNL     1     -10.020   8.740  66.308  1.00  0.00    -0.315 A  
HETATM   18  C   UNL     1      -9.575   3.168  73.434  1.00  0.00    -0.140 A  
HETATM   19  O   UNL     1      -9.038   9.726  63.940  1.00  0.00    -0.240 OA 
HETATM   20  C   UNL     1      -8.661   3.720  74.327  1.00  0.00    -0.088 A  
HETATM   21  C   UNL     1     -10.514   8.367  67.563  1.00  0.00    -0.328 A  
HETATM   22  O   UNL     1      -7.256  10.552  64.920  1.00  0.00    -0.089 OA 
HETATM   23  C   UNL     1      -8.192   5.012  74.121  1.00  0.00    -0.100 A  
HETATM   24  C   UNL     1      -8.668   5.738  73.031  1.00  0.00    -0.123 A  
HETATM   25  O   UNL     1      -8.186   7.041  72.902  1.00  0.00    -0.106 OA 
HETATM   26  C   UNL     1      -8.666   7.892  71.925  1.00  0.00    -0.129 C  
HETATM   27  O   UNL     1      -8.206   9.026  71.858  1.00  0.00    -0.362 OA 
ENDBRANCH   2   4
TORSDOF 1
ENDMDL
MODEL       69
REMARK 921   NORMALIZED FREE ENERGY PREDICTED BY IDOCK:   -4.59 KCAL/MOL
REMARK 922        TOTAL FREE ENERGY PREDICTED BY IDOCK:   -5.26 KCAL/MOL
REMARK 923 INTER-LIGAND FREE ENERGY PREDICTED BY IDOCK:   -4.88 KCAL/MOL
REMARK 924 INTRA-LIGAND FREE ENERGY PREDICTED BY IDOCK:   -0.38 KCAL/MOL
REMARK 927      BINDING AFFINITY PREDICTED BY RF-SCORE:    0.00 PKD
ROOT
HETATM    1  C   UNL     1      -6.298  11.532  69.835  1.00  0.00    -0.136 C  
HETATM    2  C   UNL     1      -7.063  10.237  70.001  1.00  0.00    -0.158 C  
HETATM    3  O   UNL     1      -7.395   9.808  71.104  1.00  0.00    -0.316 OA 
ENDROOT
BRANCH   2   4
HETATM    4  C   UNL     1      -7.298   9.468  68.720  1.00  0.00    -0.074 C  
HETATM    5  C   UNL     1      -8.746   8.985  68.471  1.00  0.00    -0.133 C  
HETATM    6  C   UNL     1      -9.743  10.146  68.474  1.00  0.00    -0.161 A  
HETATM    7  C   UNL     1      -8.858   8.060  67.247  1.00  0.00    -0.135 C  
HETATM    8  C   UNL     1      -9.588   6.925  67.234  1.00  0.00    -0.142 C  
HETATM    9  C   UNL     1      -9.672  11.175  67.521  1.00  0.00    -0.193 A  
HETATM   10  C   UNL     1      -9.443   5.938  66.161  1.00  0.00    -0.131 A  
HETATM   11  C   UNL     1     -10.437  12.336  67.661  1.00  0.00    -0.230 A  
HETATM   12  O   UNL     1     -10.460   6.551  68.237  1.00  0.00    -0.177 OA 
HETATM   13  C   UNL     1     -10.062   4.684  66.162  1.00  0.00    -0.291 A  
HETATM   14  C   UNL     1     -11.296  12.473  68.755  1.00  0.00    -0.293 A  
HETATM   15  H   UNL     1     -10.974   5.752  68.228  1.00  0.00     0.000 HD 
HETATM   16  N   UNL     1     -11.987  13.748  68.981  1.00  0.00    -0.352 N  
HETATM   17  C   UNL     1     -11.449  11.424  69.669  1.00  0.00    -0.380 A  
HETATM   18  C   UNL     1      -9.798   3.752  65.148  1.00  0.00    -0.161 A  
HETATM   19  O   UNL     1     -12.738  13.832  69.963  1.00  0.00    -0.213 OA 
HETATM   20  C   UNL     1      -8.922   4.068  64.113  1.00  0.00    -0.135 A  
HETATM   21  C   UNL     1     -10.674  10.268  69.524  1.00  0.00    -0.280 A  
HETATM   22  O   UNL     1     -11.760  14.674  68.188  1.00  0.00    -0.317 OA 
HETATM   23  C   UNL     1      -8.317   5.319  64.083  1.00  0.00    -0.131 A  
HETATM   24  C   UNL     1      -8.586   6.225  65.107  1.00  0.00    -0.023 A  
HETATM   25  O   UNL     1      -7.918   7.449  65.036  1.00  0.00    -0.118 OA 
HETATM   26  C   UNL     1      -8.021   8.383  66.048  1.00  0.00    -0.101 C  
HETATM   27  O   UNL     1      -7.413   9.441  65.933  1.00  0.00    -0.096 OA 
ENDBRANCH   2   4
TORSDOF 1
ENDMDL
MODEL       70
REMARK 921   NORMALIZED FREE ENERGY PREDICTED BY IDOCK:   -4.59 KCAL/MOL
REMARK 922        TOTAL FREE ENERGY PREDICTED BY IDOCK:   -5.26 KCAL/MOL
REMARK 923 INTER-LIGAND FREE ENERGY PREDICTED BY IDOCK:   -4.84 KCAL/MOL
REMARK 924 INTRA-LIGAND FREE ENERGY PREDICTED BY IDOCK:   -0.42 KCAL/MOL
REMARK 927      BINDING AFFINITY PREDICTED BY RF-SCORE:    0.00 PKD
ROOT
HETATM    1  C   UNL     1      -6.428  11.071  66.590  1.00  0.00    -0.129 C  
HETATM    2  C   UNL     1      -6.333  10.042  67.696  1.00  0.00    -0.059 C  
HETATM    3  O   UNL     1      -5.747  10.268  68.752  1.00  0.00    -0.042 OA 
ENDROOT
BRANCH   2   4
HETATM    4  C   UNL     1      -6.924   8.692  67.361  1.00  0.00    -0.078 C  
HETATM    5  C   UNL     1      -8.171   8.273  68.176  1.00  0.00    -0.128 C  
HETATM    6  C   UNL     1      -9.305   9.292  68.045  1.00  0.00    -0.145 A  
HETATM    7  C   UNL     1      -8.594   6.819  67.901  1.00  0.00    -0.122 C  
HETATM    8  C   UNL     1      -8.961   5.955  68.871  1.00  0.00    -0.118 C  
HETATM    9  C   UNL     1      -9.912   9.560  66.808  1.00  0.00    -0.297 A  
HETATM   10  C   UNL     1      -9.080   4.518  68.604  1.00  0.00    -0.164 A  
HETATM   11  C   UNL     1     -10.785  10.640  66.656  1.00  0.00    -0.246 A  
HETATM   12  O   UNL     1      -9.179   6.310  70.187  1.00  0.00    -0.154 OA 
HETATM   13  C   UNL     1      -9.317   3.557  69.592  1.00  0.00    -0.244 A  
HETATM   14  C   UNL     1     -11.072  11.460  67.752  1.00  0.00    -0.265 A  
HETATM   15  H   UNL     1      -9.437   5.701  70.869  1.00  0.00     0.000 HD 
HETATM   16  N   UNL     1     -11.870  12.677  67.559  1.00  0.00    -0.366 N  
HETATM   17  C   UNL     1     -10.549  11.160  69.014  1.00  0.00    -0.251 A  
HETATM   18  C   UNL     1      -9.321   2.191  69.278  1.00  0.00    -0.176 A  
HETATM   19  O   UNL     1     -12.100  13.379  68.554  1.00  0.00    -0.352 OA 
HETATM   20  C   UNL     1      -9.100   1.770  67.969  1.00  0.00    -0.198 A  
HETATM   21  C   UNL     1      -9.670  10.080  69.155  1.00  0.00    -0.217 A  
HETATM   22  O   UNL     1     -12.246  12.942  66.408  1.00  0.00    -0.453 OA 
HETATM   23  C   UNL     1      -8.888   2.713  66.970  1.00  0.00    -0.155 A  
HETATM   24  C   UNL     1      -8.878   4.064  67.308  1.00  0.00    -0.119 A  
HETATM   25  O   UNL     1      -8.623   4.957  66.265  1.00  0.00    -0.114 OA 
HETATM   26  C   UNL     1      -8.483   6.312  66.497  1.00  0.00    -0.121 C  
HETATM   27  O   UNL     1      -8.260   7.049  65.544  1.00  0.00    -0.126 OA 
ENDBRANCH   2   4
TORSDOF 1
ENDMDL
MODEL       71
REMARK 921   NORMALIZED FREE ENERGY PREDICTED BY IDOCK:   -4.53 KCAL/MOL
REMARK 922        TOTAL FREE ENERGY PREDICTED BY IDOCK:   -5.20 KCAL/MOL
REMARK 923 INTER-LIGAND FREE ENERGY PREDICTED BY IDOCK:   -4.82 KCAL/MOL
REMARK 924 INTRA-LIGAND FREE ENERGY PREDICTED BY IDOCK:   -0.38 KCAL/MOL
REMARK 927      BINDING AFFINITY PREDICTED BY RF-SCORE:    0.00 PKD
ROOT
HETATM    1  C   UNL     1     -11.617   7.436  71.114  1.00  0.00    -0.313 C  
HETATM    2  C   UNL     1     -10.277   8.128  71.001  1.00  0.00    -0.188 C  
HETATM    3  O   UNL     1      -9.281   7.730  71.601  1.00  0.00    -0.132 OA 
ENDROOT
BRANCH   2   4
HETATM    4  C   UNL     1     -10.284   9.396  70.178  1.00  0.00    -0.271 C  
HETATM    5  C   UNL     1      -9.178   9.517  69.103  1.00  0.00    -0.163 C  
HETATM    6  C   UNL     1      -9.219   8.352  68.111  1.00  0.00    -0.141 A  
HETATM    7  C   UNL     1      -9.146  10.906  68.442  1.00  0.00    -0.164 C  
HETATM    8  C   UNL     1      -8.007  11.586  68.192  1.00  0.00    -0.136 C  
HETATM    9  C   UNL     1     -10.330   8.132  67.282  1.00  0.00    -0.373 A  
HETATM   10  C   UNL     1      -8.032  13.006  67.830  1.00  0.00    -0.164 A  
HETATM   11  C   UNL     1     -10.454   6.951  66.547  1.00  0.00    -0.088 A  
HETATM   12  O   UNL     1      -6.740  11.055  68.325  1.00  0.00    -0.058 OA 
HETATM   13  C   UNL     1      -6.888  13.799  67.697  1.00  0.00    -0.187 A  
HETATM   14  C   UNL     1      -9.453   5.977  66.623  1.00  0.00    -0.149 A  
HETATM   15  H   UNL     1      -5.938  11.533  68.149  1.00  0.00     0.000 HD 
HETATM   16  N   UNL     1      -9.652   4.678  65.969  1.00  0.00    -0.168 N  
HETATM   17  C   UNL     1      -8.296   6.212  67.373  1.00  0.00    -0.108 A  
HETATM   18  C   UNL     1      -6.994  15.174  67.444  1.00  0.00    -0.195 A  
HETATM   19  O   UNL     1      -8.743   3.841  66.062  1.00  0.00    -0.111 OA 
HETATM   20  C   UNL     1      -8.245  15.770  67.308  1.00  0.00    -0.211 A  
HETATM   21  C   UNL     1      -8.184   7.396  68.112  1.00  0.00    -0.124 A  
HETATM   22  O   UNL     1     -10.727   4.489  65.381  1.00  0.00    -0.270 OA 
HETATM   23  C   UNL     1      -9.392  14.992  67.411  1.00  0.00    -0.204 A  
HETATM   24  C   UNL     1      -9.262  13.630  67.674  1.00  0.00    -0.213 A  
HETATM   25  O   UNL     1     -10.453  12.913  67.802  1.00  0.00    -0.214 OA 
HETATM   26  C   UNL     1     -10.454  11.580  68.168  1.00  0.00    -0.193 C  
HETATM   27  O   UNL     1     -11.529  11.000  68.265  1.00  0.00    -0.278 OA 
ENDBRANCH   2   4
TORSDOF 1
ENDMDL
MODEL       72
REMARK 921   NORMALIZED FREE ENERGY PREDICTED BY IDOCK:   -4.50 KCAL/MOL
REMARK 922        TOTAL FREE ENERGY PREDICTED BY IDOCK:   -5.16 KCAL/MOL
REMARK 923 INTER-LIGAND FREE ENERGY PREDICTED BY IDOCK:   -4.95 KCAL/MOL
REMARK 924 INTRA-LIGAND FREE ENERGY PREDICTED BY IDOCK:   -0.21 KCAL/MOL
REMARK 927      BINDING AFFINITY PREDICTED BY RF-SCORE:    0.00 PKD
ROOT
HETATM    1  C   UNL     1     -11.788  10.957  70.425  1.00  0.00    -0.449 C  
HETATM    2  C   UNL     1     -11.622  10.835  68.926  1.00  0.00    -0.291 C  
HETATM    3  O   UNL     1     -12.403  11.358  68.135  1.00  0.00    -0.502 OA 
ENDROOT
BRANCH   2   4
HETATM    4  C   UNL     1     -10.484   9.943  68.483  1.00  0.00    -0.232 C  
HETATM    5  C   UNL     1      -9.797  10.326  67.151  1.00  0.00    -0.228 C  
HETATM    6  C   UNL     1      -9.246  11.753  67.184  1.00  0.00    -0.179 A  
HETATM    7  C   UNL     1      -8.781   9.268  66.685  1.00  0.00    -0.139 C  
HETATM    8  C   UNL     1      -8.679   8.844  65.408  1.00  0.00    -0.191 C  
HETATM    9  C   UNL     1      -8.238  12.130  68.085  1.00  0.00    -0.164 A  
HETATM   10  C   UNL     1      -7.906   7.647  65.062  1.00  0.00    -0.126 A  
HETATM   11  C   UNL     1      -7.898  13.473  68.262  1.00  0.00    -0.145 A  
HETATM   12  O   UNL     1      -9.333   9.428  64.341  1.00  0.00    -0.432 OA 
HETATM   13  C   UNL     1      -7.877   7.078  63.785  1.00  0.00    -0.107 A  
HETATM   14  C   UNL     1      -8.560  14.459  67.523  1.00  0.00    -0.191 A  
HETATM   15  H   UNL     1      -9.261   9.129  63.442  1.00  0.00     0.000 HD 
HETATM   16  N   UNL     1      -8.309  15.875  67.814  1.00  0.00    -0.148 N  
HETATM   17  C   UNL     1      -9.505  14.101  66.556  1.00  0.00    -0.303 A  
HETATM   18  C   UNL     1      -7.194   5.876  63.551  1.00  0.00    -0.058 A  
HETATM   19  O   UNL     1      -8.916  16.719  67.140  1.00  0.00    -0.198 OA 
HETATM   20  C   UNL     1      -6.522   5.236  64.589  1.00  0.00    -0.034 A  
HETATM   21  C   UNL     1      -9.843  12.753  66.391  1.00  0.00    -0.269 A  
HETATM   22  O   UNL     1      -7.521  16.143  68.733  1.00  0.00    -0.164 OA 
HETATM   23  C   UNL     1      -6.519   5.801  65.859  1.00  0.00    -0.040 A  
HETATM   24  C   UNL     1      -7.214   6.990  66.070  1.00  0.00    -0.074 A  
HETATM   25  O   UNL     1      -7.202   7.486  67.375  1.00  0.00    -0.082 OA 
HETATM   26  C   UNL     1      -7.943   8.597  67.729  1.00  0.00    -0.107 C  
HETATM   27  O   UNL     1      -7.895   8.988  68.889  1.00  0.00    -0.092 OA 
ENDBRANCH   2   4
TORSDOF 1
ENDMDL
MODEL       73
REMARK 921   NORMALIZED FREE ENERGY PREDICTED BY IDOCK:   -4.33 KCAL/MOL
REMARK 922        TOTAL FREE ENERGY PREDICTED BY IDOCK:   -4.98 KCAL/MOL
REMARK 923 INTER-LIGAND FREE ENERGY PREDICTED BY IDOCK:   -4.81 KCAL/MOL
REMARK 924 INTRA-LIGAND FREE ENERGY PREDICTED BY IDOCK:   -0.18 KCAL/MOL
REMARK 927      BINDING AFFINITY PREDICTED BY RF-SCORE:    0.00 PKD
ROOT
HETATM    1  C   UNL     1     -12.015  11.977  69.528  1.00  0.00    -0.346 C  
HETATM    2  C   UNL     1     -11.428  10.810  68.765  1.00  0.00    -0.295 C  
HETATM    3  O   UNL     1     -11.358  10.798  67.539  1.00  0.00    -0.408 OA 
ENDROOT
BRANCH   2   4
HETATM    4  C   UNL     1     -11.030   9.628  69.619  1.00  0.00    -0.253 C  
HETATM    5  C   UNL     1      -9.867   8.760  69.082  1.00  0.00    -0.181 C  
HETATM    6  C   UNL     1      -8.598   9.586  68.859  1.00  0.00    -0.128 A  
HETATM    7  C   UNL     1      -9.651   7.483  69.913  1.00  0.00    -0.160 C  
HETATM    8  C   UNL     1      -9.424   6.269  69.368  1.00  0.00    -0.139 C  
HETATM    9  C   UNL     1      -7.942  10.226  69.922  1.00  0.00    -0.092 A  
HETATM   10  C   UNL     1      -9.506   5.046  70.171  1.00  0.00    -0.234 A  
HETATM   11  C   UNL     1      -6.923  11.151  69.684  1.00  0.00    -0.088 A  
HETATM   12  O   UNL     1      -9.176   6.054  68.027  1.00  0.00    -0.117 OA 
HETATM   13  C   UNL     1      -9.422   3.755  69.641  1.00  0.00    -0.258 A  
HETATM   14  C   UNL     1      -6.537  11.435  68.370  1.00  0.00    -0.063 A  
HETATM   15  H   UNL     1      -9.016   5.200  67.643  1.00  0.00     0.000 HD 
HETATM   16  N   UNL     1      -5.572  12.511  68.113  1.00  0.00    -0.061 N  
HETATM   17  C   UNL     1      -7.115  10.745  67.299  1.00  0.00    -0.091 A  
HETATM   18  C   UNL     1      -9.608   2.631  70.457  1.00  0.00    -0.149 A  
HETATM   19  O   UNL     1      -5.258  12.735  66.935  1.00  0.00    -0.324 OA 
HETATM   20  C   UNL     1      -9.868   2.784  71.816  1.00  0.00    -0.220 A  
HETATM   21  C   UNL     1      -8.140   9.824  67.548  1.00  0.00    -0.114 A  
HETATM   22  O   UNL     1      -5.146  13.147  69.088  1.00  0.00    -0.070 OA 
HETATM   23  C   UNL     1      -9.931   4.059  72.365  1.00  0.00    -0.229 A  
HETATM   24  C   UNL     1      -9.753   5.162  71.532  1.00  0.00    -0.166 A  
HETATM   25  O   UNL     1      -9.865   6.414  72.139  1.00  0.00    -0.160 OA 
HETATM   26  C   UNL     1      -9.814   7.579  71.398  1.00  0.00    -0.177 C  
HETATM   27  O   UNL     1      -9.917   8.651  71.983  1.00  0.00    -0.283 OA 
ENDBRANCH   2   4
TORSDOF 1
ENDMDL
MODEL       74
REMARK 921   NORMALIZED FREE ENERGY PREDICTED BY IDOCK:   -4.29 KCAL/MOL
REMARK 922        TOTAL FREE ENERGY PREDICTED BY IDOCK:   -4.94 KCAL/MOL
REMARK 923 INTER-LIGAND FREE ENERGY PREDICTED BY IDOCK:   -4.52 KCAL/MOL
REMARK 924 INTRA-LIGAND FREE ENERGY PREDICTED BY IDOCK:   -0.43 KCAL/MOL
REMARK 927      BINDING AFFINITY PREDICTED BY RF-SCORE:    0.00 PKD
ROOT
HETATM    1  C   UNL     1      -7.330   7.940  64.470  1.00  0.00    -0.086 C  
HETATM    2  C   UNL     1      -8.164   9.189  64.290  1.00  0.00    -0.161 C  
HETATM    3  O   UNL     1      -9.104   9.242  63.500  1.00  0.00    -0.140 OA 
ENDROOT
BRANCH   2   4
HETATM    4  C   UNL     1      -7.692  10.388  65.081  1.00  0.00    -0.110 C  
HETATM    5  C   UNL     1      -8.666  10.921  66.158  1.00  0.00    -0.189 C  
HETATM    6  C   UNL     1      -9.032   9.842  67.179  1.00  0.00    -0.148 A  
HETATM    7  C   UNL     1      -8.189  12.244  66.782  1.00  0.00    -0.058 C  
HETATM    8  C   UNL     1      -9.005  13.293  67.020  1.00  0.00    -0.228 C  
HETATM    9  C   UNL     1      -8.062   9.257  68.008  1.00  0.00    -0.104 A  
HETATM   10  C   UNL     1      -8.468  14.617  67.346  1.00  0.00    -0.219 A  
HETATM   11  C   UNL     1      -8.359   8.127  68.773  1.00  0.00    -0.126 A  
HETATM   12  O   UNL     1     -10.380  13.248  66.907  1.00  0.00    -0.251 OA 
HETATM   13  C   UNL     1      -9.249  15.771  67.463  1.00  0.00    -0.207 A  
HETATM   14  C   UNL     1      -9.643   7.575  68.727  1.00  0.00    -0.149 A  
HETATM   15  H   UNL     1     -10.954  13.986  67.075  1.00  0.00     0.000 HD 
HETATM   16  N   UNL     1      -9.914   6.306  69.413  1.00  0.00    -0.154 N  
HETATM   17  C   UNL     1     -10.650   8.193  67.977  1.00  0.00    -0.188 A  
HETATM   18  C   UNL     1      -8.654  17.022  67.680  1.00  0.00    -0.213 A  
HETATM   19  O   UNL     1     -11.064   5.848  69.347  1.00  0.00    -0.363 OA 
HETATM   20  C   UNL     1      -7.271  17.132  67.795  1.00  0.00    -0.169 A  
HETATM   21  C   UNL     1     -10.341   9.321  67.208  1.00  0.00    -0.332 A  
HETATM   22  O   UNL     1      -8.971   5.757  70.001  1.00  0.00    -0.135 OA 
HETATM   23  C   UNL     1      -6.481  15.992  67.706  1.00  0.00    -0.178 A  
HETATM   24  C   UNL     1      -7.093  14.761  67.479  1.00  0.00    -0.184 A  
HETATM   25  O   UNL     1      -6.240  13.662  67.363  1.00  0.00    -0.323 OA 
HETATM   26  C   UNL     1      -6.722  12.410  67.033  1.00  0.00     0.001 C  
HETATM   27  O   UNL     1      -5.928  11.481  66.945  1.00  0.00    -0.107 OA 
ENDBRANCH   2   4
TORSDOF 1
ENDMDL
MODEL       75
REMARK 921   NORMALIZED FREE ENERGY PREDICTED BY IDOCK:   -4.25 KCAL/MOL
REMARK 922        TOTAL FREE ENERGY PREDICTED BY IDOCK:   -4.90 KCAL/MOL
REMARK 923 INTER-LIGAND FREE ENERGY PREDICTED BY IDOCK:   -4.50 KCAL/MOL
REMARK 924 INTRA-LIGAND FREE ENERGY PREDICTED BY IDOCK:   -0.40 KCAL/MOL
REMARK 927      BINDING AFFINITY PREDICTED BY RF-SCORE:    0.00 PKD
ROOT
HETATM    1  C   UNL     1      -5.471   8.718  67.816  1.00  0.00    -0.035 C  
HETATM    2  C   UNL     1      -6.691   8.225  67.071  1.00  0.00    -0.062 C  
HETATM    3  O   UNL     1      -7.014   8.672  65.973  1.00  0.00    -0.076 OA 
ENDROOT
BRANCH   2   4
HETATM    4  C   UNL     1      -7.531   7.216  67.822  1.00  0.00    -0.098 C  
HETATM    5  C   UNL     1      -8.258   7.739  69.083  1.00  0.00    -0.129 C  
HETATM    6  C   UNL     1      -9.177   8.920  68.761  1.00  0.00    -0.140 A  
HETATM    7  C   UNL     1      -8.935   6.612  69.883  1.00  0.00    -0.144 C  
HETATM    8  C   UNL     1      -8.882   6.519  71.229  1.00  0.00    -0.137 C  
HETATM    9  C   UNL     1     -10.275   8.781  67.897  1.00  0.00    -0.272 A  
HETATM   10  C   UNL     1      -9.290   5.295  71.924  1.00  0.00    -0.167 A  
HETATM   11  C   UNL     1     -10.971   9.901  67.437  1.00  0.00    -0.214 A  
HETATM   12  O   UNL     1      -8.381   7.504  72.057  1.00  0.00    -0.103 OA 
HETATM   13  C   UNL     1      -9.128   5.084  73.297  1.00  0.00    -0.125 A  
HETATM   14  C   UNL     1     -10.582  11.179  67.851  1.00  0.00    -0.198 A  
HETATM   15  H   UNL     1      -8.344   7.438  73.004  1.00  0.00     0.000 HD 
HETATM   16  N   UNL     1     -11.217  12.360  67.254  1.00  0.00    -0.284 N  
HETATM   17  C   UNL     1      -9.548  11.335  68.780  1.00  0.00    -0.160 A  
HETATM   18  C   UNL     1      -9.451   3.849  73.876  1.00  0.00    -0.114 A  
HETATM   19  O   UNL     1     -10.843  13.475  67.645  1.00  0.00    -0.254 OA 
HETATM   20  C   UNL     1      -9.954   2.815  73.092  1.00  0.00    -0.185 A  
HETATM   21  C   UNL     1      -8.852  10.208  69.231  1.00  0.00    -0.191 A  
HETATM   22  O   UNL     1     -12.074  12.172  66.378  1.00  0.00    -0.630 OA 
HETATM   23  C   UNL     1     -10.145   3.015  71.730  1.00  0.00    -0.112 A  
HETATM   24  C   UNL     1      -9.806   4.247  71.174  1.00  0.00    -0.180 A  
HETATM   25  O   UNL     1      -9.989   4.370  69.796  1.00  0.00    -0.225 OA 
HETATM   26  C   UNL     1      -9.588   5.505  69.117  1.00  0.00    -0.143 C  
HETATM   27  O   UNL     1      -9.773   5.559  67.907  1.00  0.00    -0.120 OA 
ENDBRANCH   2   4
TORSDOF 1
ENDMDL
MODEL       76
REMARK 921   NORMALIZED FREE ENERGY PREDICTED BY IDOCK:   -4.19 KCAL/MOL
REMARK 922        TOTAL FREE ENERGY PREDICTED BY IDOCK:   -4.83 KCAL/MOL
REMARK 923 INTER-LIGAND FREE ENERGY PREDICTED BY IDOCK:   -4.51 KCAL/MOL
REMARK 924 INTRA-LIGAND FREE ENERGY PREDICTED BY IDOCK:   -0.32 KCAL/MOL
REMARK 927      BINDING AFFINITY PREDICTED BY RF-SCORE:    0.00 PKD
ROOT
HETATM    1  C   UNL     1     -10.997  11.792  64.367  1.00  0.00    -0.397 C  
HETATM    2  C   UNL     1      -9.800  10.866  64.381  1.00  0.00    -0.309 C  
HETATM    3  O   UNL     1      -8.954  10.874  63.490  1.00  0.00    -0.188 OA 
ENDROOT
BRANCH   2   4
HETATM    4  C   UNL     1      -9.781   9.869  65.518  1.00  0.00    -0.370 C  
HETATM    5  C   UNL     1      -8.860  10.215  66.712  1.00  0.00    -0.143 C  
HETATM    6  C   UNL     1      -9.208  11.572  67.326  1.00  0.00    -0.168 A  
HETATM    7  C   UNL     1      -8.760   9.067  67.732  1.00  0.00    -0.125 C  
HETATM    8  C   UNL     1      -7.601   8.673  68.299  1.00  0.00    -0.097 C  
HETATM    9  C   UNL     1     -10.458  11.811  67.918  1.00  0.00    -0.219 A  
HETATM   10  C   UNL     1      -7.505   7.411  69.038  1.00  0.00    -0.100 A  
HETATM   11  C   UNL     1     -10.849  13.104  68.274  1.00  0.00    -0.274 A  
HETATM   12  O   UNL     1      -6.406   9.355  68.181  1.00  0.00    -0.053 OA 
HETATM   13  C   UNL     1      -6.308   6.879  69.526  1.00  0.00    -0.039 A  
HETATM   14  C   UNL     1      -9.980  14.177  68.052  1.00  0.00    -0.226 A  
HETATM   15  H   UNL     1      -5.590   9.077  68.580  1.00  0.00     0.000 HD 
HETATM   16  N   UNL     1     -10.445  15.549  68.288  1.00  0.00    -0.238 N  
HETATM   17  C   UNL     1      -8.696  13.952  67.545  1.00  0.00    -0.194 A  
HETATM   18  C   UNL     1      -6.279   5.618  70.137  1.00  0.00    -0.026 A  
HETATM   19  O   UNL     1      -9.647  16.473  68.078  1.00  0.00    -0.222 OA 
HETATM   20  C   UNL     1      -7.450   4.879  70.280  1.00  0.00    -0.058 A  
HETATM   21  C   UNL     1      -8.316  12.654  67.186  1.00  0.00    -0.172 A  
HETATM   22  O   UNL     1     -11.617  15.703  68.664  1.00  0.00    -0.356 OA 
HETATM   23  C   UNL     1      -8.654   5.403  69.823  1.00  0.00    -0.100 A  
HETATM   24  C   UNL     1      -8.656   6.653  69.209  1.00  0.00    -0.131 A  
HETATM   25  O   UNL     1      -9.891   7.105  68.740  1.00  0.00    -0.154 OA 
HETATM   26  C   UNL     1     -10.000   8.279  68.021  1.00  0.00    -0.185 C  
HETATM   27  O   UNL     1     -11.109   8.628  67.634  1.00  0.00     0.027 OA 
ENDBRANCH   2   4
TORSDOF 1
ENDMDL
MODEL       77
REMARK 921   NORMALIZED FREE ENERGY PREDICTED BY IDOCK:   -4.16 KCAL/MOL
REMARK 922        TOTAL FREE ENERGY PREDICTED BY IDOCK:   -4.81 KCAL/MOL
REMARK 923 INTER-LIGAND FREE ENERGY PREDICTED BY IDOCK:   -4.39 KCAL/MOL
REMARK 924 INTRA-LIGAND FREE ENERGY PREDICTED BY IDOCK:   -0.42 KCAL/MOL
REMARK 927      BINDING AFFINITY PREDICTED BY RF-SCORE:    0.00 PKD
ROOT
HETATM    1  C   UNL     1      -6.621   9.693  69.398  1.00  0.00    -0.048 C  
HETATM    2  C   UNL     1      -7.501   8.463  69.344  1.00  0.00    -0.089 C  
HETATM    3  O   UNL     1      -8.133   8.066  70.320  1.00  0.00    -0.108 OA 
ENDROOT
BRANCH   2   4
HETATM    4  C   UNL     1      -7.463   7.711  68.033  1.00  0.00    -0.104 C  
HETATM    5  C   UNL     1      -8.808   7.586  67.280  1.00  0.00    -0.124 C  
HETATM    6  C   UNL     1      -9.422   8.955  66.980  1.00  0.00    -0.215 A  
HETATM    7  C   UNL     1      -8.716   6.654  66.058  1.00  0.00    -0.155 C  
HETATM    8  C   UNL     1      -9.655   5.735  65.750  1.00  0.00     0.081 C  
HETATM    9  C   UNL     1      -8.774   9.884  66.151  1.00  0.00    -0.150 A  
HETATM   10  C   UNL     1      -9.397   4.688  64.757  1.00  0.00    -0.109 A  
HETATM   11  C   UNL     1      -9.227  11.203  66.061  1.00  0.00    -0.223 A  
HETATM   12  O   UNL     1     -10.883   5.639  66.374  1.00  0.00    -0.571 OA 
HETATM   13  C   UNL     1     -10.269   3.626  64.496  1.00  0.00    -0.176 A  
HETATM   14  C   UNL     1     -10.348  11.603  66.794  1.00  0.00    -0.222 A  
HETATM   15  H   UNL     1     -11.543   4.991  66.157  1.00  0.00     0.000 HD 
HETATM   16  N   UNL     1     -10.735  13.019  66.815  1.00  0.00    -0.261 N  
HETATM   17  C   UNL     1     -11.062  10.673  67.557  1.00  0.00    -0.367 A  
HETATM   18  C   UNL     1      -9.913   2.607  63.602  1.00  0.00    -0.145 A  
HETATM   19  O   UNL     1     -11.733  13.335  67.477  1.00  0.00    -0.326 OA 
HETATM   20  C   UNL     1      -8.684   2.645  62.948  1.00  0.00    -0.085 A  
HETATM   21  C   UNL     1     -10.597   9.356  67.646  1.00  0.00    -0.333 A  
HETATM   22  O   UNL     1     -10.026  13.818  66.185  1.00  0.00    -0.293 OA 
HETATM   23  C   UNL     1      -7.815   3.705  63.176  1.00  0.00    -0.071 A  
HETATM   24  C   UNL     1      -8.187   4.700  64.077  1.00  0.00    -0.114 A  
HETATM   25  O   UNL     1      -7.254   5.718  64.289  1.00  0.00    -0.051 OA 
HETATM   26  C   UNL     1      -7.465   6.700  65.237  1.00  0.00    -0.082 C  
HETATM   27  O   UNL     1      -6.612   7.569  65.380  1.00  0.00    -0.044 OA 
ENDBRANCH   2   4
TORSDOF 1
ENDMDL
MODEL       78
REMARK 921   NORMALIZED FREE ENERGY PREDICTED BY IDOCK:   -4.09 KCAL/MOL
REMARK 922        TOTAL FREE ENERGY PREDICTED BY IDOCK:   -4.73 KCAL/MOL
REMARK 923 INTER-LIGAND FREE ENERGY PREDICTED BY IDOCK:   -4.35 KCAL/MOL
REMARK 924 INTRA-LIGAND FREE ENERGY PREDICTED BY IDOCK:   -0.37 KCAL/MOL
REMARK 927      BINDING AFFINITY PREDICTED BY RF-SCORE:    0.00 PKD
ROOT
HETATM    1  C   UNL     1     -11.770  12.030  68.984  1.00  0.00    -0.382 C  
HETATM    2  C   UNL     1     -11.179  11.557  67.674  1.00  0.00    -0.281 C  
HETATM    3  O   UNL     1     -11.038  12.306  66.710  1.00  0.00    -0.265 OA 
ENDROOT
BRANCH   2   4
HETATM    4  C   UNL     1     -10.869  10.079  67.613  1.00  0.00    -0.336 C  
HETATM    5  C   UNL     1      -9.478   9.696  67.054  1.00  0.00    -0.195 C  
HETATM    6  C   UNL     1      -8.345  10.348  67.850  1.00  0.00    -0.114 A  
HETATM    7  C   UNL     1      -9.318   8.179  66.855  1.00  0.00    -0.219 C  
HETATM    8  C   UNL     1      -8.753   7.625  65.762  1.00  0.00    -0.125 C  
HETATM    9  C   UNL     1      -8.141  10.056  69.208  1.00  0.00    -0.141 A  
HETATM   10  C   UNL     1      -8.875   6.191  65.485  1.00  0.00    -0.063 A  
HETATM   11  C   UNL     1      -7.255  10.813  69.979  1.00  0.00     0.035 A  
HETATM   12  O   UNL     1      -8.090   8.340  64.784  1.00  0.00    -0.139 OA 
HETATM   13  C   UNL     1      -8.436   5.583  64.304  1.00  0.00    -0.069 A  
HETATM   14  C   UNL     1      -6.550  11.867  69.391  1.00  0.00    -0.108 A  
HETATM   15  H   UNL     1      -7.692   7.951  64.014  1.00  0.00     0.000 HD 
HETATM   16  N   UNL     1      -5.734  12.752  70.231  1.00  0.00    -0.153 N  
HETATM   17  C   UNL     1      -6.671  12.120  68.020  1.00  0.00    -0.073 A  
HETATM   18  C   UNL     1      -8.675   4.222  64.067  1.00  0.00    -0.127 A  
HETATM   19  O   UNL     1      -5.125  13.677  69.673  1.00  0.00    -0.084 OA 
HETATM   20  C   UNL     1      -9.345   3.451  65.012  1.00  0.00    -0.154 A  
HETATM   21  C   UNL     1      -7.566  11.361  67.257  1.00  0.00    -0.138 A  
HETATM   22  O   UNL     1      -5.719  12.535  71.451  1.00  0.00    -0.386 OA 
HETATM   23  C   UNL     1      -9.766   4.033  66.202  1.00  0.00    -0.198 A  
HETATM   24  C   UNL     1      -9.527   5.389  66.411  1.00  0.00    -0.154 A  
HETATM   25  O   UNL     1     -10.007   5.920  67.610  1.00  0.00    -0.121 OA 
HETATM   26  C   UNL     1      -9.925   7.272  67.881  1.00  0.00    -0.158 C  
HETATM   27  O   UNL     1     -10.362   7.683  68.949  1.00  0.00    -0.206 OA 
ENDBRANCH   2   4
TORSDOF 1
ENDMDL
MODEL       79
REMARK 921   NORMALIZED FREE ENERGY PREDICTED BY IDOCK:   -4.08 KCAL/MOL
REMARK 922        TOTAL FREE ENERGY PREDICTED BY IDOCK:   -4.72 KCAL/MOL
REMARK 923 INTER-LIGAND FREE ENERGY PREDICTED BY IDOCK:   -4.29 KCAL/MOL
REMARK 924 INTRA-LIGAND FREE ENERGY PREDICTED BY IDOCK:   -0.43 KCAL/MOL
REMARK 927      BINDING AFFINITY PREDICTED BY RF-SCORE:    0.00 PKD
ROOT
HETATM    1  C   UNL     1      -7.397   5.146  71.542  1.00  0.00    -0.086 C  
HETATM    2  C   UNL     1      -7.528   4.763  70.084  1.00  0.00    -0.054 C  
HETATM    3  O   UNL     1      -7.818   3.623  69.730  1.00  0.00    -0.051 OA 
ENDROOT
BRANCH   2   4
HETATM    4  C   UNL     1      -7.179   5.860  69.104  1.00  0.00    -0.078 C  
HETATM    5  C   UNL     1      -8.325   6.342  68.184  1.00  0.00    -0.115 C  
HETATM    6  C   UNL     1      -9.529   6.839  68.986  1.00  0.00    -0.133 A  
HETATM    7  C   UNL     1      -7.839   7.321  67.101  1.00  0.00    -0.110 C  
HETATM    8  C   UNL     1      -8.233   7.261  65.811  1.00  0.00    -0.135 C  
HETATM    9  C   UNL     1      -9.434   7.948  69.841  1.00  0.00    -0.160 A  
HETATM   10  C   UNL     1      -7.540   8.022  64.767  1.00  0.00    -0.105 A  
HETATM   11  C   UNL     1     -10.465   8.259  70.731  1.00  0.00    -0.223 A  
HETATM   12  O   UNL     1      -9.244   6.444  65.345  1.00  0.00    -0.373 OA 
HETATM   13  C   UNL     1      -7.806   7.895  63.400  1.00  0.00    -0.139 A  
HETATM   14  C   UNL     1     -11.616   7.466  70.764  1.00  0.00    -0.290 A  
HETATM   15  H   UNL     1      -9.521   6.402  64.437  1.00  0.00     0.000 HD 
HETATM   16  N   UNL     1     -12.632   7.702  71.797  1.00  0.00    -0.324 N  
HETATM   17  C   UNL     1     -11.771   6.409  69.860  1.00  0.00    -0.309 A  
HETATM   18  C   UNL     1      -7.035   8.582  62.452  1.00  0.00    -0.094 A  
HETATM   19  O   UNL     1     -13.636   6.976  71.794  1.00  0.00    -0.343 OA 
HETATM   20  C   UNL     1      -5.997   9.416  62.861  1.00  0.00    -0.093 A  
HETATM   21  C   UNL     1     -10.729   6.101  68.977  1.00  0.00    -0.377 A  
HETATM   22  O   UNL     1     -12.414   8.600  72.623  1.00  0.00    -0.375 OA 
HETATM   23  C   UNL     1      -5.735   9.573  64.217  1.00  0.00    -0.077 A  
HETATM   24  C   UNL     1      -6.507   8.871  65.140  1.00  0.00    -0.064 A  
HETATM   25  O   UNL     1      -6.168   9.045  66.483  1.00  0.00    -0.062 OA 
HETATM   26  C   UNL     1      -6.791   8.320  67.481  1.00  0.00    -0.070 C  
HETATM   27  O   UNL     1      -6.454   8.514  68.643  1.00  0.00    -0.052 OA 
ENDBRANCH   2   4
TORSDOF 1
ENDMDL
MODEL       80
REMARK 921   NORMALIZED FREE ENERGY PREDICTED BY IDOCK:   -4.07 KCAL/MOL
REMARK 922        TOTAL FREE ENERGY PREDICTED BY IDOCK:   -4.71 KCAL/MOL
REMARK 923 INTER-LIGAND FREE ENERGY PREDICTED BY IDOCK:   -4.29 KCAL/MOL
REMARK 924 INTRA-LIGAND FREE ENERGY PREDICTED BY IDOCK:   -0.42 KCAL/MOL
REMARK 927      BINDING AFFINITY PREDICTED BY RF-SCORE:    0.00 PKD
ROOT
HETATM    1  C   UNL     1      -7.705   8.052  64.726  1.00  0.00    -0.120 C  
HETATM    2  C   UNL     1      -8.719   8.535  65.740  1.00  0.00    -0.179 C  
HETATM    3  O   UNL     1      -9.612   9.327  65.448  1.00  0.00    -0.259 OA 
ENDROOT
BRANCH   2   4
HETATM    4  C   UNL     1      -8.489   8.046  67.152  1.00  0.00    -0.124 C  
HETATM    5  C   UNL     1      -9.536   7.052  67.708  1.00  0.00    -0.132 C  
HETATM    6  C   UNL     1      -9.661   5.805  66.829  1.00  0.00    -0.161 A  
HETATM    7  C   UNL     1      -9.328   6.751  69.203  1.00  0.00    -0.135 C  
HETATM    8  C   UNL     1     -10.336   6.695  70.098  1.00  0.00    -0.203 C  
HETATM    9  C   UNL     1      -8.581   4.929  66.641  1.00  0.00    -0.109 A  
HETATM   10  C   UNL     1     -10.074   6.689  71.541  1.00  0.00    -0.200 A  
HETATM   11  C   UNL     1      -8.632   3.925  65.671  1.00  0.00    -0.111 A  
HETATM   12  O   UNL     1     -11.675   6.715  69.763  1.00  0.00    -0.603 OA 
HETATM   13  C   UNL     1     -11.071   6.774  72.517  1.00  0.00    -0.299 A  
HETATM   14  C   UNL     1      -9.778   3.779  64.883  1.00  0.00    -0.183 A  
HETATM   15  H   UNL     1     -12.385   6.675  70.394  1.00  0.00     0.000 HD 
HETATM   16  N   UNL     1      -9.776   2.824  63.768  1.00  0.00    -0.128 N  
HETATM   17  C   UNL     1     -10.899   4.583  65.112  1.00  0.00    -0.078 A  
HETATM   18  C   UNL     1     -10.740   6.863  73.876  1.00  0.00    -0.122 A  
HETATM   19  O   UNL     1     -10.810   2.725  63.092  1.00  0.00    -0.211 OA 
HETATM   20  C   UNL     1      -9.406   6.854  74.276  1.00  0.00    -0.269 A  
HETATM   21  C   UNL     1     -10.836   5.591  66.082  1.00  0.00    -0.036 A  
HETATM   22  O   UNL     1      -8.733   2.189  63.556  1.00  0.00    -0.084 OA 
HETATM   23  C   UNL     1      -8.402   6.745  73.321  1.00  0.00    -0.129 A  
HETATM   24  C   UNL     1      -8.756   6.669  71.975  1.00  0.00    -0.127 A  
HETATM   25  O   UNL     1      -7.699   6.598  71.065  1.00  0.00    -0.094 OA 
HETATM   26  C   UNL     1      -7.922   6.627  69.702  1.00  0.00    -0.124 C  
HETATM   27  O   UNL     1      -6.957   6.562  68.949  1.00  0.00    -0.073 OA 
ENDBRANCH   2   4
TORSDOF 1
ENDMDL
MODEL       81
REMARK 921   NORMALIZED FREE ENERGY PREDICTED BY IDOCK:   -4.03 KCAL/MOL
REMARK 922        TOTAL FREE ENERGY PREDICTED BY IDOCK:   -4.67 KCAL/MOL
REMARK 923 INTER-LIGAND FREE ENERGY PREDICTED BY IDOCK:   -4.37 KCAL/MOL
REMARK 924 INTRA-LIGAND FREE ENERGY PREDICTED BY IDOCK:   -0.30 KCAL/MOL
REMARK 927      BINDING AFFINITY PREDICTED BY RF-SCORE:    0.00 PKD
ROOT
HETATM    1  C   UNL     1      -9.763   6.346  74.558  1.00  0.00    -0.329 C  
HETATM    2  C   UNL     1      -9.525   5.102  73.731  1.00  0.00    -0.132 C  
HETATM    3  O   UNL     1      -9.960   4.001  74.062  1.00  0.00    -0.116 OA 
ENDROOT
BRANCH   2   4
HETATM    4  C   UNL     1      -8.632   5.300  72.527  1.00  0.00    -0.121 C  
HETATM    5  C   UNL     1      -9.349   5.457  71.165  1.00  0.00    -0.186 C  
HETATM    6  C   UNL     1     -10.338   6.624  71.173  1.00  0.00    -0.232 A  
HETATM    7  C   UNL     1      -8.368   5.468  69.979  1.00  0.00    -0.116 C  
HETATM    8  C   UNL     1      -8.580   4.792  68.831  1.00  0.00    -0.084 C  
HETATM    9  C   UNL     1      -9.910   7.947  71.367  1.00  0.00    -0.203 A  
HETATM   10  C   UNL     1      -7.506   4.600  67.852  1.00  0.00    -0.077 A  
HETATM   11  C   UNL     1     -10.830   8.973  71.593  1.00  0.00    -0.437 A  
HETATM   12  O   UNL     1      -9.765   4.164  68.506  1.00  0.00    -0.145 OA 
HETATM   13  C   UNL     1      -7.619   3.793  66.715  1.00  0.00    -0.080 A  
HETATM   14  C   UNL     1     -12.198   8.686  71.615  1.00  0.00    -0.333 A  
HETATM   15  H   UNL     1      -9.914   3.687  67.697  1.00  0.00     0.000 HD 
HETATM   16  N   UNL     1     -13.154   9.732  71.998  1.00  0.00    -0.440 N  
HETATM   17  C   UNL     1     -12.652   7.392  71.337  1.00  0.00    -0.405 A  
HETATM   18  C   UNL     1      -6.518   3.578  65.875  1.00  0.00    -0.033 A  
HETATM   19  O   UNL     1     -14.358   9.438  72.008  1.00  0.00    -0.166 OA 
HETATM   20  C   UNL     1      -5.293   4.179  66.154  1.00  0.00    -0.013 A  
HETATM   21  C   UNL     1     -11.722   6.370  71.118  1.00  0.00    -0.359 A  
HETATM   22  O   UNL     1     -12.698  10.842  72.311  1.00  0.00    -0.161 OA 
HETATM   23  C   UNL     1      -5.169   5.004  67.266  1.00  0.00    -0.008 A  
HETATM   24  C   UNL     1      -6.274   5.193  68.092  1.00  0.00    -0.034 A  
HETATM   25  O   UNL     1      -6.073   6.004  69.211  1.00  0.00    -0.026 OA 
HETATM   26  C   UNL     1      -7.063   6.178  70.159  1.00  0.00    -0.074 C  
HETATM   27  O   UNL     1      -6.831   6.901  71.122  1.00  0.00    -0.056 OA 
ENDBRANCH   2   4
TORSDOF 1
ENDMDL
MODEL       82
REMARK 921   NORMALIZED FREE ENERGY PREDICTED BY IDOCK:   -4.02 KCAL/MOL
REMARK 922        TOTAL FREE ENERGY PREDICTED BY IDOCK:   -4.66 KCAL/MOL
REMARK 923 INTER-LIGAND FREE ENERGY PREDICTED BY IDOCK:   -4.24 KCAL/MOL
REMARK 924 INTRA-LIGAND FREE ENERGY PREDICTED BY IDOCK:   -0.42 KCAL/MOL
REMARK 927      BINDING AFFINITY PREDICTED BY RF-SCORE:    0.00 PKD
ROOT
HETATM    1  C   UNL     1      -7.516  11.091  69.185  1.00  0.00    -0.121 C  
HETATM    2  C   UNL     1      -7.943  11.803  67.920  1.00  0.00    -0.141 C  
HETATM    3  O   UNL     1      -7.974  11.239  66.829  1.00  0.00    -0.148 OA 
ENDROOT
BRANCH   2   4
HETATM    4  C   UNL     1      -8.231  13.278  68.087  1.00  0.00    -0.160 C  
HETATM    5  C   UNL     1      -9.663  13.738  67.725  1.00  0.00    -0.230 C  
HETATM    6  C   UNL     1     -10.724  12.991  68.536  1.00  0.00    -0.275 A  
HETATM    7  C   UNL     1      -9.814  15.269  67.747  1.00  0.00    -0.220 C  
HETATM    8  C   UNL     1     -10.474  15.966  66.798  1.00  0.00    -0.309 C  
HETATM    9  C   UNL     1     -10.789  13.099  69.934  1.00  0.00     0.556 A  
HETATM   10  C   UNL     1     -10.354  17.424  66.703  1.00  0.00    -0.306 A  
HETATM   11  C   UNL     1     -11.609  12.250  70.682  1.00  0.00     0.419 A  
HETATM   12  O   UNL     1     -11.241  15.392  65.804  1.00  0.00    -0.298 OA 
HETATM   13  C   UNL     1     -10.895  18.187  65.664  1.00  0.00     0.068 A  
HETATM   14  C   UNL     1     -12.387  11.287  70.032  1.00  0.00    -0.257 A  
HETATM   15  H   UNL     1     -11.706  15.883  65.137  1.00  0.00     0.000 HD 
HETATM   16  N   UNL     1     -13.133  10.301  70.823  1.00  0.00    -0.358 N  
HETATM   17  C   UNL     1     -12.405  11.220  68.635  1.00  0.00     0.207 A  
HETATM   18  C   UNL     1     -10.656  19.566  65.586  1.00  0.00    -0.434 A  
HETATM   19  O   UNL     1     -13.809   9.462  70.211  1.00  0.00     0.550 OA 
HETATM   20  C   UNL     1      -9.883  20.201  66.555  1.00  0.00    -0.574 A  
HETATM   21  C   UNL     1     -11.576  12.070  67.894  1.00  0.00    -0.405 A  
HETATM   22  O   UNL     1     -13.024  10.353  72.057  1.00  0.00    -0.445 OA 
HETATM   23  C   UNL     1      -9.359  19.463  67.609  1.00  0.00    -0.382 A  
HETATM   24  C   UNL     1      -9.600  18.092  67.659  1.00  0.00    -0.271 A  
HETATM   25  O   UNL     1      -9.015  17.403  68.723  1.00  0.00    -0.271 OA 
HETATM   26  C   UNL     1      -9.094  16.027  68.819  1.00  0.00    -0.222 C  
HETATM   27  O   UNL     1      -8.562  15.475  69.774  1.00  0.00    -0.212 OA 
ENDBRANCH   2   4
TORSDOF 1
ENDMDL
MODEL       83
REMARK 921   NORMALIZED FREE ENERGY PREDICTED BY IDOCK:   -4.02 KCAL/MOL
REMARK 922        TOTAL FREE ENERGY PREDICTED BY IDOCK:   -4.65 KCAL/MOL
REMARK 923 INTER-LIGAND FREE ENERGY PREDICTED BY IDOCK:   -4.75 KCAL/MOL
REMARK 924 INTRA-LIGAND FREE ENERGY PREDICTED BY IDOCK:    0.10 KCAL/MOL
REMARK 927      BINDING AFFINITY PREDICTED BY RF-SCORE:    0.00 PKD
ROOT
HETATM    1  C   UNL     1      -5.916  10.808  70.844  1.00  0.00     0.017 C  
HETATM    2  C   UNL     1      -6.632  10.136  69.693  1.00  0.00    -0.069 C  
HETATM    3  O   UNL     1      -6.850  10.712  68.630  1.00  0.00    -0.056 OA 
ENDROOT
BRANCH   2   4
HETATM    4  C   UNL     1      -7.141   8.743  69.988  1.00  0.00    -0.047 C  
HETATM    5  C   UNL     1      -8.677   8.564  69.988  1.00  0.00    -0.136 C  
HETATM    6  C   UNL     1      -9.300   8.984  68.655  1.00  0.00    -0.136 A  
HETATM    7  C   UNL     1      -9.109   7.170  70.476  1.00  0.00    -0.155 C  
HETATM    8  C   UNL     1     -10.133   6.964  71.331  1.00  0.00    -0.185 C  
HETATM    9  C   UNL     1      -8.986   8.320  67.458  1.00  0.00    -0.141 A  
HETATM   10  C   UNL     1     -10.329   5.667  71.985  1.00  0.00    -0.261 A  
HETATM   11  C   UNL     1      -9.380   8.843  66.224  1.00  0.00    -0.279 A  
HETATM   12  O   UNL     1     -11.024   7.942  71.727  1.00  0.00    -0.231 OA 
HETATM   13  C   UNL     1     -11.279   5.430  72.983  1.00  0.00    -0.370 A  
HETATM   14  C   UNL     1     -10.109  10.035  66.175  1.00  0.00    -0.247 A  
HETATM   15  H   UNL     1     -11.744   7.796  72.329  1.00  0.00     0.000 HD 
HETATM   16  N   UNL     1     -10.395  10.660  64.878  1.00  0.00    -0.313 N  
HETATM   17  C   UNL     1     -10.508  10.667  67.358  1.00  0.00    -0.280 A  
HETATM   18  C   UNL     1     -11.344   4.190  73.633  1.00  0.00    -0.270 A  
HETATM   19  O   UNL     1     -11.041  11.717  64.877  1.00  0.00    -0.305 OA 
HETATM   20  C   UNL     1     -10.467   3.166  73.283  1.00  0.00    -0.255 A  
HETATM   21  C   UNL     1     -10.103  10.139  68.590  1.00  0.00    -0.186 A  
HETATM   22  O   UNL     1      -9.953  10.103  63.862  1.00  0.00    -0.213 OA 
HETATM   23  C   UNL     1      -9.533   3.376  72.275  1.00  0.00    -0.185 A  
HETATM   24  C   UNL     1      -9.480   4.620  71.651  1.00  0.00    -0.153 A  
HETATM   25  O   UNL     1      -8.496   4.777  70.674  1.00  0.00    -0.093 OA 
HETATM   26  C   UNL     1      -8.277   5.996  70.063  1.00  0.00    -0.122 C  
HETATM   27  O   UNL     1      -7.399   6.076  69.211  1.00  0.00    -0.079 OA 
ENDBRANCH   2   4
TORSDOF 1
ENDMDL
MODEL       84
REMARK 921   NORMALIZED FREE ENERGY PREDICTED BY IDOCK:   -4.00 KCAL/MOL
REMARK 922        TOTAL FREE ENERGY PREDICTED BY IDOCK:   -4.64 KCAL/MOL
REMARK 923 INTER-LIGAND FREE ENERGY PREDICTED BY IDOCK:   -4.33 KCAL/MOL
REMARK 924 INTRA-LIGAND FREE ENERGY PREDICTED BY IDOCK:   -0.30 KCAL/MOL
REMARK 927      BINDING AFFINITY PREDICTED BY RF-SCORE:    0.00 PKD
ROOT
HETATM    1  C   UNL     1     -12.008  15.403  67.862  1.00  0.00     0.052 C  
HETATM    2  C   UNL     1     -12.244  14.083  67.162  1.00  0.00    -0.321 C  
HETATM    3  O   UNL     1     -12.658  14.018  66.007  1.00  0.00    -0.481 OA 
ENDROOT
BRANCH   2   4
HETATM    4  C   UNL     1     -12.028  12.859  68.023  1.00  0.00    -0.323 C  
HETATM    5  C   UNL     1     -10.672  12.134  67.849  1.00  0.00    -0.237 C  
HETATM    6  C   UNL     1      -9.489  13.069  68.112  1.00  0.00    -0.218 A  
HETATM    7  C   UNL     1     -10.611  10.805  68.621  1.00  0.00    -0.226 C  
HETATM    8  C   UNL     1     -10.097   9.667  68.107  1.00  0.00    -0.175 C  
HETATM    9  C   UNL     1      -9.282  13.654  69.371  1.00  0.00     0.853 A  
HETATM   10  C   UNL     1     -10.313   8.372  68.758  1.00  0.00    -0.225 A  
HETATM   11  C   UNL     1      -8.340  14.670  69.543  1.00  0.00     0.159 A  
HETATM   12  O   UNL     1      -9.407   9.597  66.913  1.00  0.00    -0.140 OA 
HETATM   13  C   UNL     1      -9.931   7.146  68.205  1.00  0.00    -0.172 A  
HETATM   14  C   UNL     1      -7.579  15.104  68.453  1.00  0.00    -0.117 A  
HETATM   15  H   UNL     1      -9.046   8.796  66.551  1.00  0.00     0.000 HD 
HETATM   16  N   UNL     1      -6.696  16.267  68.599  1.00  0.00    -0.132 N  
HETATM   17  C   UNL     1      -7.705  14.475  67.209  1.00  0.00    -0.177 A  
HETATM   18  C   UNL     1     -10.258   5.940  68.840  1.00  0.00    -0.254 A  
HETATM   19  O   UNL     1      -6.041  16.622  67.609  1.00  0.00    -0.120 OA 
HETATM   20  C   UNL     1     -10.960   5.946  70.043  1.00  0.00    -0.430 A  
HETATM   21  C   UNL     1      -8.657  13.462  67.045  1.00  0.00    -0.168 A  
HETATM   22  O   UNL     1      -6.676  16.839  69.699  1.00  0.00    -0.221 OA 
HETATM   23  C   UNL     1     -11.325   7.156  70.619  1.00  0.00    -0.327 A  
HETATM   24  C   UNL     1     -10.999   8.342  69.964  1.00  0.00    -0.197 A  
HETATM   25  O   UNL     1     -11.427   9.521  70.578  1.00  0.00    -0.262 OA 
HETATM   26  C   UNL     1     -11.256  10.750  69.971  1.00  0.00    -0.291 C  
HETATM   27  O   UNL     1     -11.651  11.752  70.555  1.00  0.00    -0.181 OA 
ENDBRANCH   2   4
TORSDOF 1
ENDMDL
MODEL       85
REMARK 921   NORMALIZED FREE ENERGY PREDICTED BY IDOCK:   -3.99 KCAL/MOL
REMARK 922        TOTAL FREE ENERGY PREDICTED BY IDOCK:   -4.62 KCAL/MOL
REMARK 923 INTER-LIGAND FREE ENERGY PREDICTED BY IDOCK:   -4.32 KCAL/MOL
REMARK 924 INTRA-LIGAND FREE ENERGY PREDICTED BY IDOCK:   -0.30 KCAL/MOL
REMARK 927      BINDING AFFINITY PREDICTED BY RF-SCORE:    0.00 PKD
ROOT
HETATM    1  C   UNL     1      -8.425   7.211  71.840  1.00  0.00    -0.112 C  
HETATM    2  C   UNL     1      -7.945   8.192  70.793  1.00  0.00    -0.097 C  
HETATM    3  O   UNL     1      -7.758   9.380  71.044  1.00  0.00    -0.284 OA 
ENDROOT
BRANCH   2   4
HETATM    4  C   UNL     1      -7.809   7.619  69.400  1.00  0.00    -0.123 C  
HETATM    5  C   UNL     1      -9.101   7.580  68.550  1.00  0.00    -0.134 C  
HETATM    6  C   UNL     1      -9.721   8.971  68.393  1.00  0.00    -0.170 A  
HETATM    7  C   UNL     1      -8.913   6.819  67.226  1.00  0.00    -0.117 C  
HETATM    8  C   UNL     1      -9.813   5.938  66.739  1.00  0.00    -0.160 C  
HETATM    9  C   UNL     1      -9.039  10.008  67.737  1.00  0.00    -0.137 A  
HETATM   10  C   UNL     1      -9.473   5.034  65.637  1.00  0.00    -0.153 A  
HETATM   11  C   UNL     1      -9.510  11.322  67.791  1.00  0.00    -0.173 A  
HETATM   12  O   UNL     1     -11.076   5.748  67.263  1.00  0.00    -0.431 OA 
HETATM   13  C   UNL     1     -10.306   4.007  65.183  1.00  0.00    -0.147 A  
HETATM   14  C   UNL     1     -10.684  11.611  68.494  1.00  0.00    -0.218 A  
HETATM   15  H   UNL     1     -11.709   5.128  66.920  1.00  0.00     0.000 HD 
HETATM   16  N   UNL     1     -11.097  13.007  68.674  1.00  0.00    -0.257 N  
HETATM   17  C   UNL     1     -11.427  10.580  69.080  1.00  0.00    -0.314 A  
HETATM   18  C   UNL     1      -9.874   3.119  64.188  1.00  0.00    -0.163 A  
HETATM   19  O   UNL     1     -12.142  13.223  69.306  1.00  0.00    -0.301 OA 
HETATM   20  C   UNL     1      -8.607   3.255  63.627  1.00  0.00    -0.090 A  
HETATM   21  C   UNL     1     -10.943   9.268  69.027  1.00  0.00    -0.060 A  
HETATM   22  O   UNL     1     -10.366  13.890  68.203  1.00  0.00    -0.234 OA 
HETATM   23  C   UNL     1      -7.775   4.285  64.048  1.00  0.00    -0.083 A  
HETATM   24  C   UNL     1      -8.222   5.149  65.046  1.00  0.00    -0.130 A  
HETATM   25  O   UNL     1      -7.324   6.139  65.449  1.00  0.00    -0.075 OA 
HETATM   26  C   UNL     1      -7.614   6.986  66.502  1.00  0.00    -0.089 C  
HETATM   27  O   UNL     1      -6.789   7.837  66.813  1.00  0.00    -0.067 OA 
ENDBRANCH   2   4
TORSDOF 1
ENDMDL
MODEL       86
REMARK 921   NORMALIZED FREE ENERGY PREDICTED BY IDOCK:   -3.96 KCAL/MOL
REMARK 922        TOTAL FREE ENERGY PREDICTED BY IDOCK:   -4.59 KCAL/MOL
REMARK 923 INTER-LIGAND FREE ENERGY PREDICTED BY IDOCK:   -4.62 KCAL/MOL
REMARK 924 INTRA-LIGAND FREE ENERGY PREDICTED BY IDOCK:    0.02 KCAL/MOL
REMARK 927      BINDING AFFINITY PREDICTED BY RF-SCORE:    0.00 PKD
ROOT
HETATM    1  C   UNL     1     -12.277   6.738  71.279  1.00  0.00    -0.415 C  
HETATM    2  C   UNL     1     -11.274   6.369  70.208  1.00  0.00    -0.382 C  
HETATM    3  O   UNL     1     -10.651   5.310  70.231  1.00  0.00    -0.278 OA 
ENDROOT
BRANCH   2   4
HETATM    4  C   UNL     1     -11.028   7.441  69.170  1.00  0.00    -0.057 C  
HETATM    5  C   UNL     1      -9.643   8.128  69.214  1.00  0.00    -0.164 C  
HETATM    6  C   UNL     1      -8.502   7.118  69.078  1.00  0.00    -0.129 A  
HETATM    7  C   UNL     1      -9.547   9.323  68.250  1.00  0.00    -0.160 C  
HETATM    8  C   UNL     1      -8.981  10.503  68.581  1.00  0.00    -0.162 C  
HETATM    9  C   UNL     1      -8.342   6.342  67.919  1.00  0.00    -0.118 A  
HETATM   10  C   UNL     1      -9.160  11.694  67.745  1.00  0.00    -0.175 A  
HETATM   11  C   UNL     1      -7.442   5.275  67.888  1.00  0.00    -0.076 A  
HETATM   12  O   UNL     1      -8.265  10.724  69.740  1.00  0.00    -0.371 OA 
HETATM   13  C   UNL     1      -8.721  12.973  68.102  1.00  0.00    -0.190 A  
HETATM   14  C   UNL     1      -6.677   4.979  69.020  1.00  0.00    -0.049 A  
HETATM   15  H   UNL     1      -7.866  11.554  69.973  1.00  0.00     0.000 HD 
HETATM   16  N   UNL     1      -5.842   3.772  69.038  1.00  0.00    -0.022 N  
HETATM   17  C   UNL     1      -6.754   5.792  70.157  1.00  0.00    -0.048 A  
HETATM   18  C   UNL     1      -9.015  14.083  67.297  1.00  0.00    -0.223 A  
HETATM   19  O   UNL     1      -5.181   3.543  70.061  1.00  0.00    -0.007 OA 
HETATM   20  C   UNL     1      -9.739  13.925  66.119  1.00  0.00    -0.289 A  
HETATM   21  C   UNL     1      -7.664   6.855  70.180  1.00  0.00    -0.101 A  
HETATM   22  O   UNL     1      -5.866   3.041  68.037  1.00  0.00    -0.022 OA 
HETATM   23  C   UNL     1     -10.162  12.657  65.736  1.00  0.00    -0.288 A  
HETATM   24  C   UNL     1      -9.868  11.571  66.557  1.00  0.00    -0.202 A  
HETATM   25  O   UNL     1     -10.352  10.332  66.134  1.00  0.00    -0.235 OA 
HETATM   26  C   UNL     1     -10.216   9.202  66.917  1.00  0.00    -0.266 C  
HETATM   27  O   UNL     1     -10.660   8.140  66.495  1.00  0.00    -0.190 OA 
ENDBRANCH   2   4
TORSDOF 1
ENDMDL
MODEL       87
REMARK 921   NORMALIZED FREE ENERGY PREDICTED BY IDOCK:   -3.94 KCAL/MOL
REMARK 922        TOTAL FREE ENERGY PREDICTED BY IDOCK:   -4.57 KCAL/MOL
REMARK 923 INTER-LIGAND FREE ENERGY PREDICTED BY IDOCK:   -4.18 KCAL/MOL
REMARK 924 INTRA-LIGAND FREE ENERGY PREDICTED BY IDOCK:   -0.40 KCAL/MOL
REMARK 927      BINDING AFFINITY PREDICTED BY RF-SCORE:    0.00 PKD
ROOT
HETATM    1  C   UNL     1      -5.957   4.092  68.540  1.00  0.00    -0.027 C  
HETATM    2  C   UNL     1      -7.193   4.636  67.858  1.00  0.00    -0.066 C  
HETATM    3  O   UNL     1      -7.977   3.913  67.248  1.00  0.00    -0.090 OA 
ENDROOT
BRANCH   2   4
HETATM    4  C   UNL     1      -7.334   6.141  67.902  1.00  0.00    -0.084 C  
HETATM    5  C   UNL     1      -8.683   6.684  68.427  1.00  0.00    -0.122 C  
HETATM    6  C   UNL     1      -8.993   6.174  69.836  1.00  0.00    -0.139 A  
HETATM    7  C   UNL     1      -8.809   8.209  68.265  1.00  0.00    -0.133 C  
HETATM    8  C   UNL     1      -9.927   8.822  67.822  1.00  0.00    -0.194 C  
HETATM    9  C   UNL     1      -8.171   6.493  70.929  1.00  0.00    -0.125 A  
HETATM   10  C   UNL     1      -9.913  10.230  67.416  1.00  0.00    -0.230 A  
HETATM   11  C   UNL     1      -8.330   5.850  72.158  1.00  0.00    -0.118 A  
HETATM   12  O   UNL     1     -11.139   8.188  67.637  1.00  0.00    -0.492 OA 
HETATM   13  C   UNL     1     -10.996  10.882  66.819  1.00  0.00    -0.248 A  
HETATM   14  C   UNL     1      -9.331   4.885  72.312  1.00  0.00    -0.138 A  
HETATM   15  H   UNL     1     -11.926   8.620  67.325  1.00  0.00     0.000 HD 
HETATM   16  N   UNL     1      -9.404   4.106  73.554  1.00  0.00    -0.104 N  
HETATM   17  C   UNL     1     -10.218   4.615  71.265  1.00  0.00    -0.205 A  
HETATM   18  C   UNL     1     -10.877  12.204  66.367  1.00  0.00    -0.306 A  
HETATM   19  O   UNL     1     -10.302   3.259  73.652  1.00  0.00    -0.125 OA 
HETATM   20  C   UNL     1      -9.677  12.894  66.519  1.00  0.00    -0.257 A  
HETATM   21  C   UNL     1     -10.046   5.260  70.034  1.00  0.00    -0.336 A  
HETATM   22  O   UNL     1      -8.548   4.328  74.423  1.00  0.00    -0.095 OA 
HETATM   23  C   UNL     1      -8.598  12.270  67.134  1.00  0.00    -0.187 A  
HETATM   24  C   UNL     1      -8.736  10.952  67.565  1.00  0.00    -0.130 A  
HETATM   25  O   UNL     1      -7.604  10.372  68.140  1.00  0.00    -0.089 OA 
HETATM   26  C   UNL     1      -7.587   9.040  68.507  1.00  0.00    -0.093 C  
HETATM   27  O   UNL     1      -6.566   8.584  69.008  1.00  0.00    -0.047 OA 
ENDBRANCH   2   4
TORSDOF 1
ENDMDL
MODEL       88
REMARK 921   NORMALIZED FREE ENERGY PREDICTED BY IDOCK:   -3.94 KCAL/MOL
REMARK 922        TOTAL FREE ENERGY PREDICTED BY IDOCK:   -4.57 KCAL/MOL
REMARK 923 INTER-LIGAND FREE ENERGY PREDICTED BY IDOCK:   -4.31 KCAL/MOL
REMARK 924 INTRA-LIGAND FREE ENERGY PREDICTED BY IDOCK:   -0.25 KCAL/MOL
REMARK 927      BINDING AFFINITY PREDICTED BY RF-SCORE:    0.00 PKD
ROOT
HETATM    1  C   UNL     1      -7.605  16.690  66.926  1.00  0.00    -0.262 C  
HETATM    2  C   UNL     1      -8.829  16.137  66.230  1.00  0.00    -0.336 C  
HETATM    3  O   UNL     1      -9.756  16.855  65.864  1.00  0.00    -0.467 OA 
ENDROOT
BRANCH   2   4
HETATM    4  C   UNL     1      -8.866  14.630  66.110  1.00  0.00     0.128 C  
HETATM    5  C   UNL     1      -8.529  13.836  67.394  1.00  0.00    -0.209 C  
HETATM    6  C   UNL     1      -9.458  14.205  68.552  1.00  0.00    -0.202 A  
HETATM    7  C   UNL     1      -8.409  12.323  67.137  1.00  0.00    -0.183 C  
HETATM    8  C   UNL     1      -7.430  11.554  67.658  1.00  0.00    -0.110 C  
HETATM    9  C   UNL     1     -10.841  13.970  68.487  1.00  0.00    -0.268 A  
HETATM   10  C   UNL     1      -7.188  10.194  67.169  1.00  0.00    -0.090 A  
HETATM   11  C   UNL     1     -11.705  14.506  69.444  1.00  0.00    -0.361 A  
HETATM   12  O   UNL     1      -6.534  11.982  68.618  1.00  0.00    -0.055 OA 
HETATM   13  C   UNL     1      -6.106   9.402  67.565  1.00  0.00    -0.053 A  
HETATM   14  C   UNL     1     -11.190  15.276  70.491  1.00  0.00    -0.310 A  
HETATM   15  H   UNL     1      -5.845  11.441  68.985  1.00  0.00     0.000 HD 
HETATM   16  N   UNL     1     -12.108  15.960  71.410  1.00  0.00    -0.430 N  
HETATM   17  C   UNL     1      -9.808  15.450  70.626  1.00  0.00     0.678 A  
HETATM   18  C   UNL     1      -5.884   8.147  66.980  1.00  0.00    -0.045 A  
HETATM   19  O   UNL     1     -11.613  16.635  72.323  1.00  0.00    -0.393 OA 
HETATM   20  C   UNL     1      -6.748   7.664  66.001  1.00  0.00    -0.046 A  
HETATM   21  C   UNL     1      -8.950  14.914  69.658  1.00  0.00     0.104 A  
HETATM   22  O   UNL     1     -13.324  15.839  71.203  1.00  0.00    -0.564 OA 
HETATM   23  C   UNL     1      -7.843   8.428  65.614  1.00  0.00    -0.106 A  
HETATM   24  C   UNL     1      -8.037   9.676  66.201  1.00  0.00    -0.108 A  
HETATM   25  O   UNL     1      -9.134  10.408  65.741  1.00  0.00    -0.156 OA 
HETATM   26  C   UNL     1      -9.367  11.700  66.170  1.00  0.00    -0.224 C  
HETATM   27  O   UNL     1     -10.345  12.295  65.733  1.00  0.00    -0.246 OA 
ENDBRANCH   2   4
TORSDOF 1
ENDMDL
MODEL       89
REMARK 921   NORMALIZED FREE ENERGY PREDICTED BY IDOCK:   -3.85 KCAL/MOL
REMARK 922        TOTAL FREE ENERGY PREDICTED BY IDOCK:   -4.48 KCAL/MOL
REMARK 923 INTER-LIGAND FREE ENERGY PREDICTED BY IDOCK:   -4.96 KCAL/MOL
REMARK 924 INTRA-LIGAND FREE ENERGY PREDICTED BY IDOCK:    0.48 KCAL/MOL
REMARK 927      BINDING AFFINITY PREDICTED BY RF-SCORE:    0.00 PKD
ROOT
HETATM    1  C   UNL     1     -10.742  16.358  69.989  1.00  0.00    -0.258 C  
HETATM    2  C   UNL     1     -11.041  14.876  70.049  1.00  0.00    -0.232 C  
HETATM    3  O   UNL     1     -11.975  14.422  70.705  1.00  0.00    -0.293 OA 
ENDROOT
BRANCH   2   4
HETATM    4  C   UNL     1     -10.048  13.997  69.323  1.00  0.00     0.122 C  
HETATM    5  C   UNL     1     -10.100  14.042  67.778  1.00  0.00    -0.240 C  
HETATM    6  C   UNL     1      -9.901  15.461  67.242  1.00  0.00    -0.217 A  
HETATM    7  C   UNL     1      -9.188  12.987  67.126  1.00  0.00    -0.226 C  
HETATM    8  C   UNL     1      -9.561  12.227  66.075  1.00  0.00    -0.222 C  
HETATM    9  C   UNL     1      -8.706  16.166  67.457  1.00  0.00    -0.195 A  
HETATM   10  C   UNL     1      -8.782  11.053  65.670  1.00  0.00    -0.162 A  
HETATM   11  C   UNL     1      -8.613  17.528  67.162  1.00  0.00    -0.238 A  
HETATM   12  O   UNL     1     -10.718  12.421  65.347  1.00  0.00    -0.268 OA 
HETATM   13  C   UNL     1      -9.188  10.147  64.686  1.00  0.00    -0.300 A  
HETATM   14  C   UNL     1      -9.719  18.200  66.631  1.00  0.00    -0.334 A  
HETATM   15  H   UNL     1     -10.980  11.886  64.607  1.00  0.00     0.000 HD 
HETATM   16  N   UNL     1      -9.670  19.657  66.460  1.00  0.00    -0.369 N  
HETATM   17  C   UNL     1     -10.891  17.500  66.326  1.00  0.00     0.062 A  
HETATM   18  C   UNL     1      -8.438   8.993  64.420  1.00  0.00    -0.190 A  
HETATM   19  O   UNL     1     -10.671  20.216  65.989  1.00  0.00    -0.351 OA 
HETATM   20  C   UNL     1      -7.266   8.737  65.127  1.00  0.00    -0.087 A  
HETATM   21  C   UNL     1     -10.977  16.136  66.632  1.00  0.00    -0.055 A  
HETATM   22  O   UNL     1      -8.638  20.244  66.816  1.00  0.00    -0.305 OA 
HETATM   23  C   UNL     1      -6.834   9.640  66.091  1.00  0.00    -0.091 A  
HETATM   24  C   UNL     1      -7.601  10.775  66.346  1.00  0.00    -0.141 A  
HETATM   25  O   UNL     1      -7.132  11.621  67.351  1.00  0.00    -0.105 OA 
HETATM   26  C   UNL     1      -7.861  12.719  67.766  1.00  0.00    -0.156 C  
HETATM   27  O   UNL     1      -7.400  13.428  68.653  1.00  0.00    -0.106 OA 
ENDBRANCH   2   4
TORSDOF 1
ENDMDL
MODEL       90
REMARK 921   NORMALIZED FREE ENERGY PREDICTED BY IDOCK:   -3.76 KCAL/MOL
REMARK 922        TOTAL FREE ENERGY PREDICTED BY IDOCK:   -4.38 KCAL/MOL
REMARK 923 INTER-LIGAND FREE ENERGY PREDICTED BY IDOCK:   -3.98 KCAL/MOL
REMARK 924 INTRA-LIGAND FREE ENERGY PREDICTED BY IDOCK:   -0.40 KCAL/MOL
REMARK 927      BINDING AFFINITY PREDICTED BY RF-SCORE:    0.00 PKD
ROOT
HETATM    1  C   UNL     1     -12.628   7.445  70.673  1.00  0.00     0.009 C  
HETATM    2  C   UNL     1     -11.327   8.043  71.160  1.00  0.00    -0.266 C  
HETATM    3  O   UNL     1     -11.291   8.943  71.996  1.00  0.00    -0.353 OA 
ENDROOT
BRANCH   2   4
HETATM    4  C   UNL     1     -10.088   7.518  70.470  1.00  0.00    -0.188 C  
HETATM    5  C   UNL     1      -9.995   7.776  68.948  1.00  0.00    -0.185 C  
HETATM    6  C   UNL     1     -10.081   9.267  68.617  1.00  0.00    -0.207 A  
HETATM    7  C   UNL     1      -8.802   7.053  68.299  1.00  0.00    -0.126 C  
HETATM    8  C   UNL     1      -8.881   6.391  67.125  1.00  0.00    -0.113 C  
HETATM    9  C   UNL     1      -9.111  10.176  69.068  1.00  0.00    -0.176 A  
HETATM   10  C   UNL     1      -7.813   5.488  66.686  1.00  0.00    -0.101 A  
HETATM   11  C   UNL     1      -9.311  11.554  68.953  1.00  0.00    -0.006 A  
HETATM   12  O   UNL     1      -9.972   6.434  66.281  1.00  0.00    -0.371 OA 
HETATM   13  C   UNL     1      -7.896   4.669  65.556  1.00  0.00    -0.094 A  
HETATM   14  C   UNL     1     -10.484  12.039  68.368  1.00  0.00    -0.219 A  
HETATM   15  H   UNL     1     -10.028   5.968  65.454  1.00  0.00     0.000 HD 
HETATM   16  N   UNL     1     -10.760  13.481  68.381  1.00  0.00    -0.252 N  
HETATM   17  C   UNL     1     -11.424  11.152  67.831  1.00  0.00    -0.359 A  
HETATM   18  C   UNL     1      -6.874   3.758  65.253  1.00  0.00    -0.053 A  
HETATM   19  O   UNL     1     -11.812  13.871  67.855  1.00  0.00    -0.343 OA 
HETATM   20  C   UNL     1      -5.751   3.664  66.071  1.00  0.00    -0.018 A  
HETATM   21  C   UNL     1     -11.218   9.773  67.957  1.00  0.00    -0.059 A  
HETATM   22  O   UNL     1      -9.934  14.220  68.936  1.00  0.00    -0.221 OA 
HETATM   23  C   UNL     1      -5.641   4.488  67.185  1.00  0.00    -0.014 A  
HETATM   24  C   UNL     1      -6.673   5.378  67.472  1.00  0.00    -0.055 A  
HETATM   25  O   UNL     1      -6.516   6.150  68.624  1.00  0.00    -0.041 OA 
HETATM   26  C   UNL     1      -7.520   6.989  69.069  1.00  0.00    -0.095 C  
HETATM   27  O   UNL     1      -7.328   7.644  70.087  1.00  0.00    -0.073 OA 
ENDBRANCH   2   4
TORSDOF 1
ENDMDL
MODEL       91
REMARK 921   NORMALIZED FREE ENERGY PREDICTED BY IDOCK:   -3.59 KCAL/MOL
REMARK 922        TOTAL FREE ENERGY PREDICTED BY IDOCK:   -4.20 KCAL/MOL
REMARK 923 INTER-LIGAND FREE ENERGY PREDICTED BY IDOCK:   -3.80 KCAL/MOL
REMARK 924 INTRA-LIGAND FREE ENERGY PREDICTED BY IDOCK:   -0.40 KCAL/MOL
REMARK 927      BINDING AFFINITY PREDICTED BY RF-SCORE:    0.00 PKD
ROOT
HETATM    1  C   UNL     1      -7.233   7.807  64.629  1.00  0.00    -0.072 C  
HETATM    2  C   UNL     1      -8.493   8.516  65.074  1.00  0.00    -0.164 C  
HETATM    3  O   UNL     1      -8.967   9.462  64.450  1.00  0.00    -0.217 OA 
ENDROOT
BRANCH   2   4
HETATM    4  C   UNL     1      -9.063   8.036  66.389  1.00  0.00    -0.226 C  
HETATM    5  C   UNL     1      -8.194   8.293  67.643  1.00  0.00    -0.127 C  
HETATM    6  C   UNL     1      -7.876   9.779  67.821  1.00  0.00    -0.094 A  
HETATM    7  C   UNL     1      -8.760   7.613  68.902  1.00  0.00    -0.135 C  
HETATM    8  C   UNL     1      -7.998   6.946  69.795  1.00  0.00    -0.124 C  
HETATM    9  C   UNL     1      -8.890  10.725  68.040  1.00  0.00    -0.132 A  
HETATM   10  C   UNL     1      -8.600   6.082  70.815  1.00  0.00    -0.135 A  
HETATM   11  C   UNL     1      -8.619  12.094  67.980  1.00  0.00    -0.175 A  
HETATM   12  O   UNL     1      -6.617   6.945  69.791  1.00  0.00    -0.042 OA 
HETATM   13  C   UNL     1      -7.866   5.258  71.673  1.00  0.00    -0.110 A  
HETATM   14  C   UNL     1      -7.318  12.533  67.712  1.00  0.00    -0.124 A  
HETATM   15  H   UNL     1      -6.081   6.475  70.419  1.00  0.00     0.000 HD 
HETATM   16  N   UNL     1      -7.063  13.963  67.502  1.00  0.00    -0.179 N  
HETATM   17  C   UNL     1      -6.275  11.610  67.577  1.00  0.00    -0.083 A  
HETATM   18  C   UNL     1      -8.515   4.385  72.558  1.00  0.00    -0.109 A  
HETATM   19  O   UNL     1      -5.898  14.312  67.265  1.00  0.00    -0.294 OA 
HETATM   20  C   UNL     1      -9.905   4.335  72.603  1.00  0.00    -0.201 A  
HETATM   21  C   UNL     1      -6.558  10.240  67.633  1.00  0.00    -0.066 A  
HETATM   22  O   UNL     1      -8.032  14.734  67.555  1.00  0.00    -0.157 OA 
HETATM   23  C   UNL     1     -10.650   5.166  71.774  1.00  0.00    -0.238 A  
HETATM   24  C   UNL     1      -9.984   6.017  70.896  1.00  0.00    -0.187 A  
HETATM   25  O   UNL     1     -10.791   6.798  70.066  1.00  0.00    -0.234 OA 
HETATM   26  C   UNL     1     -10.246   7.600  69.082  1.00  0.00    -0.203 C  
HETATM   27  O   UNL     1     -11.001   8.264  68.382  1.00  0.00     0.028 OA 
ENDBRANCH   2   4
TORSDOF 1
ENDMDL
MODEL       92
REMARK 921   NORMALIZED FREE ENERGY PREDICTED BY IDOCK:   -3.53 KCAL/MOL
REMARK 922        TOTAL FREE ENERGY PREDICTED BY IDOCK:   -4.13 KCAL/MOL
REMARK 923 INTER-LIGAND FREE ENERGY PREDICTED BY IDOCK:   -3.71 KCAL/MOL
REMARK 924 INTRA-LIGAND FREE ENERGY PREDICTED BY IDOCK:   -0.42 KCAL/MOL
REMARK 927      BINDING AFFINITY PREDICTED BY RF-SCORE:    0.00 PKD
ROOT
HETATM    1  C   UNL     1      -8.519   4.343  72.631  1.00  0.00    -0.109 C  
HETATM    2  C   UNL     1      -9.034   3.550  71.449  1.00  0.00    -0.101 C  
HETATM    3  O   UNL     1      -9.950   2.738  71.554  1.00  0.00    -0.155 OA 
ENDROOT
BRANCH   2   4
HETATM    4  C   UNL     1      -8.272   3.762  70.161  1.00  0.00    -0.072 C  
HETATM    5  C   UNL     1      -9.085   4.326  68.973  1.00  0.00    -0.187 C  
HETATM    6  C   UNL     1      -9.742   5.665  69.317  1.00  0.00    -0.205 A  
HETATM    7  C   UNL     1      -8.282   4.336  67.660  1.00  0.00    -0.098 C  
HETATM    8  C   UNL     1      -8.793   3.950  66.471  1.00  0.00    -0.125 C  
HETATM    9  C   UNL     1      -8.976   6.797  69.636  1.00  0.00    -0.143 A  
HETATM   10  C   UNL     1      -7.927   3.706  65.314  1.00  0.00    -0.090 A  
HETATM   11  C   UNL     1      -9.576   7.944  70.161  1.00  0.00    -0.175 A  
HETATM   12  O   UNL     1     -10.128   3.678  66.251  1.00  0.00    -0.414 OA 
HETATM   13  C   UNL     1      -8.375   3.171  64.102  1.00  0.00    -0.089 A  
HETATM   14  C   UNL     1     -10.959   7.975  70.360  1.00  0.00    -0.248 A  
HETATM   15  H   UNL     1     -10.488   3.406  65.415  1.00  0.00     0.000 HD 
HETATM   16  N   UNL     1     -11.569   9.120  71.046  1.00  0.00    -0.289 N  
HETATM   17  C   UNL     1     -11.753   6.892  69.967  1.00  0.00    -0.261 A  
HETATM   18  C   UNL     1      -7.471   2.873  63.072  1.00  0.00    -0.054 A  
HETATM   19  O   UNL     1     -12.798   9.109  71.206  1.00  0.00    -0.315 OA 
HETATM   20  C   UNL     1      -6.111   3.119  63.238  1.00  0.00    -0.014 A  
HETATM   21  C   UNL     1     -11.142   5.745  69.448  1.00  0.00    -0.259 A  
HETATM   22  O   UNL     1     -10.816  10.020  71.445  1.00  0.00    -0.140 OA 
HETATM   23  C   UNL     1      -5.652   3.673  64.426  1.00  0.00    -0.013 A  
HETATM   24  C   UNL     1      -6.567   3.951  65.440  1.00  0.00    -0.040 A  
HETATM   25  O   UNL     1      -6.036   4.472  66.621  1.00  0.00    -0.025 OA 
HETATM   26  C   UNL     1      -6.829   4.687  67.732  1.00  0.00    -0.056 C  
HETATM   27  O   UNL     1      -6.310   5.147  68.742  1.00  0.00    -0.032 OA 
ENDBRANCH   2   4
TORSDOF 1
ENDMDL
MODEL       93
REMARK 921   NORMALIZED FREE ENERGY PREDICTED BY IDOCK:   -3.42 KCAL/MOL
REMARK 922        TOTAL FREE ENERGY PREDICTED BY IDOCK:   -4.02 KCAL/MOL
REMARK 923 INTER-LIGAND FREE ENERGY PREDICTED BY IDOCK:   -3.75 KCAL/MOL
REMARK 924 INTRA-LIGAND FREE ENERGY PREDICTED BY IDOCK:   -0.27 KCAL/MOL
REMARK 927      BINDING AFFINITY PREDICTED BY RF-SCORE:    0.00 PKD
ROOT
HETATM    1  C   UNL     1      -5.701  10.822  67.767  1.00  0.00    -0.043 C  
HETATM    2  C   UNL     1      -6.120   9.414  68.129  1.00  0.00    -0.052 C  
HETATM    3  O   UNL     1      -5.953   8.949  69.255  1.00  0.00    -0.040 OA 
ENDROOT
BRANCH   2   4
HETATM    4  C   UNL     1      -6.663   8.596  66.980  1.00  0.00    -0.062 C  
HETATM    5  C   UNL     1      -7.807   7.612  67.324  1.00  0.00    -0.117 C  
HETATM    6  C   UNL     1      -9.003   8.328  67.955  1.00  0.00    -0.138 A  
HETATM    7  C   UNL     1      -8.172   6.696  66.143  1.00  0.00    -0.124 C  
HETATM    8  C   UNL     1      -8.402   5.372  66.271  1.00  0.00    -0.115 C  
HETATM    9  C   UNL     1      -9.732   9.299  67.251  1.00  0.00    -0.218 A  
HETATM   10  C   UNL     1      -8.465   4.493  65.100  1.00  0.00    -0.126 A  
HETATM   11  C   UNL     1     -10.674  10.101  67.902  1.00  0.00    -0.317 A  
HETATM   12  O   UNL     1      -8.520   4.717  67.481  1.00  0.00    -0.105 OA 
HETATM   13  C   UNL     1      -8.559   3.100  65.172  1.00  0.00    -0.104 A  
HETATM   14  C   UNL     1     -10.906   9.927  69.270  1.00  0.00    -0.227 A  
HETATM   15  H   UNL     1      -8.682   3.786  67.571  1.00  0.00     0.000 HD 
HETATM   16  N   UNL     1     -11.784  10.864  69.982  1.00  0.00    -0.313 N  
HETATM   17  C   UNL     1     -10.256   8.907  69.972  1.00  0.00    -0.214 A  
HETATM   18  C   UNL     1      -8.515   2.317  64.010  1.00  0.00    -0.082 A  
HETATM   19  O   UNL     1     -11.963  10.679  71.194  1.00  0.00    -0.342 OA 
HETATM   20  C   UNL     1      -8.390   2.919  62.760  1.00  0.00    -0.074 A  
HETATM   21  C   UNL     1      -9.309   8.114  69.314  1.00  0.00    -0.151 A  
HETATM   22  O   UNL     1     -12.276  11.798  69.332  1.00  0.00    -0.256 OA 
HETATM   23  C   UNL     1      -8.321   4.304  62.668  1.00  0.00    -0.086 A  
HETATM   24  C   UNL     1      -8.355   5.061  63.837  1.00  0.00    -0.132 A  
HETATM   25  O   UNL     1      -8.244   6.443  63.678  1.00  0.00    -0.072 OA 
HETATM   26  C   UNL     1      -8.159   7.288  64.768  1.00  0.00    -0.097 C  
HETATM   27  O   UNL     1      -8.063   8.493  64.569  1.00  0.00    -0.144 OA 
ENDBRANCH   2   4
TORSDOF 1
ENDMDL
MODEL       94
REMARK 921   NORMALIZED FREE ENERGY PREDICTED BY IDOCK:   -3.42 KCAL/MOL
REMARK 922        TOTAL FREE ENERGY PREDICTED BY IDOCK:   -4.02 KCAL/MOL
REMARK 923 INTER-LIGAND FREE ENERGY PREDICTED BY IDOCK:   -3.64 KCAL/MOL
REMARK 924 INTRA-LIGAND FREE ENERGY PREDICTED BY IDOCK:   -0.38 KCAL/MOL
REMARK 927      BINDING AFFINITY PREDICTED BY RF-SCORE:    0.00 PKD
ROOT
HETATM    1  C   UNL     1      -7.255   9.845  64.986  1.00  0.00    -0.135 C  
HETATM    2  C   UNL     1      -8.539   9.350  65.614  1.00  0.00    -0.142 C  
HETATM    3  O   UNL     1      -9.614   9.378  65.018  1.00  0.00    -0.228 OA 
ENDROOT
BRANCH   2   4
HETATM    4  C   UNL     1      -8.415   8.913  67.056  1.00  0.00    -0.112 C  
HETATM    5  C   UNL     1      -9.018   7.531  67.404  1.00  0.00    -0.129 C  
HETATM    6  C   UNL     1      -8.409   6.414  66.555  1.00  0.00    -0.115 A  
HETATM    7  C   UNL     1      -9.013   7.250  68.917  1.00  0.00    -0.133 C  
HETATM    8  C   UNL     1     -10.057   6.707  69.578  1.00  0.00    -0.177 C  
HETATM    9  C   UNL     1      -7.043   6.099  66.628  1.00  0.00    -0.072 A  
HETATM   10  C   UNL     1     -10.120   6.717  71.042  1.00  0.00    -0.206 A  
HETATM   11  C   UNL     1      -6.454   5.238  65.699  1.00  0.00    -0.040 A  
HETATM   12  O   UNL     1     -11.173   6.174  68.963  1.00  0.00    -0.383 OA 
HETATM   13  C   UNL     1     -11.233   6.301  71.779  1.00  0.00    -0.334 A  
HETATM   14  C   UNL     1      -7.236   4.668  64.689  1.00  0.00    -0.063 A  
HETATM   15  H   UNL     1     -11.908   5.792  69.428  1.00  0.00     0.000 HD 
HETATM   16  N   UNL     1      -6.593   3.883  63.628  1.00  0.00    -0.037 N  
HETATM   17  C   UNL     1      -8.616   4.897  64.650  1.00  0.00    -0.149 A  
HETATM   18  C   UNL     1     -11.259   6.432  73.175  1.00  0.00    -0.114 A  
HETATM   19  O   UNL     1      -7.319   3.396  62.750  1.00  0.00    -0.047 OA 
HETATM   20  C   UNL     1     -10.166   6.969  73.851  1.00  0.00    -0.388 A  
HETATM   21  C   UNL     1      -9.195   5.767  65.581  1.00  0.00    -0.038 A  
HETATM   22  O   UNL     1      -5.359   3.772  63.663  1.00  0.00    -0.008 OA 
HETATM   23  C   UNL     1      -9.042   7.364  73.136  1.00  0.00    -0.207 A  
HETATM   24  C   UNL     1      -9.044   7.235  71.749  1.00  0.00    -0.130 A  
HETATM   25  O   UNL     1      -7.899   7.684  71.089  1.00  0.00    -0.087 OA 
HETATM   26  C   UNL     1      -7.827   7.706  69.709  1.00  0.00    -0.110 C  
HETATM   27  O   UNL     1      -6.797   8.111  69.182  1.00  0.00    -0.053 OA 
ENDBRANCH   2   4
TORSDOF 1
ENDMDL
MODEL       95
REMARK 921   NORMALIZED FREE ENERGY PREDICTED BY IDOCK:   -3.41 KCAL/MOL
REMARK 922        TOTAL FREE ENERGY PREDICTED BY IDOCK:   -4.01 KCAL/MOL
REMARK 923 INTER-LIGAND FREE ENERGY PREDICTED BY IDOCK:   -3.64 KCAL/MOL
REMARK 924 INTRA-LIGAND FREE ENERGY PREDICTED BY IDOCK:   -0.37 KCAL/MOL
REMARK 927      BINDING AFFINITY PREDICTED BY RF-SCORE:    0.00 PKD
ROOT
HETATM    1  C   UNL     1     -10.063  13.468  64.683  1.00  0.00    -0.246 C  
HETATM    2  C   UNL     1      -9.661  13.251  66.126  1.00  0.00    -0.250 C  
HETATM    3  O   UNL     1      -8.724  12.524  66.443  1.00  0.00    -0.097 OA 
ENDROOT
BRANCH   2   4
HETATM    4  C   UNL     1     -10.560  13.918  67.143  1.00  0.00    -0.277 C  
HETATM    5  C   UNL     1      -9.850  14.718  68.260  1.00  0.00    -0.222 C  
HETATM    6  C   UNL     1      -8.947  15.814  67.689  1.00  0.00    -0.190 A  
HETATM    7  C   UNL     1     -10.823  15.204  69.348  1.00  0.00    -0.265 C  
HETATM    8  C   UNL     1     -10.558  15.135  70.670  1.00  0.00    -0.035 C  
HETATM    9  C   UNL     1      -9.470  16.877  66.936  1.00  0.00    -0.261 A  
HETATM   10  C   UNL     1     -11.610  15.342  71.669  1.00  0.00    -0.473 A  
HETATM   11  C   UNL     1      -8.627  17.744  66.237  1.00  0.00    -0.217 A  
HETATM   12  O   UNL     1      -9.329  14.797  71.199  1.00  0.00     1.409 OA 
HETATM   13  C   UNL     1     -11.434  15.145  73.042  1.00  0.00    -0.135 A  
HETATM   14  C   UNL     1      -7.242  17.563  66.297  1.00  0.00    -0.316 A  
HETATM   15  H   UNL     1      -9.142  14.749  72.129  1.00  0.00     0.000 HD 
HETATM   16  N   UNL     1      -6.366  18.379  65.448  1.00  0.00    -0.266 N  
HETATM   17  C   UNL     1      -6.695  16.566  67.111  1.00  0.00    -0.232 A  
HETATM   18  C   UNL     1     -12.513  15.267  73.929  1.00  0.00    -0.752 A  
HETATM   19  O   UNL     1      -5.144  18.188  65.527  1.00  0.00    -0.155 OA 
HETATM   20  C   UNL     1     -13.779  15.598  73.454  1.00  0.00    -0.152 A  
HETATM   21  C   UNL     1      -7.548  15.698  67.803  1.00  0.00    -0.158 A  
HETATM   22  O   UNL     1      -6.902  19.197  64.685  1.00  0.00    -0.318 OA 
HETATM   23  C   UNL     1     -13.967  15.822  72.095  1.00  0.00    -0.418 A  
HETATM   24  C   UNL     1     -12.883  15.685  71.232  1.00  0.00    -0.487 A  
HETATM   25  O   UNL     1     -13.147  15.886  69.876  1.00  0.00     0.010 OA 
HETATM   26  C   UNL     1     -12.177  15.674  68.915  1.00  0.00    -0.018 C  
HETATM   27  O   UNL     1     -12.464  15.867  67.740  1.00  0.00     0.881 OA 
ENDBRANCH   2   4
TORSDOF 1
ENDMDL
MODEL       96
REMARK 921   NORMALIZED FREE ENERGY PREDICTED BY IDOCK:   -3.40 KCAL/MOL
REMARK 922        TOTAL FREE ENERGY PREDICTED BY IDOCK:   -4.00 KCAL/MOL
REMARK 923 INTER-LIGAND FREE ENERGY PREDICTED BY IDOCK:   -3.65 KCAL/MOL
REMARK 924 INTRA-LIGAND FREE ENERGY PREDICTED BY IDOCK:   -0.35 KCAL/MOL
REMARK 927      BINDING AFFINITY PREDICTED BY RF-SCORE:    0.00 PKD
ROOT
HETATM    1  C   UNL     1      -7.120   4.198  63.304  1.00  0.00    -0.045 C  
HETATM    2  C   UNL     1      -8.369   4.789  63.920  1.00  0.00    -0.125 C  
HETATM    3  O   UNL     1      -9.446   4.197  63.917  1.00  0.00    -0.153 OA 
ENDROOT
BRANCH   2   4
HETATM    4  C   UNL     1      -8.213   6.198  64.448  1.00  0.00    -0.063 C  
HETATM    5  C   UNL     1      -8.852   6.483  65.828  1.00  0.00    -0.097 C  
HETATM    6  C   UNL     1      -8.310   5.548  66.911  1.00  0.00    -0.108 A  
HETATM    7  C   UNL     1      -8.806   7.975  66.202  1.00  0.00    -0.198 C  
HETATM    8  C   UNL     1      -9.846   8.638  66.749  1.00  0.00    -0.253 C  
HETATM    9  C   UNL     1      -6.954   5.553  67.274  1.00  0.00    -0.065 A  
HETATM   10  C   UNL     1      -9.860  10.102  66.826  1.00  0.00    -0.247 A  
HETATM   11  C   UNL     1      -6.427   4.554  68.096  1.00  0.00    -0.038 A  
HETATM   12  O   UNL     1     -10.999   8.033  67.207  1.00  0.00    -0.505 OA 
HETATM   13  C   UNL     1     -10.961  10.852  67.250  1.00  0.00    -0.355 A  
HETATM   14  C   UNL     1      -7.261   3.540  68.577  1.00  0.00    -0.050 A  
HETATM   15  H   UNL     1     -11.731   8.500  67.592  1.00  0.00     0.000 HD 
HETATM   16  N   UNL     1      -6.682   2.412  69.316  1.00  0.00    -0.033 N  
HETATM   17  C   UNL     1      -8.633   3.563  68.301  1.00  0.00    -0.116 A  
HETATM   18  C   UNL     1     -10.936  12.253  67.204  1.00  0.00    -0.308 A  
HETATM   19  O   UNL     1      -7.453   1.532  69.724  1.00  0.00    -0.036 OA 
HETATM   20  C   UNL     1      -9.804  12.921  66.746  1.00  0.00    -0.241 A  
HETATM   21  C   UNL     1      -9.150   4.565  67.471  1.00  0.00    -0.137 A  
HETATM   22  O   UNL     1      -5.452   2.396  69.469  1.00  0.00    -0.015 OA 
HETATM   23  C   UNL     1      -8.691  12.192  66.345  1.00  0.00    -0.052 A  
HETATM   24  C   UNL     1      -8.743  10.801  66.388  1.00  0.00    -0.158 A  
HETATM   25  O   UNL     1      -7.606  10.128  65.937  1.00  0.00    -0.115 OA 
HETATM   26  C   UNL     1      -7.579   8.751  65.833  1.00  0.00    -0.090 C  
HETATM   27  O   UNL     1      -6.554   8.213  65.431  1.00  0.00    -0.051 OA 
ENDBRANCH   2   4
TORSDOF 1
ENDMDL
MODEL       97
REMARK 921   NORMALIZED FREE ENERGY PREDICTED BY IDOCK:   -3.23 KCAL/MOL
REMARK 922        TOTAL FREE ENERGY PREDICTED BY IDOCK:   -3.82 KCAL/MOL
REMARK 923 INTER-LIGAND FREE ENERGY PREDICTED BY IDOCK:   -3.48 KCAL/MOL
REMARK 924 INTRA-LIGAND FREE ENERGY PREDICTED BY IDOCK:   -0.34 KCAL/MOL
REMARK 927      BINDING AFFINITY PREDICTED BY RF-SCORE:    0.00 PKD
ROOT
HETATM    1  C   UNL     1     -12.773   6.597  72.033  1.00  0.00    -0.204 C  
HETATM    2  C   UNL     1     -11.544   7.452  72.253  1.00  0.00    -0.292 C  
HETATM    3  O   UNL     1     -11.616   8.658  72.477  1.00  0.00    -0.356 OA 
ENDROOT
BRANCH   2   4
HETATM    4  C   UNL     1     -10.227   6.730  72.079  1.00  0.00    -0.209 C  
HETATM    5  C   UNL     1      -9.756   6.513  70.622  1.00  0.00    -0.194 C  
HETATM    6  C   UNL     1      -9.633   7.834  69.860  1.00  0.00    -0.164 A  
HETATM    7  C   UNL     1      -8.510   5.615  70.532  1.00  0.00    -0.121 C  
HETATM    8  C   UNL     1      -8.365   4.629  69.621  1.00  0.00    -0.070 C  
HETATM    9  C   UNL     1      -8.723   8.828  70.256  1.00  0.00    -0.170 A  
HETATM   10  C   UNL     1      -7.305   3.625  69.747  1.00  0.00    -0.045 A  
HETATM   11  C   UNL     1      -8.771  10.107  69.699  1.00  0.00    -0.176 A  
HETATM   12  O   UNL     1      -9.219   4.425  68.556  1.00  0.00    -0.117 OA 
HETATM   13  C   UNL     1      -7.189   2.503  68.921  1.00  0.00    -0.044 A  
HETATM   14  C   UNL     1      -9.728  10.404  68.723  1.00  0.00    -0.183 A  
HETATM   15  H   UNL     1      -9.118   3.731  67.915  1.00  0.00     0.000 HD 
HETATM   16  N   UNL     1      -9.875  11.785  68.246  1.00  0.00    -0.194 N  
HETATM   17  C   UNL     1     -10.587   9.406  68.250  1.00  0.00    -0.256 A  
HETATM   18  C   UNL     1      -6.207   1.532  69.163  1.00  0.00    -0.025 A  
HETATM   19  O   UNL     1     -10.735  12.008  67.383  1.00  0.00    -0.217 OA 
HETATM   20  C   UNL     1      -5.321   1.679  70.227  1.00  0.00    -0.004 A  
HETATM   21  C   UNL     1     -10.536   8.129  68.819  1.00  0.00    -0.198 A  
HETATM   22  O   UNL     1      -9.143  12.649  68.751  1.00  0.00    -0.009 OA 
HETATM   23  C   UNL     1      -5.406   2.800  71.043  1.00  0.00    -0.004 A  
HETATM   24  C   UNL     1      -6.397   3.746  70.790  1.00  0.00    -0.022 A  
HETATM   25  O   UNL     1      -6.451   4.830  71.669  1.00  0.00    -0.021 OA 
HETATM   26  C   UNL     1      -7.456   5.774  71.583  1.00  0.00    -0.094 C  
HETATM   27  O   UNL     1      -7.454   6.705  72.381  1.00  0.00    -0.091 OA 
ENDBRANCH   2   4
TORSDOF 1
ENDMDL
MODEL       98
REMARK 921   NORMALIZED FREE ENERGY PREDICTED BY IDOCK:   -3.03 KCAL/MOL
REMARK 922        TOTAL FREE ENERGY PREDICTED BY IDOCK:   -3.61 KCAL/MOL
REMARK 923 INTER-LIGAND FREE ENERGY PREDICTED BY IDOCK:   -3.38 KCAL/MOL
REMARK 924 INTRA-LIGAND FREE ENERGY PREDICTED BY IDOCK:   -0.23 KCAL/MOL
REMARK 927      BINDING AFFINITY PREDICTED BY RF-SCORE:    0.00 PKD
ROOT
HETATM    1  C   UNL     1      -6.112   8.700  73.625  1.00  0.00    -0.120 C  
HETATM    2  C   UNL     1      -6.625   7.509  72.845  1.00  0.00    -0.065 C  
HETATM    3  O   UNL     1      -7.116   6.526  73.396  1.00  0.00    -0.077 OA 
ENDROOT
BRANCH   2   4
HETATM    4  C   UNL     1      -6.396   7.580  71.352  1.00  0.00    -0.035 C  
HETATM    5  C   UNL     1      -7.468   6.902  70.465  1.00  0.00    -0.086 C  
HETATM    6  C   UNL     1      -8.864   7.474  70.722  1.00  0.00    -0.148 A  
HETATM    7  C   UNL     1      -7.065   6.861  68.981  1.00  0.00    -0.088 C  
HETATM    8  C   UNL     1      -7.231   5.777  68.194  1.00  0.00    -0.076 C  
HETATM    9  C   UNL     1      -9.163   8.821  70.464  1.00  0.00    -0.218 A  
HETATM   10  C   UNL     1      -6.583   5.683  66.882  1.00  0.00    -0.056 A  
HETATM   11  C   UNL     1     -10.362   9.386  70.904  1.00  0.00    -0.380 A  
HETATM   12  O   UNL     1      -7.938   4.650  68.562  1.00  0.00    -0.079 OA 
HETATM   13  C   UNL     1      -6.599   4.535  66.083  1.00  0.00    -0.042 A  
HETATM   14  C   UNL     1     -11.286   8.600  71.599  1.00  0.00    -0.307 A  
HETATM   15  H   UNL     1      -8.054   3.887  68.008  1.00  0.00     0.000 HD 
HETATM   16  N   UNL     1     -12.476   9.226  72.188  1.00  0.00    -0.367 N  
HETATM   17  C   UNL     1     -11.049   7.234  71.790  1.00  0.00    -0.265 A  
HETATM   18  C   UNL     1      -5.875   4.486  64.884  1.00  0.00    -0.014 A  
HETATM   19  O   UNL     1     -13.270   8.497  72.799  1.00  0.00    -0.232 OA 
HETATM   20  C   UNL     1      -5.136   5.589  64.463  1.00  0.00    -0.009 A  
HETATM   21  C   UNL     1      -9.841   6.679  71.351  1.00  0.00    -0.191 A  
HETATM   22  O   UNL     1     -12.604  10.453  72.059  1.00  0.00    -0.351 OA 
HETATM   23  C   UNL     1      -5.130   6.746  65.231  1.00  0.00    -0.022 A  
HETATM   24  C   UNL     1      -5.848   6.768  66.425  1.00  0.00    -0.025 A  
HETATM   25  O   UNL     1      -5.770   7.948  67.168  1.00  0.00    -0.035 OA 
HETATM   26  C   UNL     1      -6.352   8.050  68.417  1.00  0.00    -0.050 C  
HETATM   27  O   UNL     1      -6.252   9.110  69.024  1.00  0.00    -0.043 OA 
ENDBRANCH   2   4
TORSDOF 1
ENDMDL
MODEL       99
REMARK 921   NORMALIZED FREE ENERGY PREDICTED BY IDOCK:   -2.91 KCAL/MOL
REMARK 922        TOTAL FREE ENERGY PREDICTED BY IDOCK:   -3.48 KCAL/MOL
REMARK 923 INTER-LIGAND FREE ENERGY PREDICTED BY IDOCK:   -4.01 KCAL/MOL
REMARK 924 INTRA-LIGAND FREE ENERGY PREDICTED BY IDOCK:    0.54 KCAL/MOL
REMARK 927      BINDING AFFINITY PREDICTED BY RF-SCORE:    0.00 PKD
ROOT
HETATM    1  C   UNL     1     -11.904   6.986  70.771  1.00  0.00    -0.401 C  
HETATM    2  C   UNL     1     -10.698   7.016  69.858  1.00  0.00    -0.240 C  
HETATM    3  O   UNL     1      -9.881   6.099  69.822  1.00  0.00    -0.157 OA 
ENDROOT
BRANCH   2   4
HETATM    4  C   UNL     1     -10.526   8.296  69.073  1.00  0.00    -0.212 C  
HETATM    5  C   UNL     1      -9.085   8.630  68.620  1.00  0.00    -0.138 C  
HETATM    6  C   UNL     1      -8.481   7.510  67.769  1.00  0.00    -0.118 A  
HETATM    7  C   UNL     1      -8.973  10.030  67.993  1.00  0.00    -0.128 C  
HETATM    8  C   UNL     1      -7.969  10.891  68.266  1.00  0.00    -0.121 C  
HETATM    9  C   UNL     1      -9.037   7.148  66.533  1.00  0.00    -0.182 A  
HETATM   10  C   UNL     1      -8.048  12.301  67.875  1.00  0.00    -0.155 A  
HETATM   11  C   UNL     1      -8.622   5.990  65.871  1.00  0.00    -0.150 A  
HETATM   12  O   UNL     1      -6.838  10.562  68.986  1.00  0.00    -0.058 OA 
HETATM   13  C   UNL     1      -7.113  13.270  68.250  1.00  0.00    -0.109 A  
HETATM   14  C   UNL     1      -7.629   5.185  66.437  1.00  0.00    -0.088 A  
HETATM   15  H   UNL     1      -6.132  11.168  69.179  1.00  0.00     0.000 HD 
HETATM   16  N   UNL     1      -7.297   3.896  65.818  1.00  0.00    -0.072 N  
HETATM   17  C   UNL     1      -6.998   5.573  67.624  1.00  0.00    -0.066 A  
HETATM   18  C   UNL     1      -7.306  14.619  67.921  1.00  0.00    -0.164 A  
HETATM   19  O   UNL     1      -6.414   3.210  66.351  1.00  0.00    -0.031 OA 
HETATM   20  C   UNL     1      -8.431  15.013  67.201  1.00  0.00    -0.244 A  
HETATM   21  C   UNL     1      -7.426   6.731  68.284  1.00  0.00    -0.099 A  
HETATM   22  O   UNL     1      -7.937   3.560  64.811  1.00  0.00    -0.088 OA 
HETATM   23  C   UNL     1      -9.358  14.060  66.799  1.00  0.00    -0.289 A  
HETATM   24  C   UNL     1      -9.151  12.727  67.147  1.00  0.00    -0.219 A  
HETATM   25  O   UNL     1     -10.138  11.826  66.744  1.00  0.00    -0.205 OA 
HETATM   26  C   UNL     1     -10.096  10.498  67.122  1.00  0.00    -0.209 C  
HETATM   27  O   UNL     1     -10.990   9.751  66.739  1.00  0.00    -0.074 OA 
ENDBRANCH   2   4
TORSDOF 1
ENDMDL
MODEL      100
REMARK 921   NORMALIZED FREE ENERGY PREDICTED BY IDOCK:   -2.80 KCAL/MOL
REMARK 922        TOTAL FREE ENERGY PREDICTED BY IDOCK:   -3.37 KCAL/MOL
REMARK 923 INTER-LIGAND FREE ENERGY PREDICTED BY IDOCK:   -3.90 KCAL/MOL
REMARK 924 INTRA-LIGAND FREE ENERGY PREDICTED BY IDOCK:    0.53 KCAL/MOL
REMARK 927      BINDING AFFINITY PREDICTED BY RF-SCORE:    0.00 PKD
ROOT
HETATM    1  C   UNL     1      -5.965   7.752  66.805  1.00  0.00    -0.047 C  
HETATM    2  C   UNL     1      -7.173   6.842  66.770  1.00  0.00    -0.076 C  
HETATM    3  O   UNL     1      -7.951   6.822  65.820  1.00  0.00    -0.100 OA 
ENDROOT
BRANCH   2   4
HETATM    4  C   UNL     1      -7.400   6.039  68.031  1.00  0.00    -0.084 C  
HETATM    5  C   UNL     1      -8.835   5.504  68.249  1.00  0.00    -0.104 C  
HETATM    6  C   UNL     1      -9.301   4.630  67.083  1.00  0.00    -0.156 A  
HETATM    7  C   UNL     1      -9.021   4.861  69.635  1.00  0.00    -0.137 C  
HETATM    8  C   UNL     1     -10.102   5.071  70.415  1.00  0.00    -0.260 C  
HETATM    9  C   UNL     1      -8.650   3.428  66.761  1.00  0.00    -0.116 A  
HETATM   10  C   UNL     1     -10.111   4.674  71.826  1.00  0.00    -0.261 A  
HETATM   11  C   UNL     1      -8.936   2.753  65.573  1.00  0.00    -0.135 A  
HETATM   12  O   UNL     1     -11.243   5.730  70.001  1.00  0.00    -0.335 OA 
HETATM   13  C   UNL     1     -11.139   4.989  72.720  1.00  0.00    -0.310 A  
HETATM   14  C   UNL     1      -9.894   3.269  64.694  1.00  0.00    -0.121 A  
HETATM   15  H   UNL     1     -12.003   5.878  70.551  1.00  0.00     0.000 HD 
HETATM   16  N   UNL     1     -10.088   2.643  63.381  1.00  0.00    -0.132 N  
HETATM   17  C   UNL     1     -10.618   4.417  65.035  1.00  0.00    -0.144 A  
HETATM   18  C   UNL     1     -11.034   4.662  74.079  1.00  0.00    -0.261 A  
HETATM   19  O   UNL     1     -10.944   3.131  62.630  1.00  0.00    -0.167 OA 
HETATM   20  C   UNL     1      -9.904   4.003  74.558  1.00  0.00    -0.179 A  
HETATM   21  C   UNL     1     -10.319   5.090  66.226  1.00  0.00    -0.332 A  
HETATM   22  O   UNL     1      -9.369   1.675  63.093  1.00  0.00    -0.089 OA 
HETATM   23  C   UNL     1      -8.884   3.660  73.678  1.00  0.00    -0.088 A  
HETATM   24  C   UNL     1      -9.006   4.006  72.335  1.00  0.00    -0.110 A  
HETATM   25  O   UNL     1      -7.930   3.665  71.512  1.00  0.00    -0.062 OA 
HETATM   26  C   UNL     1      -7.890   4.050  70.186  1.00  0.00    -0.048 C  
HETATM   27  O   UNL     1      -6.921   3.723  69.510  1.00  0.00    -0.041 OA 
ENDBRANCH   2   4
TORSDOF 1
ENDMDL
MODEL      101
REMARK 921   NORMALIZED FREE ENERGY PREDICTED BY IDOCK:   -2.66 KCAL/MOL
REMARK 922        TOTAL FREE ENERGY PREDICTED BY IDOCK:   -3.22 KCAL/MOL
REMARK 923 INTER-LIGAND FREE ENERGY PREDICTED BY IDOCK:   -4.14 KCAL/MOL
REMARK 924 INTRA-LIGAND FREE ENERGY PREDICTED BY IDOCK:    0.91 KCAL/MOL
REMARK 927      BINDING AFFINITY PREDICTED BY RF-SCORE:    0.00 PKD
ROOT
HETATM    1  C   UNL     1      -8.645   5.659  65.617  1.00  0.00    -0.150 C  
HETATM    2  C   UNL     1      -7.625   6.617  65.042  1.00  0.00    -0.099 C  
HETATM    3  O   UNL     1      -6.693   6.238  64.337  1.00  0.00    -0.037 OA 
ENDROOT
BRANCH   2   4
HETATM    4  C   UNL     1      -7.784   8.055  65.482  1.00  0.00    -0.093 C  
HETATM    5  C   UNL     1      -8.760   8.304  66.657  1.00  0.00    -0.150 C  
HETATM    6  C   UNL     1      -8.368   7.506  67.902  1.00  0.00    -0.123 A  
HETATM    7  C   UNL     1      -9.001   9.802  66.916  1.00  0.00    -0.154 C  
HETATM    8  C   UNL     1     -10.219  10.328  67.163  1.00  0.00    -0.225 C  
HETATM    9  C   UNL     1      -7.148   7.726  68.561  1.00  0.00    -0.073 A  
HETATM   10  C   UNL     1     -10.444  11.776  67.122  1.00  0.00    -0.250 A  
HETATM   11  C   UNL     1      -6.701   6.852  69.554  1.00  0.00    -0.050 A  
HETATM   12  O   UNL     1     -11.357   9.581  67.393  1.00  0.00    -0.294 OA 
HETATM   13  C   UNL     1     -11.704  12.374  67.228  1.00  0.00    -0.419 A  
HETATM   14  C   UNL     1      -7.482   5.748  69.910  1.00  0.00    -0.079 A  
HETATM   15  H   UNL     1     -12.214   9.952  67.566  1.00  0.00     0.000 HD 
HETATM   16  N   UNL     1      -6.948   4.751  70.845  1.00  0.00    -0.036 N  
HETATM   17  C   UNL     1      -8.742   5.558  69.331  1.00  0.00    -0.107 A  
HETATM   18  C   UNL     1     -11.854  13.761  67.082  1.00  0.00    -0.441 A  
HETATM   19  O   UNL     1      -7.670   3.786  71.134  1.00  0.00    -0.056 OA 
HETATM   20  C   UNL     1     -10.745  14.567  66.842  1.00  0.00    -0.288 A  
HETATM   21  C   UNL     1      -9.178   6.436  68.332  1.00  0.00    -0.120 A  
HETATM   22  O   UNL     1      -5.797   4.922  71.273  1.00  0.00    -0.015 OA 
HETATM   23  C   UNL     1      -9.482  13.992  66.759  1.00  0.00    -0.292 A  
HETATM   24  C   UNL     1      -9.359  12.611  66.896  1.00  0.00    -0.228 A  
HETATM   25  O   UNL     1      -8.069  12.093  66.766  1.00  0.00    -0.147 OA 
HETATM   26  C   UNL     1      -7.836  10.732  66.776  1.00  0.00    -0.135 C  
HETATM   27  O   UNL     1      -6.683  10.333  66.658  1.00  0.00    -0.075 OA 
ENDBRANCH   2   4
TORSDOF 1
ENDMDL
MODEL      102
REMARK 921   NORMALIZED FREE ENERGY PREDICTED BY IDOCK:   -2.53 KCAL/MOL
REMARK 922        TOTAL FREE ENERGY PREDICTED BY IDOCK:   -3.08 KCAL/MOL
REMARK 923 INTER-LIGAND FREE ENERGY PREDICTED BY IDOCK:   -3.39 KCAL/MOL
REMARK 924 INTRA-LIGAND FREE ENERGY PREDICTED BY IDOCK:    0.31 KCAL/MOL
REMARK 927      BINDING AFFINITY PREDICTED BY RF-SCORE:    0.00 PKD
ROOT
HETATM    1  C   UNL     1      -8.225  11.107  69.246  1.00  0.00     0.075 C  
HETATM    2  C   UNL     1      -8.320  11.980  68.014  1.00  0.00    -0.162 C  
HETATM    3  O   UNL     1      -8.200  11.526  66.878  1.00  0.00    -0.156 OA 
ENDROOT
BRANCH   2   4
HETATM    4  C   UNL     1      -8.474  13.458  68.292  1.00  0.00    -0.166 C  
HETATM    5  C   UNL     1      -8.582  14.377  67.053  1.00  0.00    -0.226 C  
HETATM    6  C   UNL     1      -9.750  13.978  66.148  1.00  0.00    -0.300 A  
HETATM    7  C   UNL     1      -8.550  15.871  67.421  1.00  0.00    -0.189 C  
HETATM    8  C   UNL     1      -7.832  16.790  66.742  1.00  0.00    -0.246 C  
HETATM    9  C   UNL     1     -11.078  14.034  66.597  1.00  0.00    -0.312 A  
HETATM   10  C   UNL     1      -7.604  18.132  67.287  1.00  0.00    -0.227 A  
HETATM   11  C   UNL     1     -12.113  13.464  65.851  1.00  0.00    -0.486 A  
HETATM   12  O   UNL     1      -7.193  16.547  65.543  1.00  0.00     0.883 OA 
HETATM   13  C   UNL     1      -6.756  19.079  66.704  1.00  0.00    -0.207 A  
HETATM   14  C   UNL     1     -11.827  12.841  64.633  1.00  0.00    -0.374 A  
HETATM   15  H   UNL     1      -6.688  17.194  65.065  1.00  0.00     0.000 HD 
HETATM   16  N   UNL     1     -12.887  12.115  63.922  1.00  0.00    -0.392 N  
HETATM   17  C   UNL     1     -10.525  12.851  64.123  1.00  0.00    -0.429 A  
HETATM   18  C   UNL     1      -6.510  20.307  67.334  1.00  0.00    -0.260 A  
HETATM   19  O   UNL     1     -12.595  11.573  62.847  1.00  0.00    -0.136 OA 
HETATM   20  C   UNL     1      -7.120  20.607  68.550  1.00  0.00     0.018 A  
HETATM   21  C   UNL     1      -9.494  13.418  64.880  1.00  0.00     0.552 A  
HETATM   22  O   UNL     1     -14.007  12.069  64.452  1.00  0.00     0.410 OA 
HETATM   23  C   UNL     1      -7.985  19.688  69.131  1.00  0.00    -0.164 A  
HETATM   24  C   UNL     1      -8.205  18.470  68.492  1.00  0.00    -0.335 A  
HETATM   25  O   UNL     1      -9.055  17.577  69.147  1.00  0.00    -0.106 OA 
HETATM   26  C   UNL     1      -9.265  16.299  68.664  1.00  0.00    -0.227 C  
HETATM   27  O   UNL     1     -10.022  15.558  69.279  1.00  0.00    -0.228 OA 
ENDBRANCH   2   4
TORSDOF 1
ENDMDL
MODEL      103
REMARK 921   NORMALIZED FREE ENERGY PREDICTED BY IDOCK:   -2.11 KCAL/MOL
REMARK 922        TOTAL FREE ENERGY PREDICTED BY IDOCK:   -2.64 KCAL/MOL
REMARK 923 INTER-LIGAND FREE ENERGY PREDICTED BY IDOCK:   -4.56 KCAL/MOL
REMARK 924 INTRA-LIGAND FREE ENERGY PREDICTED BY IDOCK:    1.92 KCAL/MOL
REMARK 927      BINDING AFFINITY PREDICTED BY RF-SCORE:    0.00 PKD
ROOT
HETATM    1  C   UNL     1      -5.662  11.273  69.952  1.00  0.00    -0.092 C  
HETATM    2  C   UNL     1      -5.967  12.685  69.500  1.00  0.00    -0.113 C  
HETATM    3  O   UNL     1      -5.186  13.615  69.686  1.00  0.00    -0.084 OA 
ENDROOT
BRANCH   2   4
HETATM    4  C   UNL     1      -7.339  12.876  68.895  1.00  0.00    -0.014 C  
HETATM    5  C   UNL     1      -7.855  11.725  67.999  1.00  0.00    -0.134 C  
HETATM    6  C   UNL     1      -7.890  10.392  68.748  1.00  0.00    -0.108 A  
HETATM    7  C   UNL     1      -9.169  12.080  67.281  1.00  0.00    -0.182 C  
HETATM    8  C   UNL     1      -9.408  11.800  65.982  1.00  0.00    -0.220 C  
HETATM    9  C   UNL     1      -8.712  10.202  69.871  1.00  0.00    -0.091 A  
HETATM   10  C   UNL     1     -10.540  12.399  65.270  1.00  0.00    -0.322 A  
HETATM   11  C   UNL     1      -8.576   9.069  70.676  1.00  0.00    -0.245 A  
HETATM   12  O   UNL     1      -8.594  11.009  65.196  1.00  0.00    -0.335 OA 
HETATM   13  C   UNL     1     -10.760  12.262  63.896  1.00  0.00    -0.463 A  
HETATM   14  C   UNL     1      -7.619   8.101  70.357  1.00  0.00    -0.076 A  
HETATM   15  H   UNL     1      -8.763  10.811  64.282  1.00  0.00     0.000 HD 
HETATM   16  N   UNL     1      -7.375   6.987  71.281  1.00  0.00    -0.079 N  
HETATM   17  C   UNL     1      -6.850   8.225  69.194  1.00  0.00    -0.051 A  
HETATM   18  C   UNL     1     -11.809  12.945  63.265  1.00  0.00    -0.469 A  
HETATM   19  O   UNL     1      -6.518   6.151  70.964  1.00  0.00    -0.045 OA 
HETATM   20  C   UNL     1     -12.660  13.763  64.004  1.00  0.00    -0.131 A  
HETATM   21  C   UNL     1      -6.989   9.367  68.397  1.00  0.00    -0.067 A  
HETATM   22  O   UNL     1      -8.027   6.962  72.336  1.00  0.00    -0.096 OA 
HETATM   23  C   UNL     1     -12.471  13.891  65.375  1.00  0.00    -0.528 A  
HETATM   24  C   UNL     1     -11.415  13.212  65.978  1.00  0.00    -0.335 A  
HETATM   25  O   UNL     1     -11.259  13.412  67.350  1.00  0.00    -0.270 OA 
HETATM   26  C   UNL     1     -10.186  12.877  68.037  1.00  0.00    -0.229 C  
HETATM   27  O   UNL     1     -10.099  13.085  69.242  1.00  0.00     0.224 OA 
ENDBRANCH   2   4
TORSDOF 1
ENDMDL
MODEL      104
REMARK 921   NORMALIZED FREE ENERGY PREDICTED BY IDOCK:   -0.61 KCAL/MOL
REMARK 922        TOTAL FREE ENERGY PREDICTED BY IDOCK:   -1.05 KCAL/MOL
REMARK 923 INTER-LIGAND FREE ENERGY PREDICTED BY IDOCK:   -1.48 KCAL/MOL
REMARK 924 INTRA-LIGAND FREE ENERGY PREDICTED BY IDOCK:    0.43 KCAL/MOL
REMARK 927      BINDING AFFINITY PREDICTED BY RF-SCORE:    0.00 PKD
ROOT
HETATM    1  C   UNL     1     -12.485  11.340  69.009  1.00  0.00     0.177 C  
HETATM    2  C   UNL     1     -11.078  11.332  68.452  1.00  0.00    -0.240 C  
HETATM    3  O   UNL     1     -10.718  12.106  67.568  1.00  0.00    -0.221 OA 
ENDROOT
BRANCH   2   4
HETATM    4  C   UNL     1     -10.186  10.239  68.995  1.00  0.00    -0.225 C  
HETATM    5  C   UNL     1      -8.808  10.081  68.309  1.00  0.00    -0.116 C  
HETATM    6  C   UNL     1      -7.994  11.376  68.362  1.00  0.00    -0.142 A  
HETATM    7  C   UNL     1      -8.045   8.836  68.797  1.00  0.00    -0.115 C  
HETATM    8  C   UNL     1      -7.383   7.997  67.972  1.00  0.00    -0.096 C  
HETATM    9  C   UNL     1      -7.586  11.937  69.582  1.00  0.00     0.673 A  
HETATM   10  C   UNL     1      -6.917   6.687  68.433  1.00  0.00    -0.080 A  
HETATM   11  C   UNL     1      -7.042  13.222  69.635  1.00  0.00     0.337 A  
HETATM   12  O   UNL     1      -7.154   8.245  66.633  1.00  0.00    -0.074 OA 
HETATM   13  C   UNL     1      -6.354   5.718  67.596  1.00  0.00    -0.038 A  
HETATM   14  C   UNL     1      -6.886  13.958  68.456  1.00  0.00    -0.098 A  
HETATM   15  H   UNL     1      -6.688   7.654  66.053  1.00  0.00     0.000 HD 
HETATM   16  N   UNL     1      -6.453  15.359  68.526  1.00  0.00    -0.096 N  
HETATM   17  C   UNL     1      -7.202  13.386  67.219  1.00  0.00    -0.023 A  
HETATM   18  C   UNL     1      -6.021   4.449  68.090  1.00  0.00    -0.027 A  
HETATM   19  O   UNL     1      -6.329  15.979  67.460  1.00  0.00    -0.145 OA 
HETATM   20  C   UNL     1      -6.236   4.137  69.430  1.00  0.00    -0.028 A  
HETATM   21  C   UNL     1      -7.754  12.100  67.178  1.00  0.00    -0.151 A  
HETATM   22  O   UNL     1      -6.259  15.846  69.649  1.00  0.00    -0.158 OA 
HETATM   23  C   UNL     1      -6.771   5.096  70.282  1.00  0.00    -0.040 A  
HETATM   24  C   UNL     1      -7.105   6.347  69.766  1.00  0.00    -0.072 A  
HETATM   25  O   UNL     1      -7.672   7.251  70.666  1.00  0.00    -0.090 OA 
HETATM   26  C   UNL     1      -8.141   8.482  70.248  1.00  0.00    -0.106 C  
HETATM   27  O   UNL     1      -8.629   9.236  71.081  1.00  0.00    -0.281 OA 
ENDBRANCH   2   4
TORSDOF 1
ENDMDL
MODEL      105
REMARK 921   NORMALIZED FREE ENERGY PREDICTED BY IDOCK:   -0.36 KCAL/MOL
REMARK 922        TOTAL FREE ENERGY PREDICTED BY IDOCK:   -0.78 KCAL/MOL
REMARK 923 INTER-LIGAND FREE ENERGY PREDICTED BY IDOCK:   -0.41 KCAL/MOL
REMARK 924 INTRA-LIGAND FREE ENERGY PREDICTED BY IDOCK:   -0.37 KCAL/MOL
REMARK 927      BINDING AFFINITY PREDICTED BY RF-SCORE:    0.00 PKD
ROOT
HETATM    1  C   UNL     1     -11.791  12.402  64.892  1.00  0.00    -0.442 C  
HETATM    2  C   UNL     1     -11.612  12.797  66.342  1.00  0.00    -0.378 C  
HETATM    3  O   UNL     1     -12.433  12.502  67.207  1.00  0.00    -0.188 OA 
ENDROOT
BRANCH   2   4
HETATM    4  C   UNL     1     -10.404  13.662  66.621  1.00  0.00    -0.275 C  
HETATM    5  C   UNL     1      -9.211  12.962  67.314  1.00  0.00    -0.208 C  
HETATM    6  C   UNL     1      -8.711  11.759  66.510  1.00  0.00    -0.173 A  
HETATM    7  C   UNL     1      -8.105  13.950  67.724  1.00  0.00    -0.174 C  
HETATM    8  C   UNL     1      -7.473  13.908  68.916  1.00  0.00    -0.080 C  
HETATM    9  C   UNL     1      -8.179  11.909  65.220  1.00  0.00     1.159 A  
HETATM   10  C   UNL     1      -6.639  15.022  69.376  1.00  0.00    -0.143 A  
HETATM   11  C   UNL     1      -7.933  10.797  64.412  1.00  0.00     0.195 A  
HETATM   12  O   UNL     1      -7.604  12.880  69.829  1.00  0.00     0.146 OA 
HETATM   13  C   UNL     1      -6.075  15.101  70.653  1.00  0.00     0.011 A  
HETATM   14  C   UNL     1      -8.206   9.513  64.895  1.00  0.00    -0.140 A  
HETATM   15  H   UNL     1      -7.159  12.850  70.668  1.00  0.00     0.000 HD 
HETATM   16  N   UNL     1      -8.088   8.358  63.997  1.00  0.00    -0.154 N  
HETATM   17  C   UNL     1      -8.653   9.335  66.209  1.00  0.00    -0.139 A  
HETATM   18  C   UNL     1      -5.370  16.244  71.057  1.00  0.00    -0.031 A  
HETATM   19  O   UNL     1      -8.341   7.238  64.463  1.00  0.00    -0.055 OA 
HETATM   20  C   UNL     1      -5.211  17.317  70.183  1.00  0.00    -0.216 A  
HETATM   21  C   UNL     1      -8.903  10.456  67.009  1.00  0.00    -0.143 A  
HETATM   22  O   UNL     1      -7.763   8.575  62.821  1.00  0.00    -0.113 OA 
HETATM   23  C   UNL     1      -5.743  17.245  68.901  1.00  0.00    -0.158 A  
HETATM   24  C   UNL     1      -6.449  16.103  68.526  1.00  0.00    -0.117 A  
HETATM   25  O   UNL     1      -6.989  16.110  67.239  1.00  0.00    -0.163 OA 
HETATM   26  C   UNL     1      -7.798  15.082  66.794  1.00  0.00     0.121 C  
HETATM   27  O   UNL     1      -8.245  15.140  65.654  1.00  0.00     1.447 OA 
ENDBRANCH   2   4
TORSDOF 1
ENDMDL
MODEL      106
REMARK 921   NORMALIZED FREE ENERGY PREDICTED BY IDOCK:   -0.21 KCAL/MOL
REMARK 922        TOTAL FREE ENERGY PREDICTED BY IDOCK:   -0.63 KCAL/MOL
REMARK 923 INTER-LIGAND FREE ENERGY PREDICTED BY IDOCK:   -2.60 KCAL/MOL
REMARK 924 INTRA-LIGAND FREE ENERGY PREDICTED BY IDOCK:    1.97 KCAL/MOL
REMARK 927      BINDING AFFINITY PREDICTED BY RF-SCORE:    0.00 PKD
ROOT
HETATM    1  C   UNL     1      -9.338  14.785  70.869  1.00  0.00     2.341 C  
HETATM    2  C   UNL     1     -10.265  15.589  69.985  1.00  0.00    -0.273 C  
HETATM    3  O   UNL     1     -11.483  15.596  70.147  1.00  0.00    -0.289 OA 
ENDROOT
BRANCH   2   4
HETATM    4  C   UNL     1      -9.589  16.299  68.833  1.00  0.00    -0.243 C  
HETATM    5  C   UNL     1      -8.054  16.456  68.937  1.00  0.00    -0.236 C  
HETATM    6  C   UNL     1      -7.352  15.105  69.091  1.00  0.00    -0.167 A  
HETATM    7  C   UNL     1      -7.475  17.345  67.822  1.00  0.00    -0.195 C  
HETATM    8  C   UNL     1      -6.538  18.293  68.035  1.00  0.00    -0.202 C  
HETATM    9  C   UNL     1      -7.420  14.124  68.089  1.00  0.00    -0.129 A  
HETATM   10  C   UNL     1      -6.225  19.297  67.014  1.00  0.00    -0.182 A  
HETATM   11  C   UNL     1      -6.969  12.824  68.326  1.00  0.00    -0.097 A  
HETATM   12  O   UNL     1      -5.858  18.459  69.225  1.00  0.00    -0.210 OA 
HETATM   13  C   UNL     1      -5.373  20.385  67.224  1.00  0.00    -0.187 A  
HETATM   14  C   UNL     1      -6.429  12.493  69.572  1.00  0.00    -0.083 A  
HETATM   15  H   UNL     1      -5.199  19.126  69.375  1.00  0.00     0.000 HD 
HETATM   16  N   UNL     1      -6.092  11.096  69.870  1.00  0.00    -0.105 N  
HETATM   17  C   UNL     1      -6.269  13.475  70.556  1.00  0.00     0.005 A  
HETATM   18  C   UNL     1      -5.197  21.361  66.232  1.00  0.00    -0.272 A  
HETATM   19  O   UNL     1      -5.618  10.842  70.987  1.00  0.00    -0.212 OA 
HETATM   20  C   UNL     1      -5.862  21.252  65.014  1.00  0.00    -0.153 A  
HETATM   21  C   UNL     1      -6.730  14.774  70.311  1.00  0.00    -0.054 A  
HETATM   22  O   UNL     1      -6.323  10.249  68.995  1.00  0.00    -0.043 OA 
HETATM   23  C   UNL     1      -6.694  20.164  64.779  1.00  0.00    -0.225 A  
HETATM   24  C   UNL     1      -6.862  19.213  65.783  1.00  0.00    -0.276 A  
HETATM   25  O   UNL     1      -7.738  18.165  65.497  1.00  0.00    -0.507 OA 
HETATM   26  C   UNL     1      -8.067  17.222  66.452  1.00  0.00    -0.293 C  
HETATM   27  O   UNL     1      -8.842  16.323  66.146  1.00  0.00    -0.310 OA 
ENDBRANCH   2   4
TORSDOF 1
ENDMDL
MODEL      107
REMARK 921   NORMALIZED FREE ENERGY PREDICTED BY IDOCK:   -0.05 KCAL/MOL
REMARK 922        TOTAL FREE ENERGY PREDICTED BY IDOCK:   -0.46 KCAL/MOL
REMARK 923 INTER-LIGAND FREE ENERGY PREDICTED BY IDOCK:   -2.28 KCAL/MOL
REMARK 924 INTRA-LIGAND FREE ENERGY PREDICTED BY IDOCK:    1.82 KCAL/MOL
REMARK 927      BINDING AFFINITY PREDICTED BY RF-SCORE:    0.00 PKD
ROOT
HETATM    1  C   UNL     1      -7.343   5.093  71.096  1.00  0.00    -0.074 C  
HETATM    2  C   UNL     1      -7.884   6.213  71.957  1.00  0.00    -0.105 C  
HETATM    3  O   UNL     1      -8.009   6.102  73.175  1.00  0.00    -0.107 OA 
ENDROOT
BRANCH   2   4
HETATM    4  C   UNL     1      -8.349   7.433  71.195  1.00  0.00    -0.114 C  
HETATM    5  C   UNL     1      -7.445   7.892  70.027  1.00  0.00    -0.079 C  
HETATM    6  C   UNL     1      -7.243   6.782  68.993  1.00  0.00    -0.091 A  
HETATM    7  C   UNL     1      -7.892   9.238  69.429  1.00  0.00    -0.083 C  
HETATM    8  C   UNL     1      -7.036  10.229  69.103  1.00  0.00    -0.074 C  
HETATM    9  C   UNL     1      -8.320   6.253  68.264  1.00  0.00    -0.115 A  
HETATM   10  C   UNL     1      -7.515  11.582  68.807  1.00  0.00    -0.119 A  
HETATM   11  C   UNL     1      -8.167   5.100  67.492  1.00  0.00    -0.103 A  
HETATM   12  O   UNL     1      -5.662  10.096  69.091  1.00  0.00    -0.038 OA 
HETATM   13  C   UNL     1      -6.676  12.681  68.603  1.00  0.00    -0.088 A  
HETATM   14  C   UNL     1      -6.921   4.467  67.430  1.00  0.00    -0.063 A  
HETATM   15  H   UNL     1      -5.060  10.794  68.862  1.00  0.00     0.000 HD 
HETATM   16  N   UNL     1      -6.795   3.177  66.741  1.00  0.00    -0.051 N  
HETATM   17  C   UNL     1      -5.813   5.024  68.077  1.00  0.00    -0.021 A  
HETATM   18  C   UNL     1      -7.207  13.966  68.422  1.00  0.00    -0.110 A  
HETATM   19  O   UNL     1      -5.676   2.646  66.710  1.00  0.00    -0.020 OA 
HETATM   20  C   UNL     1      -8.585  14.165  68.431  1.00  0.00    -0.176 A  
HETATM   21  C   UNL     1      -5.979   6.177  68.854  1.00  0.00    -0.024 A  
HETATM   22  O   UNL     1      -7.822   2.685  66.249  1.00  0.00    -0.078 OA 
HETATM   23  C   UNL     1      -9.435  13.079  68.608  1.00  0.00    -0.007 A  
HETATM   24  C   UNL     1      -8.884  11.814  68.796  1.00  0.00     0.024 A  
HETATM   25  O   UNL     1      -9.791  10.773  69.005  1.00  0.00    -0.197 OA 
HETATM   26  C   UNL     1      -9.362   9.496  69.309  1.00  0.00    -0.169 C  
HETATM   27  O   UNL     1     -10.202   8.621  69.482  1.00  0.00    -0.198 OA 
ENDBRANCH   2   4
TORSDOF 1
ENDMDL
MODEL      108
REMARK 921   NORMALIZED FREE ENERGY PREDICTED BY IDOCK:    0.18 KCAL/MOL
REMARK 922        TOTAL FREE ENERGY PREDICTED BY IDOCK:   -0.21 KCAL/MOL
REMARK 923 INTER-LIGAND FREE ENERGY PREDICTED BY IDOCK:   -1.51 KCAL/MOL
REMARK 924 INTRA-LIGAND FREE ENERGY PREDICTED BY IDOCK:    1.30 KCAL/MOL
REMARK 927      BINDING AFFINITY PREDICTED BY RF-SCORE:    0.00 PKD
ROOT
HETATM    1  C   UNL     1      -7.894  14.648  70.819  1.00  0.00     1.864 C  
HETATM    2  C   UNL     1      -6.507  15.148  70.482  1.00  0.00     0.082 C  
HETATM    3  O   UNL     1      -5.491  14.573  70.869  1.00  0.00    -0.134 OA 
ENDROOT
BRANCH   2   4
HETATM    4  C   UNL     1      -6.468  16.454  69.722  1.00  0.00    -0.153 C  
HETATM    5  C   UNL     1      -7.279  16.500  68.405  1.00  0.00    -0.169 C  
HETATM    6  C   UNL     1      -8.756  16.171  68.634  1.00  0.00    -0.214 A  
HETATM    7  C   UNL     1      -7.037  17.795  67.609  1.00  0.00    -0.194 C  
HETATM    8  C   UNL     1      -6.851  17.823  66.272  1.00  0.00    -0.272 C  
HETATM    9  C   UNL     1      -9.572  16.980  69.441  1.00  0.00     0.066 A  
HETATM   10  C   UNL     1      -6.347  19.023  65.599  1.00  0.00    -0.286 A  
HETATM   11  C   UNL     1     -10.847  16.558  69.823  1.00  0.00    -0.302 A  
HETATM   12  O   UNL     1      -7.034  16.737  65.439  1.00  0.00     0.963 OA 
HETATM   13  C   UNL     1      -5.999  19.073  64.246  1.00  0.00    -0.159 A  
HETATM   14  C   UNL     1     -11.328  15.319  69.387  1.00  0.00    -0.294 A  
HETATM   15  H   UNL     1      -6.902  16.757  64.498  1.00  0.00     0.000 HD 
HETATM   16  N   UNL     1     -12.603  14.811  69.906  1.00  0.00    -0.231 N  
HETATM   17  C   UNL     1     -10.569  14.536  68.511  1.00  0.00    -0.252 A  
HETATM   18  C   UNL     1      -5.431  20.229  63.692  1.00  0.00    -0.270 A  
HETATM   19  O   UNL     1     -12.995  13.709  69.498  1.00  0.00     0.378 OA 
HETATM   20  C   UNL     1      -5.215  21.354  64.484  1.00  0.00    -0.120 A  
HETATM   21  C   UNL     1      -9.289  14.965  68.139  1.00  0.00    -0.193 A  
HETATM   22  O   UNL     1     -13.203  15.506  70.740  1.00  0.00    -0.475 OA 
HETATM   23  C   UNL     1      -5.578  21.331  65.825  1.00  0.00    -0.237 A  
HETATM   24  C   UNL     1      -6.131  20.167  66.355  1.00  0.00    -0.175 A  
HETATM   25  O   UNL     1      -6.439  20.198  67.717  1.00  0.00    -0.221 OA 
HETATM   26  C   UNL     1      -6.891  19.071  68.377  1.00  0.00    -0.256 C  
HETATM   27  O   UNL     1      -7.147  19.155  69.572  1.00  0.00    -0.255 OA 
ENDBRANCH   2   4
TORSDOF 1
ENDMDL
MODEL      109
REMARK 921   NORMALIZED FREE ENERGY PREDICTED BY IDOCK:    0.43 KCAL/MOL
REMARK 922        TOTAL FREE ENERGY PREDICTED BY IDOCK:    0.05 KCAL/MOL
REMARK 923 INTER-LIGAND FREE ENERGY PREDICTED BY IDOCK:    0.46 KCAL/MOL
REMARK 924 INTRA-LIGAND FREE ENERGY PREDICTED BY IDOCK:   -0.41 KCAL/MOL
REMARK 927      BINDING AFFINITY PREDICTED BY RF-SCORE:    0.00 PKD
ROOT
HETATM    1  C   UNL     1      -7.586  14.648  71.724  1.00  0.00     3.693 C  
HETATM    2  C   UNL     1      -6.513  14.932  70.697  1.00  0.00     0.074 C  
HETATM    3  O   UNL     1      -5.468  14.288  70.645  1.00  0.00    -0.116 OA 
ENDROOT
BRANCH   2   4
HETATM    4  C   UNL     1      -6.782  16.126  69.810  1.00  0.00    -0.103 C  
HETATM    5  C   UNL     1      -6.806  15.853  68.287  1.00  0.00    -0.121 C  
HETATM    6  C   UNL     1      -7.842  14.790  67.916  1.00  0.00    -0.145 A  
HETATM    7  C   UNL     1      -6.902  17.145  67.457  1.00  0.00    -0.163 C  
HETATM    8  C   UNL     1      -6.168  17.373  66.347  1.00  0.00    -0.223 C  
HETATM    9  C   UNL     1      -9.213  14.992  68.140  1.00  0.00    -0.183 A  
HETATM   10  C   UNL     1      -6.080  18.711  65.755  1.00  0.00    -0.249 A  
HETATM   11  C   UNL     1     -10.124  13.942  68.007  1.00  0.00    -0.244 A  
HETATM   12  O   UNL     1      -5.389  16.421  65.721  1.00  0.00     1.088 OA 
HETATM   13  C   UNL     1      -5.230  19.042  64.695  1.00  0.00    -0.229 A  
HETATM   14  C   UNL     1      -9.671  12.673  67.632  1.00  0.00    -0.197 A  
HETATM   15  H   UNL     1      -4.873  16.582  64.940  1.00  0.00     0.000 HD 
HETATM   16  N   UNL     1     -10.603  11.539  67.636  1.00  0.00    -0.191 N  
HETATM   17  C   UNL     1      -8.323  12.469  67.318  1.00  0.00    -0.185 A  
HETATM   18  C   UNL     1      -5.127  20.366  64.245  1.00  0.00    -0.207 A  
HETATM   19  O   UNL     1     -10.163  10.430  67.300  1.00  0.00    -0.190 OA 
HETATM   20  C   UNL     1      -5.883  21.372  64.841  1.00  0.00    -0.039 A  
HETATM   21  C   UNL     1      -7.417  13.526  67.461  1.00  0.00    -0.177 A  
HETATM   22  O   UNL     1     -11.769  11.753  67.996  1.00  0.00    -0.402 OA 
HETATM   23  C   UNL     1      -6.751  21.057  65.879  1.00  0.00    -0.067 A  
HETATM   24  C   UNL     1      -6.829  19.736  66.317  1.00  0.00    -0.225 A  
HETATM   25  O   UNL     1      -7.692  19.493  67.386  1.00  0.00    -0.242 OA 
HETATM   26  C   UNL     1      -7.773  18.246  67.976  1.00  0.00    -0.260 C  
HETATM   27  O   UNL     1      -8.549  18.089  68.911  1.00  0.00    -0.235 OA 
ENDBRANCH   2   4
TORSDOF 1
ENDMDL
MODEL      110
REMARK 921   NORMALIZED FREE ENERGY PREDICTED BY IDOCK:    2.43 KCAL/MOL
REMARK 922        TOTAL FREE ENERGY PREDICTED BY IDOCK:    2.18 KCAL/MOL
REMARK 923 INTER-LIGAND FREE ENERGY PREDICTED BY IDOCK:    2.48 KCAL/MOL
REMARK 924 INTRA-LIGAND FREE ENERGY PREDICTED BY IDOCK:   -0.30 KCAL/MOL
REMARK 927      BINDING AFFINITY PREDICTED BY RF-SCORE:    0.00 PKD
ROOT
HETATM    1  C   UNL     1     -12.211  15.663  73.145  1.00  0.00    -0.587 C  
HETATM    2  C   UNL     1     -12.593  15.428  71.700  1.00  0.00    -0.389 C  
HETATM    3  O   UNL     1     -13.341  14.514  71.361  1.00  0.00    -0.330 OA 
ENDROOT
BRANCH   2   4
HETATM    4  C   UNL     1     -11.908  16.336  70.705  1.00  0.00    -0.148 C  
HETATM    5  C   UNL     1     -10.498  15.899  70.241  1.00  0.00    -0.186 C  
HETATM    6  C   UNL     1     -10.511  14.501  69.620  1.00  0.00    -0.020 A  
HETATM    7  C   UNL     1      -9.803  16.968  69.378  1.00  0.00    -0.033 C  
HETATM    8  C   UNL     1      -8.507  17.314  69.522  1.00  0.00     0.620 C  
HETATM    9  C   UNL     1     -11.239  14.224  68.452  1.00  0.00    -0.291 A  
HETATM   10  C   UNL     1      -7.965  18.518  68.885  1.00  0.00    -0.232 A  
HETATM   11  C   UNL     1     -11.426  12.910  68.018  1.00  0.00    -0.361 A  
HETATM   12  O   UNL     1      -7.606  16.638  70.321  1.00  0.00     1.217 OA 
HETATM   13  C   UNL     1      -6.674  19.007  69.108  1.00  0.00    -0.337 A  
HETATM   14  C   UNL     1     -10.871  11.853  68.746  1.00  0.00    -0.231 A  
HETATM   15  H   UNL     1      -6.693  16.882  70.422  1.00  0.00     0.000 HD 
HETATM   16  N   UNL     1     -11.189  10.469  68.375  1.00  0.00    -0.280 N  
HETATM   17  C   UNL     1     -10.068  12.110  69.863  1.00  0.00     1.704 A  
HETATM   18  C   UNL     1      -6.258  20.219  68.539  1.00  0.00    -0.336 A  
HETATM   19  O   UNL     1     -10.680   9.560  69.046  1.00  0.00    -0.222 OA 
HETATM   20  C   UNL     1      -7.124  20.950  67.730  1.00  0.00    -0.279 A  
HETATM   21  C   UNL     1      -9.892  13.430  70.293  1.00  0.00     3.210 A  
HETATM   22  O   UNL     1     -11.967  10.292  67.426  1.00  0.00     0.498 OA 
HETATM   23  C   UNL     1      -8.402  20.466  67.477  1.00  0.00    -0.343 A  
HETATM   24  C   UNL     1      -8.797  19.265  68.062  1.00  0.00    -0.317 A  
HETATM   25  O   UNL     1     -10.105  18.853  67.798  1.00  0.00    -0.333 OA 
HETATM   26  C   UNL     1     -10.644  17.736  68.407  1.00  0.00    -0.291 C  
HETATM   27  O   UNL     1     -11.797  17.421  68.137  1.00  0.00     0.776 OA 
ENDBRANCH   2   4
TORSDOF 1
ENDMDL
MODEL      111
REMARK 921   NORMALIZED FREE ENERGY PREDICTED BY IDOCK:    2.95 KCAL/MOL
REMARK 922        TOTAL FREE ENERGY PREDICTED BY IDOCK:    2.72 KCAL/MOL
REMARK 923 INTER-LIGAND FREE ENERGY PREDICTED BY IDOCK:    2.04 KCAL/MOL
REMARK 924 INTRA-LIGAND FREE ENERGY PREDICTED BY IDOCK:    0.68 KCAL/MOL
REMARK 927      BINDING AFFINITY PREDICTED BY RF-SCORE:    0.00 PKD
ROOT
HETATM    1  C   UNL     1     -10.450  19.729  66.612  1.00  0.00    -0.615 C  
HETATM    2  C   UNL     1     -10.686  18.682  65.546  1.00  0.00     0.060 C  
HETATM    3  O   UNL     1     -10.706  18.958  64.349  1.00  0.00     1.332 OA 
ENDROOT
BRANCH   2   4
HETATM    4  C   UNL     1     -10.992  17.297  66.071  1.00  0.00     0.193 C  
HETATM    5  C   UNL     1      -9.832  16.571  66.792  1.00  0.00    -0.274 C  
HETATM    6  C   UNL     1      -9.302  17.381  67.978  1.00  0.00    -0.276 A  
HETATM    7  C   UNL     1     -10.171  15.108  67.128  1.00  0.00    -0.247 C  
HETATM    8  C   UNL     1      -9.312  14.083  66.946  1.00  0.00    -0.257 C  
HETATM    9  C   UNL     1     -10.114  17.681  69.082  1.00  0.00    -0.232 A  
HETATM   10  C   UNL     1      -9.764  12.690  67.008  1.00  0.00    -0.225 A  
HETATM   11  C   UNL     1      -9.699  18.600  70.049  1.00  0.00     1.064 A  
HETATM   12  O   UNL     1      -7.980  14.235  66.615  1.00  0.00    -0.298 OA 
HETATM   13  C   UNL     1      -8.959  11.592  66.690  1.00  0.00    -0.185 A  
HETATM   14  C   UNL     1      -8.452  19.220  69.927  1.00  0.00     0.895 A  
HETATM   15  H   UNL     1      -7.375  13.514  66.487  1.00  0.00     0.000 HD 
HETATM   16  N   UNL     1      -8.078  20.291  70.859  1.00  0.00     1.403 N  
HETATM   17  C   UNL     1      -7.589  18.870  68.883  1.00  0.00    -0.337 A  
HETATM   18  C   UNL     1      -9.488  10.294  66.678  1.00  0.00    -0.203 A  
HETATM   19  O   UNL     1      -6.966  20.818  70.716  1.00  0.00     0.245 OA 
HETATM   20  C   UNL     1     -10.826  10.077  66.996  1.00  0.00    -0.196 A  
HETATM   21  C   UNL     1      -8.017  17.954  67.915  1.00  0.00    -0.235 A  
HETATM   22  O   UNL     1      -8.908  20.619  71.720  1.00  0.00     1.186 OA 
HETATM   23  C   UNL     1     -11.634  11.154  67.339  1.00  0.00    -0.157 A  
HETATM   24  C   UNL     1     -11.089  12.436  67.334  1.00  0.00    -0.272 A  
HETATM   25  O   UNL     1     -11.964  13.477  67.651  1.00  0.00    -0.354 OA 
HETATM   26  C   UNL     1     -11.566  14.798  67.575  1.00  0.00    -0.361 C  
HETATM   27  O   UNL     1     -12.375  15.671  67.866  1.00  0.00     0.391 OA 
ENDBRANCH   2   4
TORSDOF 1
ENDMDL
MODEL      112
REMARK 921   NORMALIZED FREE ENERGY PREDICTED BY IDOCK:    4.39 KCAL/MOL
REMARK 922        TOTAL FREE ENERGY PREDICTED BY IDOCK:    4.25 KCAL/MOL
REMARK 923 INTER-LIGAND FREE ENERGY PREDICTED BY IDOCK:    4.68 KCAL/MOL
REMARK 924 INTRA-LIGAND FREE ENERGY PREDICTED BY IDOCK:   -0.43 KCAL/MOL
REMARK 927      BINDING AFFINITY PREDICTED BY RF-SCORE:    0.00 PKD
ROOT
HETATM    1  C   UNL     1      -5.918  11.648  69.153  1.00  0.00    -0.064 C  
HETATM    2  C   UNL     1      -7.421  11.479  69.202  1.00  0.00    -0.025 C  
HETATM    3  O   UNL     1      -8.021  11.243  70.248  1.00  0.00     1.010 OA 
ENDROOT
BRANCH   2   4
HETATM    4  C   UNL     1      -8.110  11.523  67.856  1.00  0.00    -0.132 C  
HETATM    5  C   UNL     1      -9.118  12.678  67.644  1.00  0.00    -0.192 C  
HETATM    6  C   UNL     1      -8.466  14.047  67.848  1.00  0.00    -0.170 A  
HETATM    7  C   UNL     1      -9.903  12.541  66.328  1.00  0.00    -0.260 C  
HETATM    8  C   UNL     1     -11.232  12.757  66.228  1.00  0.00    -0.300 C  
HETATM    9  C   UNL     1      -7.422  14.493  67.022  1.00  0.00     0.187 A  
HETATM   10  C   UNL     1     -11.982  12.346  65.037  1.00  0.00    -0.458 A  
HETATM   11  C   UNL     1      -6.688  15.636  67.346  1.00  0.00    -0.218 A  
HETATM   12  O   UNL     1     -12.009  13.297  67.232  1.00  0.00    -0.367 OA 
HETATM   13  C   UNL     1     -13.374  12.412  64.929  1.00  0.00     1.032 A  
HETATM   14  C   UNL     1      -7.003  16.358  68.501  1.00  0.00    -0.154 A  
HETATM   15  H   UNL     1     -12.944  13.449  67.161  1.00  0.00     0.000 HD 
HETATM   16  N   UNL     1      -6.142  17.470  68.920  1.00  0.00    -0.186 N  
HETATM   17  C   UNL     1      -8.095  15.984  69.292  1.00  0.00    -0.212 A  
HETATM   18  C   UNL     1     -14.031  11.909  63.797  1.00  0.00     2.120 A  
HETATM   19  O   UNL     1      -6.453  18.084  69.951  1.00  0.00    -0.136 OA 
HETATM   20  C   UNL     1     -13.301  11.345  62.754  1.00  0.00     1.960 A  
HETATM   21  C   UNL     1      -8.820  14.833  68.962  1.00  0.00    -0.136 A  
HETATM   22  O   UNL     1      -5.142  17.716  68.230  1.00  0.00    -0.140 OA 
HETATM   23  C   UNL     1     -11.915  11.295  62.833  1.00  0.00     0.804 A  
HETATM   24  C   UNL     1     -11.285  11.791  63.973  1.00  0.00    -0.385 A  
HETATM   25  O   UNL     1      -9.894  11.676  64.005  1.00  0.00    -0.259 OA 
HETATM   26  C   UNL     1      -9.169  12.034  65.126  1.00  0.00     0.219 C  
HETATM   27  O   UNL     1      -7.950  11.913  65.099  1.00  0.00     1.137 OA 
ENDBRANCH   2   4
TORSDOF 1
ENDMDL
MODEL      113
REMARK 921   NORMALIZED FREE ENERGY PREDICTED BY IDOCK:    5.44 KCAL/MOL
REMARK 922        TOTAL FREE ENERGY PREDICTED BY IDOCK:    5.36 KCAL/MOL
REMARK 923 INTER-LIGAND FREE ENERGY PREDICTED BY IDOCK:    5.08 KCAL/MOL
REMARK 924 INTRA-LIGAND FREE ENERGY PREDICTED BY IDOCK:    0.28 KCAL/MOL
REMARK 927      BINDING AFFINITY PREDICTED BY RF-SCORE:    0.00 PKD
ROOT
HETATM    1  C   UNL     1     -13.874  10.130  69.493  1.00  0.00     3.214 C  
HETATM    2  C   UNL     1     -12.897   8.987  69.664  1.00  0.00     2.518 C  
HETATM    3  O   UNL     1     -13.127   8.034  70.405  1.00  0.00     0.650 OA 
ENDROOT
BRANCH   2   4
HETATM    4  C   UNL     1     -11.584   9.158  68.935  1.00  0.00     0.736 C  
HETATM    5  C   UNL     1     -10.305   9.050  69.798  1.00  0.00    -0.219 C  
HETATM    6  C   UNL     1     -10.226   7.709  70.532  1.00  0.00    -0.201 A  
HETATM    7  C   UNL     1      -9.032   9.417  69.016  1.00  0.00    -0.141 C  
HETATM    8  C   UNL     1      -8.047  10.191  69.517  1.00  0.00    -0.170 C  
HETATM    9  C   UNL     1     -10.142   6.494  69.834  1.00  0.00    -0.202 A  
HETATM   10  C   UNL     1      -7.000  10.746  68.654  1.00  0.00    -0.070 A  
HETATM   11  C   UNL     1     -10.293   5.274  70.497  1.00  0.00    -0.336 A  
HETATM   12  O   UNL     1      -7.969  10.592  70.836  1.00  0.00     0.564 OA 
HETATM   13  C   UNL     1      -6.038  11.665  69.084  1.00  0.00    -0.067 A  
HETATM   14  C   UNL     1     -10.517   5.257  71.877  1.00  0.00    -0.219 A  
HETATM   15  H   UNL     1      -7.275  11.137  71.189  1.00  0.00     0.000 HD 
HETATM   16  N   UNL     1     -10.822   3.988  72.548  1.00  0.00    -0.007 N  
HETATM   17  C   UNL     1     -10.517   6.451  72.607  1.00  0.00    -0.234 A  
HETATM   18  C   UNL     1      -5.128  12.227  68.178  1.00  0.00    -0.061 A  
HETATM   19  O   UNL     1     -11.017   4.014  73.771  1.00  0.00    -0.236 OA 
HETATM   20  C   UNL     1      -5.161  11.868  66.833  1.00  0.00    -0.073 A  
HETATM   21  C   UNL     1     -10.371   7.669  71.933  1.00  0.00    -0.240 A  
HETATM   22  O   UNL     1     -10.888   2.968  71.847  1.00  0.00     0.491 OA 
HETATM   23  C   UNL     1      -6.095  10.937  66.394  1.00  0.00    -0.131 A  
HETATM   24  C   UNL     1      -6.996  10.400  67.310  1.00  0.00    -0.086 A  
HETATM   25  O   UNL     1      -7.931   9.499  66.796  1.00  0.00    -0.107 OA 
HETATM   26  C   UNL     1      -8.941   8.983  67.586  1.00  0.00    -0.123 C  
HETATM   27  O   UNL     1      -9.734   8.196  67.083  1.00  0.00    -0.168 OA 
ENDBRANCH   2   4
TORSDOF 1
ENDMDL
MODEL      114
REMARK 921   NORMALIZED FREE ENERGY PREDICTED BY IDOCK:    7.46 KCAL/MOL
REMARK 922        TOTAL FREE ENERGY PREDICTED BY IDOCK:    7.50 KCAL/MOL
REMARK 923 INTER-LIGAND FREE ENERGY PREDICTED BY IDOCK:    7.36 KCAL/MOL
REMARK 924 INTRA-LIGAND FREE ENERGY PREDICTED BY IDOCK:    0.14 KCAL/MOL
REMARK 927      BINDING AFFINITY PREDICTED BY RF-SCORE:    0.00 PKD
ROOT
HETATM    1  C   UNL     1     -12.442  15.379  73.107  1.00  0.00    -0.572 C  
HETATM    2  C   UNL     1     -11.993  16.009  71.807  1.00  0.00    -0.517 C  
HETATM    3  O   UNL     1     -11.857  17.223  71.680  1.00  0.00     1.005 OA 
ENDROOT
BRANCH   2   4
HETATM    4  C   UNL     1     -11.822  15.042  70.658  1.00  0.00    -0.364 C  
HETATM    5  C   UNL     1     -11.122  15.599  69.396  1.00  0.00    -0.303 C  
HETATM    6  C   UNL     1      -9.730  16.151  69.714  1.00  0.00     0.012 A  
HETATM    7  C   UNL     1     -11.155  14.611  68.217  1.00  0.00    -0.283 C  
HETATM    8  C   UNL     1     -11.434  14.974  66.947  1.00  0.00    -0.263 C  
HETATM    9  C   UNL     1      -8.707  15.324  70.204  1.00  0.00     0.567 A  
HETATM   10  C   UNL     1     -11.732  13.975  65.917  1.00  0.00    -0.373 A  
HETATM   11  C   UNL     1      -7.520  15.868  70.698  1.00  0.00     1.867 A  
HETATM   12  O   UNL     1     -11.540  16.283  66.520  1.00  0.00     0.472 OA 
HETATM   13  C   UNL     1     -12.165  14.289  64.626  1.00  0.00    -0.470 A  
HETATM   14  C   UNL     1      -7.336  17.254  70.693  1.00  0.00     3.301 A  
HETATM   15  H   UNL     1     -11.737  16.538  65.626  1.00  0.00     0.000 HD 
HETATM   16  N   UNL     1      -6.156  17.833  71.345  1.00  0.00     1.308 N  
HETATM   17  C   UNL     1      -8.304  18.092  70.129  1.00  0.00     2.443 A  
HETATM   18  C   UNL     1     -12.526  13.278  63.724  1.00  0.00    -0.339 A  
HETATM   19  O   UNL     1      -6.030  19.066  71.322  1.00  0.00     0.025 OA 
HETATM   20  C   UNL     1     -12.446  11.940  64.100  1.00  0.00    -0.358 A  
HETATM   21  C   UNL     1      -9.494  17.538  69.643  1.00  0.00     0.631 A  
HETATM   22  O   UNL     1      -5.365  17.055  71.899  1.00  0.00    -0.100 OA 
HETATM   23  C   UNL     1     -11.994  11.609  65.372  1.00  0.00     0.285 A  
HETATM   24  C   UNL     1     -11.651  12.631  66.254  1.00  0.00    -0.386 A  
HETATM   25  O   UNL     1     -11.240  12.231  67.527  1.00  0.00    -0.261 OA 
HETATM   26  C   UNL     1     -10.978  13.156  68.520  1.00  0.00    -0.263 C  
HETATM   27  O   UNL     1     -10.620  12.749  69.619  1.00  0.00     0.296 OA 
ENDBRANCH   2   4
TORSDOF 1
ENDMDL
MODEL      115
REMARK 921   NORMALIZED FREE ENERGY PREDICTED BY IDOCK:    7.89 KCAL/MOL
REMARK 922        TOTAL FREE ENERGY PREDICTED BY IDOCK:    7.95 KCAL/MOL
REMARK 923 INTER-LIGAND FREE ENERGY PREDICTED BY IDOCK:    7.48 KCAL/MOL
REMARK 924 INTRA-LIGAND FREE ENERGY PREDICTED BY IDOCK:    0.47 KCAL/MOL
REMARK 927      BINDING AFFINITY PREDICTED BY RF-SCORE:    0.00 PKD
ROOT
HETATM    1  C   UNL     1     -13.397   5.119  71.762  1.00  0.00     3.573 C  
HETATM    2  C   UNL     1     -12.344   5.847  70.955  1.00  0.00     1.082 C  
HETATM    3  O   UNL     1     -12.188   7.063  71.027  1.00  0.00    -0.361 OA 
ENDROOT
BRANCH   2   4
HETATM    4  C   UNL     1     -11.572   4.979  69.987  1.00  0.00     3.159 C  
HETATM    5  C   UNL     1     -10.694   5.725  68.955  1.00  0.00    -0.334 C  
HETATM    6  C   UNL     1      -9.672   6.640  69.632  1.00  0.00    -0.162 A  
HETATM    7  C   UNL     1     -10.093   4.780  67.899  1.00  0.00    -0.119 C  
HETATM    8  C   UNL     1     -10.053   5.065  66.580  1.00  0.00    -0.245 C  
HETATM    9  C   UNL     1      -8.667   6.126  70.468  1.00  0.00    -0.142 A  
HETATM   10  C   UNL     1      -9.737   4.034  65.588  1.00  0.00    -0.192 A  
HETATM   11  C   UNL     1      -7.883   6.975  71.252  1.00  0.00    -0.099 A  
HETATM   12  O   UNL     1     -10.371   6.296  66.042  1.00  0.00    -0.405 OA 
HETATM   13  C   UNL     1      -9.817   4.229  64.205  1.00  0.00    -0.089 A  
HETATM   14  C   UNL     1      -8.088   8.357  71.197  1.00  0.00    -0.125 A  
HETATM   15  H   UNL     1     -10.342   6.497  65.114  1.00  0.00     0.000 HD 
HETATM   16  N   UNL     1      -7.369   9.236  72.127  1.00  0.00     0.446 N  
HETATM   17  C   UNL     1      -9.022   8.898  70.307  1.00  0.00    -0.201 A  
HETATM   18  C   UNL     1      -9.595   3.168  63.317  1.00  0.00    -0.096 A  
HETATM   19  O   UNL     1      -7.579  10.455  72.049  1.00  0.00     2.748 OA 
HETATM   20  C   UNL     1      -9.278   1.901  63.800  1.00  0.00    -0.102 A  
HETATM   21  C   UNL     1      -9.808   8.038  69.530  1.00  0.00    -0.181 A  
HETATM   22  O   UNL     1      -6.609   8.704  72.950  1.00  0.00    -0.190 OA 
HETATM   23  C   UNL     1      -9.170   1.695  65.170  1.00  0.00    -0.078 A  
HETATM   24  C   UNL     1      -9.406   2.762  66.034  1.00  0.00    -0.016 A  
HETATM   25  O   UNL     1      -9.317   2.479  67.398  1.00  0.00    -0.166 OA 
HETATM   26  C   UNL     1      -9.633   3.429  68.351  1.00  0.00    -0.075 C  
HETATM   27  O   UNL     1      -9.537   3.126  69.535  1.00  0.00    -0.150 OA 
ENDBRANCH   2   4
TORSDOF 1
ENDMDL
MODEL      116
REMARK 921   NORMALIZED FREE ENERGY PREDICTED BY IDOCK:    8.22 KCAL/MOL
REMARK 922        TOTAL FREE ENERGY PREDICTED BY IDOCK:    8.30 KCAL/MOL
REMARK 923 INTER-LIGAND FREE ENERGY PREDICTED BY IDOCK:    8.53 KCAL/MOL
REMARK 924 INTRA-LIGAND FREE ENERGY PREDICTED BY IDOCK:   -0.23 KCAL/MOL
REMARK 927      BINDING AFFINITY PREDICTED BY RF-SCORE:    0.00 PKD
ROOT
HETATM    1  C   UNL     1      -5.557  12.215  72.014  1.00  0.00     0.773 C  
HETATM    2  C   UNL     1      -5.795  11.828  70.571  1.00  0.00    -0.125 C  
HETATM    3  O   UNL     1      -5.363  12.495  69.634  1.00  0.00    -0.072 OA 
ENDROOT
BRANCH   2   4
HETATM    4  C   UNL     1      -6.684  10.621  70.374  1.00  0.00    -0.017 C  
HETATM    5  C   UNL     1      -8.194  10.909  70.196  1.00  0.00     1.198 C  
HETATM    6  C   UNL     1      -8.460  11.845  69.015  1.00  0.00     0.255 A  
HETATM    7  C   UNL     1      -9.042   9.625  70.187  1.00  0.00    -0.280 C  
HETATM    8  C   UNL     1     -10.211   9.500  70.851  1.00  0.00    -0.286 C  
HETATM    9  C   UNL     1      -8.134  11.477  67.700  1.00  0.00    -0.130 A  
HETATM   10  C   UNL     1     -10.837   8.189  71.049  1.00  0.00    -0.265 A  
HETATM   11  C   UNL     1      -8.172  12.413  66.663  1.00  0.00     0.054 A  
HETATM   12  O   UNL     1     -10.875  10.546  71.460  1.00  0.00     0.492 OA 
HETATM   13  C   UNL     1     -11.967   7.975  71.845  1.00  0.00    -0.359 A  
HETATM   14  C   UNL     1      -8.554  13.731  66.931  1.00  0.00    -0.109 A  
HETATM   15  H   UNL     1     -11.697  10.457  71.927  1.00  0.00     0.000 HD 
HETATM   16  N   UNL     1      -8.453  14.746  65.876  1.00  0.00     0.875 N  
HETATM   17  C   UNL     1      -8.968  14.098  68.217  1.00  0.00    -0.188 A  
HETATM   18  C   UNL     1     -12.452   6.679  72.067  1.00  0.00    -0.288 A  
HETATM   19  O   UNL     1      -8.798  15.903  66.153  1.00  0.00    -0.326 OA 
HETATM   20  C   UNL     1     -11.821   5.582  71.486  1.00  0.00     0.565 A  
HETATM   21  C   UNL     1      -8.919  13.156  69.250  1.00  0.00     0.904 A  
HETATM   22  O   UNL     1      -8.007  14.389  64.775  1.00  0.00     6.757 OA 
HETATM   23  C   UNL     1     -10.712   5.779  70.672  1.00  0.00    -0.351 A  
HETATM   24  C   UNL     1     -10.240   7.075  70.475  1.00  0.00    -0.196 A  
HETATM   25  O   UNL     1      -9.102   7.200  69.677  1.00  0.00    -0.141 OA 
HETATM   26  C   UNL     1      -8.481   8.421  69.497  1.00  0.00    -0.124 C  
HETATM   27  O   UNL     1      -7.484   8.472  68.786  1.00  0.00    -0.088 OA 
ENDBRANCH   2   4
TORSDOF 1
ENDMDL
MODEL      117
REMARK 921   NORMALIZED FREE ENERGY PREDICTED BY IDOCK:    8.88 KCAL/MOL
REMARK 922        TOTAL FREE ENERGY PREDICTED BY IDOCK:    9.00 KCAL/MOL
REMARK 923 INTER-LIGAND FREE ENERGY PREDICTED BY IDOCK:    9.31 KCAL/MOL
REMARK 924 INTRA-LIGAND FREE ENERGY PREDICTED BY IDOCK:   -0.31 KCAL/MOL
REMARK 927      BINDING AFFINITY PREDICTED BY RF-SCORE:    0.00 PKD
ROOT
HETATM    1  C   UNL     1     -11.425  14.966  73.904  1.00  0.00     0.528 C  
HETATM    2  C   UNL     1     -12.241  14.476  72.729  1.00  0.00    -0.089 C  
HETATM    3  O   UNL     1     -13.078  13.583  72.839  1.00  0.00    -0.383 OA 
ENDROOT
BRANCH   2   4
HETATM    4  C   UNL     1     -11.879  15.098  71.399  1.00  0.00    -0.418 C  
HETATM    5  C   UNL     1     -10.671  14.473  70.661  1.00  0.00     0.456 C  
HETATM    6  C   UNL     1     -10.872  12.978  70.404  1.00  0.00     1.657 A  
HETATM    7  C   UNL     1     -10.261  15.278  69.415  1.00  0.00    -0.258 C  
HETATM    8  C   UNL     1      -8.978  15.555  69.097  1.00  0.00    -0.256 C  
HETATM    9  C   UNL     1     -11.914  12.506  69.590  1.00  0.00    -0.339 A  
HETATM   10  C   UNL     1      -8.646  16.551  68.075  1.00  0.00    -0.184 A  
HETATM   11  C   UNL     1     -12.226  11.146  69.539  1.00  0.00    -0.347 A  
HETATM   12  O   UNL     1      -7.883  15.006  69.735  1.00  0.00    -0.364 OA 
HETATM   13  C   UNL     1      -7.346  16.985  67.800  1.00  0.00    -0.172 A  
HETATM   14  C   UNL     1     -11.483  10.235  70.297  1.00  0.00    -0.317 A  
HETATM   15  H   UNL     1      -6.981  15.202  69.511  1.00  0.00     0.000 HD 
HETATM   16  N   UNL     1     -11.901   8.829  70.358  1.00  0.00    -0.038 N  
HETATM   17  C   UNL     1     -10.384  10.670  71.046  1.00  0.00     1.781 A  
HETATM   18  C   UNL     1      -7.113  18.014  66.875  1.00  0.00    -0.216 A  
HETATM   19  O   UNL     1     -11.219   8.054  71.042  1.00  0.00    -0.256 OA 
HETATM   20  C   UNL     1      -8.178  18.611  66.206  1.00  0.00    -0.258 A  
HETATM   21  C   UNL     1     -10.085  12.037  71.096  1.00  0.00     7.856 A  
HETATM   22  O   UNL     1     -12.926   8.507  69.740  1.00  0.00     2.113 OA 
HETATM   23  C   UNL     1      -9.475  18.175  66.449  1.00  0.00    -0.284 A  
HETATM   24  C   UNL     1      -9.682  17.159  67.379  1.00  0.00    -0.253 A  
HETATM   25  O   UNL     1     -11.011  16.793  67.603  1.00  0.00    -0.290 OA 
HETATM   26  C   UNL     1     -11.349  15.875  68.579  1.00  0.00    -0.374 C  
HETATM   27  O   UNL     1     -12.531  15.591  68.732  1.00  0.00     0.018 OA 
ENDBRANCH   2   4
TORSDOF 1
ENDMDL
MODEL      118
REMARK 921   NORMALIZED FREE ENERGY PREDICTED BY IDOCK:   11.25 KCAL/MOL
REMARK 922        TOTAL FREE ENERGY PREDICTED BY IDOCK:   11.51 KCAL/MOL
REMARK 923 INTER-LIGAND FREE ENERGY PREDICTED BY IDOCK:   11.39 KCAL/MOL
REMARK 924 INTRA-LIGAND FREE ENERGY PREDICTED BY IDOCK:    0.11 KCAL/MOL
REMARK 927      BINDING AFFINITY PREDICTED BY RF-SCORE:    0.00 PKD
ROOT
HETATM    1  C   UNL     1     -11.900  15.442  68.418  1.00  0.00    -0.264 C  
HETATM    2  C   UNL     1     -12.235  14.040  67.957  1.00  0.00    -0.153 C  
HETATM    3  O   UNL     1     -12.873  13.823  66.930  1.00  0.00     0.065 OA 
ENDROOT
BRANCH   2   4
HETATM    4  C   UNL     1     -11.811  12.941  68.905  1.00  0.00    -0.352 C  
HETATM    5  C   UNL     1     -11.874  11.499  68.348  1.00  0.00    -0.353 C  
HETATM    6  C   UNL     1     -11.024  11.340  67.085  1.00  0.00    -0.348 A  
HETATM    7  C   UNL     1     -11.605  10.437  69.428  1.00  0.00    -0.272 C  
HETATM    8  C   UNL     1     -12.326   9.303  69.554  1.00  0.00     1.461 C  
HETATM    9  C   UNL     1      -9.632  11.522  67.109  1.00  0.00    -0.189 A  
HETATM   10  C   UNL     1     -12.225   8.465  70.752  1.00  0.00    -0.006 A  
HETATM   11  C   UNL     1      -8.897  11.594  65.923  1.00  0.00    -0.057 A  
HETATM   12  O   UNL     1     -13.260   8.870  68.634  1.00  0.00     6.048 OA 
HETATM   13  C   UNL     1     -13.044   7.361  71.005  1.00  0.00    -0.184 A  
HETATM   14  C   UNL     1      -9.551  11.468  64.693  1.00  0.00    -0.162 A  
HETATM   15  H   UNL     1     -13.768   8.072  68.722  1.00  0.00     0.000 HD 
HETATM   16  N   UNL     1      -8.805  11.690  63.449  1.00  0.00     0.213 N  
HETATM   17  C   UNL     1     -10.922  11.198  64.647  1.00  0.00    -0.238 A  
HETATM   18  C   UNL     1     -12.956   6.665  72.219  1.00  0.00     0.081 A  
HETATM   19  O   UNL     1      -9.419  11.573  62.379  1.00  0.00    -0.122 OA 
HETATM   20  C   UNL     1     -12.038   7.058  73.190  1.00  0.00     0.843 A  
HETATM   21  C   UNL     1     -11.651  11.134  65.840  1.00  0.00     0.482 A  
HETATM   22  O   UNL     1      -7.609  12.004  63.543  1.00  0.00     2.501 OA 
HETATM   23  C   UNL     1     -11.198   8.138  72.944  1.00  0.00    -0.312 A  
HETATM   24  C   UNL     1     -11.312   8.821  71.735  1.00  0.00    -0.339 A  
HETATM   25  O   UNL     1     -10.465   9.918  71.567  1.00  0.00     0.059 OA 
HETATM   26  C   UNL     1     -10.560  10.736  70.458  1.00  0.00     0.614 C  
HETATM   27  O   UNL     1      -9.791  11.685  70.362  1.00  0.00     2.381 OA 
ENDBRANCH   2   4
TORSDOF 1
ENDMDL
MODEL      119
REMARK 921   NORMALIZED FREE ENERGY PREDICTED BY IDOCK:   15.09 KCAL/MOL
REMARK 922        TOTAL FREE ENERGY PREDICTED BY IDOCK:   15.57 KCAL/MOL
REMARK 923 INTER-LIGAND FREE ENERGY PREDICTED BY IDOCK:   15.94 KCAL/MOL
REMARK 924 INTRA-LIGAND FREE ENERGY PREDICTED BY IDOCK:   -0.38 KCAL/MOL
REMARK 927      BINDING AFFINITY PREDICTED BY RF-SCORE:    0.00 PKD
ROOT
HETATM    1  C   UNL     1      -8.349  14.715  72.484  1.00  0.00     7.436 C  
HETATM    2  C   UNL     1      -7.372  15.119  71.401  1.00  0.00     2.470 C  
HETATM    3  O   UNL     1      -6.259  14.611  71.300  1.00  0.00    -0.014 OA 
ENDROOT
BRANCH   2   4
HETATM    4  C   UNL     1      -7.834  16.260  70.523  1.00  0.00     2.466 C  
HETATM    5  C   UNL     1      -8.279  15.880  69.091  1.00  0.00    -0.240 C  
HETATM    6  C   UNL     1      -9.411  14.851  69.101  1.00  0.00    -0.158 A  
HETATM    7  C   UNL     1      -8.555  17.113  68.212  1.00  0.00    -0.241 C  
HETATM    8  C   UNL     1      -8.144  17.222  66.931  1.00  0.00    -0.228 C  
HETATM    9  C   UNL     1     -10.663  15.142  69.667  1.00  0.00    -0.289 A  
HETATM   10  C   UNL     1      -8.176  18.507  66.227  1.00  0.00    -0.248 A  
HETATM   11  C   UNL     1     -11.609  14.135  69.871  1.00  0.00    -0.329 A  
HETATM   12  O   UNL     1      -7.595  16.187  66.201  1.00  0.00    -0.063 OA 
HETATM   13  C   UNL     1      -7.636  18.716  64.955  1.00  0.00     2.014 A  
HETATM   14  C   UNL     1     -11.316  12.820  69.495  1.00  0.00    -0.154 A  
HETATM   15  H   UNL     1      -7.305  16.263  65.299  1.00  0.00     0.000 HD 
HETATM   16  N   UNL     1     -12.248  11.741  69.843  1.00  0.00    -0.256 N  
HETATM   17  C   UNL     1     -10.112  12.522  68.849  1.00  0.00     0.034 A  
HETATM   18  C   UNL     1      -7.616  19.997  64.385  1.00  0.00     1.648 A  
HETATM   19  O   UNL     1     -11.952  10.589  69.495  1.00  0.00    -0.259 OA 
HETATM   20  C   UNL     1      -8.148  21.082  65.076  1.00  0.00     1.613 A  
HETATM   21  C   UNL     1      -9.167  13.537  68.655  1.00  0.00    -0.022 A  
HETATM   22  O   UNL     1     -13.265  12.043  70.484  1.00  0.00     0.317 OA 
HETATM   23  C   UNL     1      -8.712  20.888  66.331  1.00  0.00     0.466 A  
HETATM   24  C   UNL     1      -8.710  19.609  66.882  1.00  0.00    -0.324 A  
HETATM   25  O   UNL     1      -9.258  19.489  68.161  1.00  0.00    -0.327 OA 
HETATM   26  C   UNL     1      -9.216  18.294  68.852  1.00  0.00    -0.165 C  
HETATM   27  O   UNL     1      -9.713  18.246  69.971  1.00  0.00     0.798 OA 
ENDBRANCH   2   4
TORSDOF 1
ENDMDL
MODEL      120
REMARK 921   NORMALIZED FREE ENERGY PREDICTED BY IDOCK:   15.94 KCAL/MOL
REMARK 922        TOTAL FREE ENERGY PREDICTED BY IDOCK:   16.47 KCAL/MOL
REMARK 923 INTER-LIGAND FREE ENERGY PREDICTED BY IDOCK:   14.44 KCAL/MOL
REMARK 924 INTRA-LIGAND FREE ENERGY PREDICTED BY IDOCK:    2.03 KCAL/MOL
REMARK 927      BINDING AFFINITY PREDICTED BY RF-SCORE:    0.00 PKD
ROOT
HETATM    1  C   UNL     1      -9.293  16.395  69.505  1.00  0.00     0.033 C  
HETATM    2  C   UNL     1      -9.427  15.794  70.888  1.00  0.00     2.065 C  
HETATM    3  O   UNL     1     -10.170  16.274  71.741  1.00  0.00     2.240 OA 
ENDROOT
BRANCH   2   4
HETATM    4  C   UNL     1      -8.509  14.626  71.166  1.00  0.00     3.562 C  
HETATM    5  C   UNL     1      -8.161  13.729  69.955  1.00  0.00     1.584 C  
HETATM    6  C   UNL     1      -7.519  14.529  68.819  1.00  0.00    -0.132 A  
HETATM    7  C   UNL     1      -7.378  12.468  70.360  1.00  0.00     2.581 C  
HETATM    8  C   UNL     1      -7.638  11.239  69.867  1.00  0.00     0.642 C  
HETATM    9  C   UNL     1      -6.289  15.184  68.987  1.00  0.00    -0.100 A  
HETATM   10  C   UNL     1      -7.068  10.036  70.481  1.00  0.00    -0.080 A  
HETATM   11  C   UNL     1      -5.820  16.087  68.030  1.00  0.00    -0.135 A  
HETATM   12  O   UNL     1      -8.500  10.989  68.818  1.00  0.00    -0.148 OA 
HETATM   13  C   UNL     1      -7.408   8.732  70.109  1.00  0.00    -0.055 A  
HETATM   14  C   UNL     1      -6.577  16.335  66.881  1.00  0.00    -0.088 A  
HETATM   15  H   UNL     1      -8.683  10.123  68.472  1.00  0.00     0.000 HD 
HETATM   16  N   UNL     1      -6.159  17.390  65.949  1.00  0.00    -0.085 N  
HETATM   17  C   UNL     1      -7.762  15.629  66.650  1.00  0.00    -0.068 A  
HETATM   18  C   UNL     1      -6.896   7.630  70.808  1.00  0.00    -0.043 A  
HETATM   19  O   UNL     1      -6.857  17.581  64.944  1.00  0.00     0.865 OA 
HETATM   20  C   UNL     1      -6.027   7.818  71.879  1.00  0.00    -0.035 A  
HETATM   21  C   UNL     1      -8.227  14.730  67.618  1.00  0.00    -0.187 A  
HETATM   22  O   UNL     1      -5.144  18.041  66.236  1.00  0.00    -0.136 OA 
HETATM   23  C   UNL     1      -5.658   9.107  72.247  1.00  0.00    -0.071 A  
HETATM   24  C   UNL     1      -6.188  10.187  71.545  1.00  0.00     0.372 A  
HETATM   25  O   UNL     1      -5.807  11.455  71.988  1.00  0.00     0.205 OA 
HETATM   26  C   UNL     1      -6.350  12.601  71.440  1.00  0.00     1.996 C  
HETATM   27  O   UNL     1      -5.977  13.688  71.867  1.00  0.00    -0.345 OA 
ENDBRANCH   2   4
TORSDOF 1
ENDMDL
MODEL      121
REMARK 921   NORMALIZED FREE ENERGY PREDICTED BY IDOCK:   19.65 KCAL/MOL
REMARK 922        TOTAL FREE ENERGY PREDICTED BY IDOCK:   20.40 KCAL/MOL
REMARK 923 INTER-LIGAND FREE ENERGY PREDICTED BY IDOCK:   19.94 KCAL/MOL
REMARK 924 INTRA-LIGAND FREE ENERGY PREDICTED BY IDOCK:    0.46 KCAL/MOL
REMARK 927      BINDING AFFINITY PREDICTED BY RF-SCORE:    0.00 PKD
ROOT
HETATM    1  C   UNL     1      -7.205  19.531  68.618  1.00  0.00    -0.374 C  
HETATM    2  C   UNL     1      -6.906  18.054  68.748  1.00  0.00    -0.259 C  
HETATM    3  O   UNL     1      -5.914  17.635  69.340  1.00  0.00    -0.211 OA 
ENDROOT
BRANCH   2   4
HETATM    4  C   UNL     1      -7.864  17.144  68.012  1.00  0.00    -0.195 C  
HETATM    5  C   UNL     1      -7.445  15.659  67.901  1.00  0.00    -0.147 C  
HETATM    6  C   UNL     1      -7.212  15.029  69.276  1.00  0.00    -0.179 A  
HETATM    7  C   UNL     1      -8.379  14.849  66.985  1.00  0.00    -0.246 C  
HETATM    8  C   UNL     1      -7.938  13.958  66.073  1.00  0.00     2.428 C  
HETATM    9  C   UNL     1      -8.251  14.911  70.214  1.00  0.00     0.849 A  
HETATM   10  C   UNL     1      -8.829  13.424  65.038  1.00  0.00     2.242 A  
HETATM   11  C   UNL     1      -7.985  14.542  71.535  1.00  0.00     4.196 A  
HETATM   12  O   UNL     1      -6.629  13.530  65.973  1.00  0.00     2.855 OA 
HETATM   13  C   UNL     1      -8.403  12.612  63.983  1.00  0.00     4.246 A  
HETATM   14  C   UNL     1      -6.672  14.273  71.930  1.00  0.00     1.828 A  
HETATM   15  H   UNL     1      -6.319  12.903  65.331  1.00  0.00     0.000 HD 
HETATM   16  N   UNL     1      -6.374  14.031  73.347  1.00  0.00     0.876 N  
HETATM   17  C   UNL     1      -5.633  14.298  70.993  1.00  0.00    -0.190 A  
HETATM   18  C   UNL     1      -9.294  12.220  62.974  1.00  0.00     0.991 A  
HETATM   19  O   UNL     1      -5.197  13.798  73.658  1.00  0.00    -0.336 OA 
HETATM   20  C   UNL     1     -10.625  12.625  63.015  1.00  0.00     0.689 A  
HETATM   21  C   UNL     1      -5.908  14.675  69.673  1.00  0.00    -0.104 A  
HETATM   22  O   UNL     1      -7.315  14.095  74.152  1.00  0.00     2.387 OA 
HETATM   23  C   UNL     1     -11.072  13.412  64.070  1.00  0.00    -0.282 A  
HETATM   24  C   UNL     1     -10.165  13.799  65.055  1.00  0.00    -0.346 A  
HETATM   25  O   UNL     1     -10.670  14.619  66.066  1.00  0.00    -0.296 OA 
HETATM   26  C   UNL     1      -9.844  15.152  67.037  1.00  0.00    -0.230 C  
HETATM   27  O   UNL     1     -10.341  15.866  67.901  1.00  0.00    -0.256 OA 
ENDBRANCH   2   4
TORSDOF 1
ENDMDL
MODEL      122
REMARK 921   NORMALIZED FREE ENERGY PREDICTED BY IDOCK:   20.00 KCAL/MOL
REMARK 922        TOTAL FREE ENERGY PREDICTED BY IDOCK:   20.77 KCAL/MOL
REMARK 923 INTER-LIGAND FREE ENERGY PREDICTED BY IDOCK:   18.94 KCAL/MOL
REMARK 924 INTRA-LIGAND FREE ENERGY PREDICTED BY IDOCK:    1.82 KCAL/MOL
REMARK 927      BINDING AFFINITY PREDICTED BY RF-SCORE:    0.00 PKD
ROOT
HETATM    1  C   UNL     1     -10.938  19.828  66.660  1.00  0.00    -0.284 C  
HETATM    2  C   UNL     1     -11.514  19.373  65.336  1.00  0.00     1.484 C  
HETATM    3  O   UNL     1     -11.867  20.167  64.468  1.00  0.00     1.481 OA 
ENDROOT
BRANCH   2   4
HETATM    4  C   UNL     1     -11.712  17.880  65.209  1.00  0.00     2.893 C  
HETATM    5  C   UNL     1     -10.571  16.992  65.759  1.00  0.00    -0.218 C  
HETATM    6  C   UNL     1     -10.295  17.271  67.238  1.00  0.00    -0.331 A  
HETATM    7  C   UNL     1     -10.769  15.503  65.424  1.00  0.00    -0.422 C  
HETATM    8  C   UNL     1      -9.775  14.698  64.991  1.00  0.00     0.162 C  
HETATM    9  C   UNL     1     -11.269  17.040  68.223  1.00  0.00    -0.038 A  
HETATM   10  C   UNL     1     -10.058  13.379  64.419  1.00  0.00    -0.128 A  
HETATM   11  C   UNL     1     -11.092  17.501  69.529  1.00  0.00     0.910 A  
HETATM   12  O   UNL     1      -8.441  15.054  64.971  1.00  0.00     2.417 OA 
HETATM   13  C   UNL     1      -9.092  12.561  63.825  1.00  0.00     1.407 A  
HETATM   14  C   UNL     1      -9.924  18.191  69.869  1.00  0.00     0.825 A  
HETATM   15  H   UNL     1      -7.742  14.487  64.666  1.00  0.00     0.000 HD 
HETATM   16  N   UNL     1      -9.802  18.803  71.198  1.00  0.00     3.162 N  
HETATM   17  C   UNL     1      -8.902  18.356  68.928  1.00  0.00    -0.162 A  
HETATM   18  C   UNL     1      -9.454  11.354  63.210  1.00  0.00    -0.330 A  
HETATM   19  O   UNL     1      -8.753  19.408  71.461  1.00  0.00     3.593 OA 
HETATM   20  C   UNL     1     -10.785  10.945  63.193  1.00  0.00     0.177 A  
HETATM   21  C   UNL     1      -9.092  17.896  67.620  1.00  0.00    -0.250 A  
HETATM   22  O   UNL     1     -10.766  18.696  71.971  1.00  0.00     2.136 OA 
HETATM   23  C   UNL     1     -11.755  11.734  63.800  1.00  0.00    -0.499 A  
HETATM   24  C   UNL     1     -11.373  12.934  64.395  1.00  0.00    -0.358 A  
HETATM   25  O   UNL     1     -12.400  13.697  64.954  1.00  0.00    -0.394 OA 
HETATM   26  C   UNL     1     -12.160  14.953  65.477  1.00  0.00    -0.036 C  
HETATM   27  O   UNL     1     -13.100  15.578  65.955  1.00  0.00     1.747 OA 
ENDBRANCH   2   4
TORSDOF 1
ENDMDL
MODEL      123
REMARK 921   NORMALIZED FREE ENERGY PREDICTED BY IDOCK:   20.02 KCAL/MOL
REMARK 922        TOTAL FREE ENERGY PREDICTED BY IDOCK:   20.79 KCAL/MOL
REMARK 923 INTER-LIGAND FREE ENERGY PREDICTED BY IDOCK:   20.48 KCAL/MOL
REMARK 924 INTRA-LIGAND FREE ENERGY PREDICTED BY IDOCK:    0.31 KCAL/MOL
REMARK 927      BINDING AFFINITY PREDICTED BY RF-SCORE:    0.00 PKD
ROOT
HETATM    1  C   UNL     1      -8.467  10.572  70.044  1.00  0.00     0.397 C  
HETATM    2  C   UNL     1      -8.484  11.708  69.045  1.00  0.00     0.168 C  
HETATM    3  O   UNL     1      -8.465  11.515  67.832  1.00  0.00    -0.131 OA 
ENDROOT
BRANCH   2   4
HETATM    4  C   UNL     1      -8.426  13.091  69.654  1.00  0.00     1.801 C  
HETATM    5  C   UNL     1      -8.460  14.276  68.659  1.00  0.00    -0.142 C  
HETATM    6  C   UNL     1      -9.707  14.239  67.773  1.00  0.00    -0.222 A  
HETATM    7  C   UNL     1      -8.212  15.630  69.346  1.00  0.00    -0.236 C  
HETATM    8  C   UNL     1      -7.406  16.586  68.838  1.00  0.00    -0.219 C  
HETATM    9  C   UNL     1     -10.997  14.352  68.317  1.00  0.00    -0.259 A  
HETATM   10  C   UNL     1      -6.977  17.730  69.648  1.00  0.00     0.148 A  
HETATM   11  C   UNL     1     -12.128  14.098  67.538  1.00  0.00    -0.363 A  
HETATM   12  O   UNL     1      -6.856  16.548  67.572  1.00  0.00    -0.123 OA 
HETATM   13  C   UNL     1      -6.035  18.675  69.231  1.00  0.00    -0.251 A  
HETATM   14  C   UNL     1     -11.980  13.739  66.195  1.00  0.00    -0.418 A  
HETATM   15  H   UNL     1      -6.289  17.221  67.215  1.00  0.00     0.000 HD 
HETATM   16  N   UNL     1     -13.156  13.329  65.418  1.00  0.00    -0.128 N  
HETATM   17  C   UNL     1     -10.710  13.707  65.609  1.00  0.00    -0.283 A  
HETATM   18  C   UNL     1      -5.601  19.687  70.098  1.00  0.00    -0.277 A  
HETATM   19  O   UNL     1     -12.984  13.017  64.232  1.00  0.00    -0.666 OA 
HETATM   20  C   UNL     1      -6.113  19.773  71.390  1.00  0.00    -0.110 A  
HETATM   21  C   UNL     1      -9.582  13.957  66.399  1.00  0.00    -0.292 A  
HETATM   22  O   UNL     1     -14.249  13.300  66.002  1.00  0.00     3.045 OA 
HETATM   23  C   UNL     1      -7.069  18.858  71.813  1.00  0.00     3.869 A  
HETATM   24  C   UNL     1      -7.477  17.854  70.938  1.00  0.00     4.553 A  
HETATM   25  O   UNL     1      -8.412  16.945  71.437  1.00  0.00     7.030 OA 
HETATM   26  C   UNL     1      -8.812  15.847  70.700  1.00  0.00     2.278 C  
HETATM   27  O   UNL     1      -9.635  15.082  71.188  1.00  0.00     1.312 OA 
ENDBRANCH   2   4
TORSDOF 1
ENDMDL
MODEL      124
REMARK 921   NORMALIZED FREE ENERGY PREDICTED BY IDOCK:   20.07 KCAL/MOL
REMARK 922        TOTAL FREE ENERGY PREDICTED BY IDOCK:   20.84 KCAL/MOL
REMARK 923 INTER-LIGAND FREE ENERGY PREDICTED BY IDOCK:   21.10 KCAL/MOL
REMARK 924 INTRA-LIGAND FREE ENERGY PREDICTED BY IDOCK:   -0.26 KCAL/MOL
REMARK 927      BINDING AFFINITY PREDICTED BY RF-SCORE:    0.00 PKD
ROOT
HETATM    1  C   UNL     1      -5.635  12.221  72.229  1.00  0.00     0.957 C  
HETATM    2  C   UNL     1      -6.007  12.290  70.764  1.00  0.00     0.149 C  
HETATM    3  O   UNL     1      -5.287  12.835  69.931  1.00  0.00    -0.082 OA 
ENDROOT
BRANCH   2   4
HETATM    4  C   UNL     1      -7.369  11.729  70.426  1.00  0.00     2.159 C  
HETATM    5  C   UNL     1      -8.553  12.722  70.500  1.00  0.00     6.419 C  
HETATM    6  C   UNL     1      -8.340  13.931  69.586  1.00  0.00     0.988 A  
HETATM    7  C   UNL     1      -9.916  12.029  70.322  1.00  0.00     3.191 C  
HETATM    8  C   UNL     1     -10.997  12.306  71.082  1.00  0.00     3.938 C  
HETATM    9  C   UNL     1      -8.238  13.789  68.193  1.00  0.00    -0.160 A  
HETATM   10  C   UNL     1     -12.177  11.436  71.073  1.00  0.00    -0.391 A  
HETATM   11  C   UNL     1      -7.825  14.856  67.392  1.00  0.00    -0.224 A  
HETATM   12  O   UNL     1     -11.070  13.355  71.976  1.00  0.00     2.978 OA 
HETATM   13  C   UNL     1     -13.266  11.587  71.936  1.00  0.00    -0.479 A  
HETATM   14  C   UNL     1      -7.521  16.088  67.979  1.00  0.00    -0.126 A  
HETATM   15  H   UNL     1     -11.831  13.550  72.511  1.00  0.00     0.000 HD 
HETATM   16  N   UNL     1      -6.948  17.162  67.159  1.00  0.00    -0.164 N  
HETATM   17  C   UNL     1      -7.700  16.278  69.353  1.00  0.00    -0.108 A  
HETATM   18  C   UNL     1     -14.316  10.658  71.936  1.00  0.00     1.146 A  
HETATM   19  O   UNL     1      -6.690  18.238  67.716  1.00  0.00    -0.200 OA 
HETATM   20  C   UNL     1     -14.295   9.574  71.062  1.00  0.00     0.403 A  
HETATM   21  C   UNL     1      -8.108  15.201  70.149  1.00  0.00     0.501 A  
HETATM   22  O   UNL     1      -6.735  16.920  65.961  1.00  0.00    -0.077 OA 
HETATM   23  C   UNL     1     -13.233   9.423  70.179  1.00  0.00     1.030 A  
HETATM   24  C   UNL     1     -12.195  10.352  70.206  1.00  0.00    -0.269 A  
HETATM   25  O   UNL     1     -11.142  10.122  69.319  1.00  0.00    -0.225 OA 
HETATM   26  C   UNL     1     -10.009  10.914  69.328  1.00  0.00    -0.113 C  
HETATM   27  O   UNL     1      -9.115  10.666  68.528  1.00  0.00    -0.144 OA 
ENDBRANCH   2   4
TORSDOF 1
ENDMDL
MODEL      125
REMARK 921   NORMALIZED FREE ENERGY PREDICTED BY IDOCK:   21.43 KCAL/MOL
REMARK 922        TOTAL FREE ENERGY PREDICTED BY IDOCK:   22.28 KCAL/MOL
REMARK 923 INTER-LIGAND FREE ENERGY PREDICTED BY IDOCK:   22.62 KCAL/MOL
REMARK 924 INTRA-LIGAND FREE ENERGY PREDICTED BY IDOCK:   -0.34 KCAL/MOL
REMARK 927      BINDING AFFINITY PREDICTED BY RF-SCORE:    0.00 PKD
ROOT
HETATM    1  C   UNL     1      -9.823  13.759  64.371  1.00  0.00     0.622 C  
HETATM    2  C   UNL     1     -10.072  14.679  65.546  1.00  0.00    -0.377 C  
HETATM    3  O   UNL     1     -11.046  15.426  65.598  1.00  0.00    -0.322 OA 
ENDROOT
BRANCH   2   4
HETATM    4  C   UNL     1      -8.985  14.677  66.597  1.00  0.00    -0.267 C  
HETATM    5  C   UNL     1      -9.279  13.867  67.881  1.00  0.00    -0.198 C  
HETATM    6  C   UNL     1      -9.589  12.401  67.571  1.00  0.00    -0.185 A  
HETATM    7  C   UNL     1      -8.206  14.070  68.965  1.00  0.00     0.116 C  
HETATM    8  C   UNL     1      -8.493  14.257  70.271  1.00  0.00     1.879 C  
HETATM    9  C   UNL     1      -8.635  11.560  66.975  1.00  0.00    -0.161 A  
HETATM   10  C   UNL     1      -7.473  14.724  71.215  1.00  0.00     2.250 A  
HETATM   11  C   UNL     1      -8.992  10.297  66.495  1.00  0.00    -0.161 A  
HETATM   12  O   UNL     1      -9.751  14.108  70.819  1.00  0.00     1.761 OA 
HETATM   13  C   UNL     1      -7.738  15.071  72.543  1.00  0.00     6.095 A  
HETATM   14  C   UNL     1     -10.313   9.855  66.620  1.00  0.00    -0.205 A  
HETATM   15  H   UNL     1      -9.952  14.240  71.738  1.00  0.00     0.000 HD 
HETATM   16  N   UNL     1     -10.720   8.596  65.986  1.00  0.00     1.009 N  
HETATM   17  C   UNL     1     -11.260  10.639  67.288  1.00  0.00    -0.237 A  
HETATM   18  C   UNL     1      -6.731  15.604  73.360  1.00  0.00     5.219 A  
HETATM   19  O   UNL     1     -11.900   8.239  66.117  1.00  0.00     4.789 OA 
HETATM   20  C   UNL     1      -5.443  15.784  72.861  1.00  0.00     1.160 A  
HETATM   21  C   UNL     1     -10.894  11.906  67.760  1.00  0.00    -0.254 A  
HETATM   22  O   UNL     1      -9.865   7.974  65.339  1.00  0.00     0.666 OA 
HETATM   23  C   UNL     1      -5.156  15.421  71.551  1.00  0.00    -0.119 A  
HETATM   24  C   UNL     1      -6.176  14.904  70.755  1.00  0.00     0.027 A  
HETATM   25  O   UNL     1      -5.830  14.594  69.438  1.00  0.00    -0.093 OA 
HETATM   26  C   UNL     1      -6.779  14.175  68.526  1.00  0.00    -0.101 C  
HETATM   27  O   UNL     1      -6.419  13.916  67.383  1.00  0.00    -0.299 OA 
ENDBRANCH   2   4
TORSDOF 1
ENDMDL
MODEL      126
REMARK 921   NORMALIZED FREE ENERGY PREDICTED BY IDOCK:   21.61 KCAL/MOL
REMARK 922        TOTAL FREE ENERGY PREDICTED BY IDOCK:   22.47 KCAL/MOL
REMARK 923 INTER-LIGAND FREE ENERGY PREDICTED BY IDOCK:   22.66 KCAL/MOL
REMARK 924 INTRA-LIGAND FREE ENERGY PREDICTED BY IDOCK:   -0.19 KCAL/MOL
REMARK 927      BINDING AFFINITY PREDICTED BY RF-SCORE:    0.00 PKD
ROOT
HETATM    1  C   UNL     1     -12.474  19.459  67.948  1.00  0.00     4.685 C  
HETATM    2  C   UNL     1     -13.232  18.183  67.651  1.00  0.00     8.281 C  
HETATM    3  O   UNL     1     -14.151  18.141  66.838  1.00  0.00     9.776 OA 
ENDROOT
BRANCH   2   4
HETATM    4  C   UNL     1     -12.837  16.997  68.502  1.00  0.00     4.290 C  
HETATM    5  C   UNL     1     -11.754  16.064  67.909  1.00  0.00     0.069 C  
HETATM    6  C   UNL     1     -10.464  16.821  67.589  1.00  0.00    -0.328 A  
HETATM    7  C   UNL     1     -11.547  14.792  68.750  1.00  0.00    -0.347 C  
HETATM    8  C   UNL     1     -11.414  13.559  68.215  1.00  0.00    -0.310 C  
HETATM    9  C   UNL     1      -9.710  17.446  68.595  1.00  0.00    -0.308 A  
HETATM   10  C   UNL     1     -11.504  12.355  69.046  1.00  0.00    -0.352 A  
HETATM   11  C   UNL     1      -8.665  18.315  68.274  1.00  0.00    -0.302 A  
HETATM   12  O   UNL     1     -11.265  13.310  66.866  1.00  0.00    -0.289 OA 
HETATM   13  C   UNL     1     -11.517  11.053  68.537  1.00  0.00    -0.379 A  
HETATM   14  C   UNL     1      -8.352  18.558  66.933  1.00  0.00    -0.263 A  
HETATM   15  H   UNL     1     -11.171  12.442  66.490  1.00  0.00     0.000 HD 
HETATM   16  N   UNL     1      -7.355  19.581  66.594  1.00  0.00    -0.231 N  
HETATM   17  C   UNL     1      -9.030  17.879  65.915  1.00  0.00     0.145 A  
HETATM   18  C   UNL     1     -11.704   9.953  69.386  1.00  0.00     0.073 A  
HETATM   19  O   UNL     1      -7.106  19.769  65.395  1.00  0.00    -0.305 OA 
HETATM   20  C   UNL     1     -11.868  10.141  70.756  1.00  0.00    -0.443 A  
HETATM   21  C   UNL     1     -10.081  17.016  66.247  1.00  0.00    -0.330 A  
HETATM   22  O   UNL     1      -6.836  20.211  67.527  1.00  0.00    -0.225 OA 
HETATM   23  C   UNL     1     -11.833  11.427  71.282  1.00  0.00     0.374 A  
HETATM   24  C   UNL     1     -11.657  12.506  70.418  1.00  0.00     0.168 A  
HETATM   25  O   UNL     1     -11.668  13.772  71.006  1.00  0.00    -0.127 OA 
HETATM   26  C   UNL     1     -11.609  14.920  70.240  1.00  0.00    -0.286 C  
HETATM   27  O   UNL     1     -11.622  16.006  70.809  1.00  0.00    -0.372 OA 
ENDBRANCH   2   4
TORSDOF 1
ENDMDL
MODEL      127
REMARK 921   NORMALIZED FREE ENERGY PREDICTED BY IDOCK:   22.21 KCAL/MOL
REMARK 922        TOTAL FREE ENERGY PREDICTED BY IDOCK:   23.11 KCAL/MOL
REMARK 923 INTER-LIGAND FREE ENERGY PREDICTED BY IDOCK:   21.25 KCAL/MOL
REMARK 924 INTRA-LIGAND FREE ENERGY PREDICTED BY IDOCK:    1.86 KCAL/MOL
REMARK 927      BINDING AFFINITY PREDICTED BY RF-SCORE:    0.00 PKD
ROOT
HETATM    1  C   UNL     1     -12.424  16.570  71.404  1.00  0.00     0.897 C  
HETATM    2  C   UNL     1     -12.066  15.780  72.644  1.00  0.00    -0.486 C  
HETATM    3  O   UNL     1     -11.886  16.316  73.734  1.00  0.00    -0.311 OA 
ENDROOT
BRANCH   2   4
HETATM    4  C   UNL     1     -11.851  14.301  72.414  1.00  0.00     0.378 C  
HETATM    5  C   UNL     1     -12.313  13.749  71.045  1.00  0.00    -0.452 C  
HETATM    6  C   UNL     1     -11.635  14.475  69.881  1.00  0.00    -0.340 A  
HETATM    7  C   UNL     1     -12.227  12.215  70.968  1.00  0.00    -0.227 C  
HETATM    8  C   UNL     1     -13.194  11.441  70.430  1.00  0.00     0.526 C  
HETATM    9  C   UNL     1     -10.244  14.427  69.696  1.00  0.00     0.172 A  
HETATM   10  C   UNL     1     -13.205   9.989  70.629  1.00  0.00    -0.174 A  
HETATM   11  C   UNL     1      -9.613  15.264  68.773  1.00  0.00    -0.214 A  
HETATM   12  O   UNL     1     -14.278  11.928  69.727  1.00  0.00     5.298 OA 
HETATM   13  C   UNL     1     -14.248   9.152  70.221  1.00  0.00     1.362 A  
HETATM   14  C   UNL     1     -10.375  16.154  68.009  1.00  0.00    -0.271 A  
HETATM   15  H   UNL     1     -14.958  11.383  69.349  1.00  0.00     0.000 HD 
HETATM   16  N   UNL     1      -9.702  17.134  67.148  1.00  0.00    -0.254 N  
HETATM   17  C   UNL     1     -11.771  16.157  68.112  1.00  0.00    -0.013 A  
HETATM   18  C   UNL     1     -14.236   7.785  70.533  1.00  0.00     1.112 A  
HETATM   19  O   UNL     1     -10.412  17.907  66.489  1.00  0.00    -0.355 OA 
HETATM   20  C   UNL     1     -13.173   7.237  71.246  1.00  0.00    -0.352 A  
HETATM   21  C   UNL     1     -12.393  15.319  69.045  1.00  0.00    -0.049 A  
HETATM   22  O   UNL     1      -8.462  17.144  67.149  1.00  0.00    -0.191 OA 
HETATM   23  C   UNL     1     -12.116   8.049  71.638  1.00  0.00    -0.339 A  
HETATM   24  C   UNL     1     -12.155   9.406  71.326  1.00  0.00    -0.345 A  
HETATM   25  O   UNL     1     -11.080  10.173  71.780  1.00  0.00     0.257 OA 
HETATM   26  C   UNL     1     -11.061  11.545  71.625  1.00  0.00     4.325 C  
HETATM   27  O   UNL     1     -10.091  12.168  72.043  1.00  0.00    11.292 OA 
ENDBRANCH   2   4
TORSDOF 1
ENDMDL
MODEL      128
REMARK 921   NORMALIZED FREE ENERGY PREDICTED BY IDOCK:   29.48 KCAL/MOL
REMARK 922        TOTAL FREE ENERGY PREDICTED BY IDOCK:   30.80 KCAL/MOL
REMARK 923 INTER-LIGAND FREE ENERGY PREDICTED BY IDOCK:   30.71 KCAL/MOL
REMARK 924 INTRA-LIGAND FREE ENERGY PREDICTED BY IDOCK:    0.09 KCAL/MOL
REMARK 927      BINDING AFFINITY PREDICTED BY RF-SCORE:    0.00 PKD
ROOT
HETATM    1  C   UNL     1      -8.234  14.342  63.369  1.00  0.00    16.238 C  
HETATM    2  C   UNL     1      -8.603  13.201  64.291  1.00  0.00     4.701 C  
HETATM    3  O   UNL     1      -8.094  12.087  64.193  1.00  0.00     1.976 OA 
ENDROOT
BRANCH   2   4
HETATM    4  C   UNL     1      -9.712  13.510  65.272  1.00  0.00    -0.006 C  
HETATM    5  C   UNL     1      -9.293  14.253  66.562  1.00  0.00    -0.292 C  
HETATM    6  C   UNL     1      -8.598  15.582  66.254  1.00  0.00    -0.208 A  
HETATM    7  C   UNL     1     -10.442  14.362  67.580  1.00  0.00    -0.245 C  
HETATM    8  C   UNL     1     -10.288  14.145  68.903  1.00  0.00    -0.199 C  
HETATM    9  C   UNL     1      -9.267  16.622  65.590  1.00  0.00     0.160 A  
HETATM   10  C   UNL     1     -11.445  13.981  69.788  1.00  0.00    -0.293 A  
HETATM   11  C   UNL     1      -8.570  17.737  65.118  1.00  0.00     2.627 A  
HETATM   12  O   UNL     1      -9.067  13.980  69.527  1.00  0.00    -0.104 OA 
HETATM   13  C   UNL     1     -11.355  13.614  71.134  1.00  0.00     1.313 A  
HETATM   14  C   UNL     1      -7.190  17.829  65.320  1.00  0.00     1.014 A  
HETATM   15  H   UNL     1      -8.959  13.827  70.459  1.00  0.00     0.000 HD 
HETATM   16  N   UNL     1      -6.436  18.924  64.698  1.00  0.00     0.000 N  
HETATM   17  C   UNL     1      -6.517  16.847  66.055  1.00  0.00     0.451 A  
HETATM   18  C   UNL     1     -12.510  13.380  71.893  1.00  0.00    -0.059 A  
HETATM   19  O   UNL     1      -5.214  18.970  64.897  1.00  0.00    -0.156 OA 
HETATM   20  C   UNL     1     -13.770  13.522  71.317  1.00  0.00     0.045 A  
HETATM   21  C   UNL     1      -7.223  15.731  66.519  1.00  0.00     0.448 A  
HETATM   22  O   UNL     1      -7.064  19.726  63.991  1.00  0.00     0.441 OA 
HETATM   23  C   UNL     1     -13.879  13.910  69.987  1.00  0.00     2.359 A  
HETATM   24  C   UNL     1     -12.717  14.127  69.250  1.00  0.00     0.420 A  
HETATM   25  O   UNL     1     -12.895  14.479  67.911  1.00  0.00     0.629 OA 
HETATM   26  C   UNL     1     -11.820  14.614  67.054  1.00  0.00    -0.337 C  
HETATM   27  O   UNL     1     -12.035  14.925  65.888  1.00  0.00    -0.215 OA 
ENDBRANCH   2   4
TORSDOF 1
ENDMDL
MODEL      129
REMARK 921   NORMALIZED FREE ENERGY PREDICTED BY IDOCK:   33.12 KCAL/MOL
REMARK 922        TOTAL FREE ENERGY PREDICTED BY IDOCK:   34.66 KCAL/MOL
REMARK 923 INTER-LIGAND FREE ENERGY PREDICTED BY IDOCK:   35.02 KCAL/MOL
REMARK 924 INTRA-LIGAND FREE ENERGY PREDICTED BY IDOCK:   -0.36 KCAL/MOL
REMARK 927      BINDING AFFINITY PREDICTED BY RF-SCORE:    0.00 PKD
ROOT
HETATM    1  C   UNL     1     -12.308  13.968  70.051  1.00  0.00    -0.397 C  
HETATM    2  C   UNL     1     -11.646  15.329  70.080  1.00  0.00    -0.299 C  
HETATM    3  O   UNL     1     -11.648  16.037  71.084  1.00  0.00    -0.401 OA 
ENDROOT
BRANCH   2   4
HETATM    4  C   UNL     1     -11.074  15.786  68.758  1.00  0.00    -0.321 C  
HETATM    5  C   UNL     1      -9.654  16.398  68.805  1.00  0.00    -0.249 C  
HETATM    6  C   UNL     1      -8.636  15.430  69.411  1.00  0.00    -0.249 A  
HETATM    7  C   UNL     1      -9.226  17.001  67.455  1.00  0.00    -0.231 C  
HETATM    8  C   UNL     1      -8.602  18.192  67.336  1.00  0.00    -0.244 C  
HETATM    9  C   UNL     1      -8.341  14.200  68.801  1.00  0.00    -0.069 A  
HETATM   10  C   UNL     1      -8.469  18.855  66.035  1.00  0.00    -0.078 A  
HETATM   11  C   UNL     1      -7.585  13.232  69.468  1.00  0.00     0.634 A  
HETATM   12  O   UNL     1      -8.111  18.922  68.400  1.00  0.00    -0.315 OA 
HETATM   13  C   UNL     1      -7.963  20.147  65.864  1.00  0.00    -0.197 A  
HETATM   14  C   UNL     1      -7.102  13.493  70.753  1.00  0.00     2.017 A  
HETATM   15  H   UNL     1      -7.672  19.761  68.315  1.00  0.00     0.000 HD 
HETATM   16  N   UNL     1      -6.436  12.426  71.510  1.00  0.00     2.411 N  
HETATM   17  C   UNL     1      -7.308  14.744  71.345  1.00  0.00     2.240 A  
HETATM   18  C   UNL     1      -7.956  20.754  64.600  1.00  0.00     1.417 A  
HETATM   19  O   UNL     1      -6.024  12.695  72.647  1.00  0.00     0.871 OA 
HETATM   20  C   UNL     1      -8.445  20.070  63.490  1.00  0.00     7.838 A  
HETATM   21  C   UNL     1      -8.072  15.705  70.672  1.00  0.00     1.973 A  
HETATM   22  O   UNL     1      -6.346  11.311  70.974  1.00  0.00    -0.222 OA 
HETATM   23  C   UNL     1      -8.929  18.776  63.637  1.00  0.00    14.940 A  
HETATM   24  C   UNL     1      -8.936  18.198  64.905  1.00  0.00     4.003 A  
HETATM   25  O   UNL     1      -9.468  16.910  64.990  1.00  0.00     0.518 OA 
HETATM   26  C   UNL     1      -9.626  16.277  66.208  1.00  0.00    -0.308 C  
HETATM   27  O   UNL     1     -10.099  15.146  66.224  1.00  0.00    -0.257 OA 
ENDBRANCH   2   4
TORSDOF 1
ENDMDL
MODEL      130
REMARK 921   NORMALIZED FREE ENERGY PREDICTED BY IDOCK:   39.48 KCAL/MOL
REMARK 922        TOTAL FREE ENERGY PREDICTED BY IDOCK:   41.39 KCAL/MOL
REMARK 923 INTER-LIGAND FREE ENERGY PREDICTED BY IDOCK:   41.62 KCAL/MOL
REMARK 924 INTRA-LIGAND FREE ENERGY PREDICTED BY IDOCK:   -0.23 KCAL/MOL
REMARK 927      BINDING AFFINITY PREDICTED BY RF-SCORE:    0.00 PKD
ROOT
HETATM    1  C   UNL     1      -7.309  18.679  69.150  1.00  0.00    -0.199 C  
HETATM    2  C   UNL     1      -6.918  17.222  69.272  1.00  0.00    -0.178 C  
HETATM    3  O   UNL     1      -5.987  16.850  69.982  1.00  0.00    -0.227 OA 
ENDROOT
BRANCH   2   4
HETATM    4  C   UNL     1      -7.694  16.279  68.381  1.00  0.00    -0.169 C  
HETATM    5  C   UNL     1      -8.921  15.589  69.023  1.00  0.00    -0.237 C  
HETATM    6  C   UNL     1      -9.927  16.606  69.565  1.00  0.00    -0.091 A  
HETATM    7  C   UNL     1      -9.538  14.514  68.111  1.00  0.00    -0.212 C  
HETATM    8  C   UNL     1      -9.938  13.303  68.552  1.00  0.00    -0.188 C  
HETATM    9  C   UNL     1     -10.585  17.511  68.717  1.00  0.00    -0.241 A  
HETATM   10  C   UNL     1     -10.252  12.218  67.617  1.00  0.00    -0.208 A  
HETATM   11  C   UNL     1     -11.327  18.573  69.239  1.00  0.00     2.835 A  
HETATM   12  O   UNL     1     -10.014  12.947  69.884  1.00  0.00     0.875 OA 
HETATM   13  C   UNL     1     -10.533  10.905  68.009  1.00  0.00    -0.222 A  
HETATM   14  C   UNL     1     -11.431  18.733  70.624  1.00  0.00     5.942 A  
HETATM   15  H   UNL     1     -10.296  12.094  70.194  1.00  0.00     0.000 HD 
HETATM   16  N   UNL     1     -12.084  19.929  71.170  1.00  0.00    11.935 N  
HETATM   17  C   UNL     1     -10.858  17.794  71.488  1.00  0.00     2.514 A  
HETATM   18  C   UNL     1     -10.727   9.898  67.054  1.00  0.00    -0.237 A  
HETATM   19  O   UNL     1     -12.154  20.035  72.403  1.00  0.00    12.163 OA 
HETATM   20  C   UNL     1     -10.655  10.193  65.695  1.00  0.00     0.019 A  
HETATM   21  C   UNL     1     -10.111  16.736  70.956  1.00  0.00     2.592 A  
HETATM   22  O   UNL     1     -12.508  20.771  70.365  1.00  0.00     6.582 OA 
HETATM   23  C   UNL     1     -10.402  11.498  65.288  1.00  0.00    -0.322 A  
HETATM   24  C   UNL     1     -10.201  12.480  66.255  1.00  0.00    -0.248 A  
HETATM   25  O   UNL     1      -9.914  13.761  65.779  1.00  0.00    -0.298 OA 
HETATM   26  C   UNL     1      -9.592  14.792  66.641  1.00  0.00    -0.272 C  
HETATM   27  O   UNL     1      -9.349  15.896  66.168  1.00  0.00    -0.294 OA 
ENDBRANCH   2   4
TORSDOF 1
ENDMDL
MODEL      131
REMARK 921   NORMALIZED FREE ENERGY PREDICTED BY IDOCK:   44.02 KCAL/MOL
REMARK 922        TOTAL FREE ENERGY PREDICTED BY IDOCK:   46.19 KCAL/MOL
REMARK 923 INTER-LIGAND FREE ENERGY PREDICTED BY IDOCK:   46.55 KCAL/MOL
REMARK 924 INTRA-LIGAND FREE ENERGY PREDICTED BY IDOCK:   -0.36 KCAL/MOL
REMARK 927      BINDING AFFINITY PREDICTED BY RF-SCORE:    0.00 PKD
ROOT
HETATM    1  C   UNL     1      -7.726  12.182  71.191  1.00  0.00     7.550 C  
HETATM    2  C   UNL     1      -9.118  11.599  71.088  1.00  0.00     9.679 C  
HETATM    3  O   UNL     1      -9.352  10.416  71.327  1.00  0.00     1.605 OA 
ENDROOT
BRANCH   2   4
HETATM    4  C   UNL     1     -10.172  12.554  70.577  1.00  0.00     4.168 C  
HETATM    5  C   UNL     1     -10.153  12.841  69.057  1.00  0.00     0.166 C  
HETATM    6  C   UNL     1     -10.290  11.558  68.234  1.00  0.00    -0.211 A  
HETATM    7  C   UNL     1     -11.133  13.957  68.655  1.00  0.00    -0.290 C  
HETATM    8  C   UNL     1     -10.824  14.942  67.786  1.00  0.00    -0.286 C  
HETATM    9  C   UNL     1     -11.441  10.758  68.308  1.00  0.00    -0.353 A  
HETATM   10  C   UNL     1     -11.673  16.130  67.648  1.00  0.00     0.289 A  
HETATM   11  C   UNL     1     -11.469   9.487  67.731  1.00  0.00     0.754 A  
HETATM   12  O   UNL     1      -9.676  14.971  67.020  1.00  0.00    -0.228 OA 
HETATM   13  C   UNL     1     -11.337  17.245  66.875  1.00  0.00     0.759 A  
HETATM   14  C   UNL     1     -10.342   9.005  67.057  1.00  0.00    -0.269 A  
HETATM   15  H   UNL     1      -9.459  15.665  66.408  1.00  0.00     0.000 HD 
HETATM   16  N   UNL     1     -10.319   7.617  66.581  1.00  0.00    -0.246 N  
HETATM   17  C   UNL     1      -9.215   9.818  66.895  1.00  0.00    -0.174 A  
HETATM   18  C   UNL     1     -12.152  18.385  66.868  1.00  0.00     3.594 A  
HETATM   19  O   UNL     1      -9.301   7.226  65.991  1.00  0.00    -0.100 OA 
HETATM   20  C   UNL     1     -13.320  18.419  67.626  1.00  0.00     8.720 A  
HETATM   21  C   UNL     1      -9.194  11.089  67.483  1.00  0.00    -0.149 A  
HETATM   22  O   UNL     1     -11.310   6.911  66.816  1.00  0.00    -0.181 OA 
HETATM   23  C   UNL     1     -13.682  17.310  68.381  1.00  0.00     8.457 A  
HETATM   24  C   UNL     1     -12.850  16.192  68.381  1.00  0.00     2.349 A  
HETATM   25  O   UNL     1     -13.252  15.127  69.188  1.00  0.00     0.910 OA 
HETATM   26  C   UNL     1     -12.457  14.009  69.352  1.00  0.00    -0.068 C  
HETATM   27  O   UNL     1     -12.860  13.104  70.073  1.00  0.00     0.104 OA 
ENDBRANCH   2   4
TORSDOF 1
ENDMDL
MODEL      132
REMARK 921   NORMALIZED FREE ENERGY PREDICTED BY IDOCK:   51.07 KCAL/MOL
REMARK 922        TOTAL FREE ENERGY PREDICTED BY IDOCK:   53.65 KCAL/MOL
REMARK 923 INTER-LIGAND FREE ENERGY PREDICTED BY IDOCK:   53.87 KCAL/MOL
REMARK 924 INTRA-LIGAND FREE ENERGY PREDICTED BY IDOCK:   -0.21 KCAL/MOL
REMARK 927      BINDING AFFINITY PREDICTED BY RF-SCORE:    0.00 PKD
ROOT
HETATM    1  C   UNL     1      -6.658  15.866  64.555  1.00  0.00    13.685 C  
HETATM    2  C   UNL     1      -8.015  15.751  65.215  1.00  0.00     4.301 C  
HETATM    3  O   UNL     1      -9.058  16.007  64.618  1.00  0.00     1.722 OA 
ENDROOT
BRANCH   2   4
HETATM    4  C   UNL     1      -7.979  15.395  66.684  1.00  0.00    -0.068 C  
HETATM    5  C   UNL     1      -8.007  16.583  67.674  1.00  0.00    -0.178 C  
HETATM    6  C   UNL     1      -9.239  17.467  67.468  1.00  0.00    -0.242 A  
HETATM    7  C   UNL     1      -7.782  16.142  69.131  1.00  0.00    -0.230 C  
HETATM    8  C   UNL     1      -6.976  16.798  69.992  1.00  0.00     0.636 C  
HETATM    9  C   UNL     1     -10.538  16.971  67.660  1.00  0.00    -0.333 A  
HETATM   10  C   UNL     1      -6.571  16.195  71.266  1.00  0.00     2.277 A  
HETATM   11  C   UNL     1     -11.654  17.710  67.259  1.00  0.00     1.291 A  
HETATM   12  O   UNL     1      -6.405  18.029  69.738  1.00  0.00    -0.222 OA 
HETATM   13  C   UNL     1      -5.631  16.759  72.133  1.00  0.00     1.277 A  
HETATM   14  C   UNL     1     -11.480  18.967  66.672  1.00  0.00     1.071 A  
HETATM   15  H   UNL     1      -5.837  18.490  70.344  1.00  0.00     0.000 HD 
HETATM   16  N   UNL     1     -12.640  19.676  66.118  1.00  0.00     5.208 N  
HETATM   17  C   UNL     1     -10.200  19.519  66.551  1.00  0.00    -0.568 A  
HETATM   18  C   UNL     1      -5.219  16.077  73.287  1.00  0.00     2.429 A  
HETATM   19  O   UNL     1     -12.445  20.787  65.603  1.00  0.00     3.795 OA 
HETATM   20  C   UNL     1      -5.754  14.828  73.594  1.00  0.00     0.275 A  
HETATM   21  C   UNL     1      -9.088  18.768  66.950  1.00  0.00    -0.305 A  
HETATM   22  O   UNL     1     -13.742  19.113  66.179  1.00  0.00    11.869 OA 
HETATM   23  C   UNL     1      -6.709  14.265  72.756  1.00  0.00     2.345 A  
HETATM   24  C   UNL     1      -7.094  14.956  71.609  1.00  0.00     2.193 A  
HETATM   25  O   UNL     1      -8.029  14.318  70.792  1.00  0.00     1.814 OA 
HETATM   26  C   UNL     1      -8.406  14.856  69.576  1.00  0.00    -0.021 C  
HETATM   27  O   UNL     1      -9.231  14.254  68.900  1.00  0.00    -0.154 OA 
ENDBRANCH   2   4
TORSDOF 1
ENDMDL
MODEL      133
REMARK 921   NORMALIZED FREE ENERGY PREDICTED BY IDOCK:   75.10 KCAL/MOL
REMARK 922        TOTAL FREE ENERGY PREDICTED BY IDOCK:   79.09 KCAL/MOL
REMARK 923 INTER-LIGAND FREE ENERGY PREDICTED BY IDOCK:   79.41 KCAL/MOL
REMARK 924 INTRA-LIGAND FREE ENERGY PREDICTED BY IDOCK:   -0.32 KCAL/MOL
REMARK 927      BINDING AFFINITY PREDICTED BY RF-SCORE:    0.00 PKD
ROOT
HETATM    1  C   UNL     1      -6.408   9.602  64.679  1.00  0.00    -0.091 C  
HETATM    2  C   UNL     1      -7.770  10.167  64.341  1.00  0.00    -0.134 C  
HETATM    3  O   UNL     1      -7.918  11.313  63.924  1.00  0.00     0.548 OA 
ENDROOT
BRANCH   2   4
HETATM    4  C   UNL     1      -8.933   9.252  64.649  1.00  0.00    -0.202 C  
HETATM    5  C   UNL     1      -9.420   9.239  66.117  1.00  0.00    -0.298 C  
HETATM    6  C   UNL     1      -9.824  10.636  66.595  1.00  0.00    -0.245 A  
HETATM    7  C   UNL     1     -10.477   8.152  66.379  1.00  0.00     0.175 C  
HETATM    8  C   UNL     1     -10.473   7.357  67.470  1.00  0.00    -0.268 C  
HETATM    9  C   UNL     1     -10.887  11.335  66.001  1.00  0.00    -0.273 A  
HETATM   10  C   UNL     1     -11.318   6.161  67.543  1.00  0.00     0.093 A  
HETATM   11  C   UNL     1     -11.107  12.684  66.288  1.00  0.00    -0.330 A  
HETATM   12  O   UNL     1      -9.646   7.537  68.560  1.00  0.00    -0.148 OA 
HETATM   13  C   UNL     1     -11.257   5.223  68.578  1.00  0.00     1.111 A  
HETATM   14  C   UNL     1     -10.269  13.348  67.189  1.00  0.00    -0.247 A  
HETATM   15  H   UNL     1      -9.643   6.977  69.328  1.00  0.00     0.000 HD 
HETATM   16  N   UNL     1     -10.408  14.797  67.378  1.00  0.00    -0.242 N  
HETATM   17  C   UNL     1      -9.259  12.649  67.860  1.00  0.00    -0.201 A  
HETATM   18  C   UNL     1     -12.026   4.052  68.532  1.00  0.00    13.428 A  
HETATM   19  O   UNL     1      -9.645  15.349  68.183  1.00  0.00    -0.201 OA 
HETATM   20  C   UNL     1     -12.875   3.811  67.455  1.00  0.00    22.927 A  
HETATM   21  C   UNL     1      -9.042  11.299  67.561  1.00  0.00    -0.151 A  
HETATM   22  O   UNL     1     -11.265  15.386  66.704  1.00  0.00    -0.284 OA 
HETATM   23  C   UNL     1     -12.966   4.744  66.429  1.00  0.00    12.810 A  
HETATM   24  C   UNL     1     -12.184   5.895  66.491  1.00  0.00     3.912 A  
HETATM   25  O   UNL     1     -12.296   6.773  65.412  1.00  0.00     6.796 OA 
HETATM   26  C   UNL     1     -11.493   7.893  65.311  1.00  0.00     9.483 C  
HETATM   27  O   UNL     1     -11.634   8.630  64.342  1.00  0.00    11.437 OA 
ENDBRANCH   2   4
TORSDOF 1
ENDMDL
MODEL      134
REMARK 921   NORMALIZED FREE ENERGY PREDICTED BY IDOCK:   77.62 KCAL/MOL
REMARK 922        TOTAL FREE ENERGY PREDICTED BY IDOCK:   81.76 KCAL/MOL
REMARK 923 INTER-LIGAND FREE ENERGY PREDICTED BY IDOCK:   81.92 KCAL/MOL
REMARK 924 INTRA-LIGAND FREE ENERGY PREDICTED BY IDOCK:   -0.16 KCAL/MOL
REMARK 927      BINDING AFFINITY PREDICTED BY RF-SCORE:    0.00 PKD
ROOT
HETATM    1  C   UNL     1     -11.701  16.110  67.116  1.00  0.00     0.628 C  
HETATM    2  C   UNL     1     -11.896  14.718  67.677  1.00  0.00    -0.292 C  
HETATM    3  O   UNL     1     -12.835  14.001  67.341  1.00  0.00     0.380 OA 
ENDROOT
BRANCH   2   4
HETATM    4  C   UNL     1     -10.907  14.321  68.750  1.00  0.00    -0.265 C  
HETATM    5  C   UNL     1      -9.633  13.589  68.266  1.00  0.00    -0.218 C  
HETATM    6  C   UNL     1      -8.856  14.416  67.240  1.00  0.00    -0.225 A  
HETATM    7  C   UNL     1      -8.777  13.061  69.431  1.00  0.00     1.207 C  
HETATM    8  C   UNL     1      -8.212  11.835  69.445  1.00  0.00     0.653 C  
HETATM    9  C   UNL     1      -8.299  15.662  67.572  1.00  0.00    -0.186 A  
HETATM   10  C   UNL     1      -7.651  11.270  70.675  1.00  0.00     2.819 A  
HETATM   11  C   UNL     1      -7.789  16.506  66.583  1.00  0.00    -0.321 A  
HETATM   12  O   UNL     1      -8.177  10.984  68.359  1.00  0.00    -0.122 OA 
HETATM   13  C   UNL     1      -7.182   9.958  70.789  1.00  0.00     0.063 A  
HETATM   14  C   UNL     1      -7.817  16.103  65.244  1.00  0.00     3.881 A  
HETATM   15  H   UNL     1      -7.780  10.121  68.369  1.00  0.00     0.000 HD 
HETATM   16  N   UNL     1      -7.418  17.046  64.193  1.00  0.00     9.253 N  
HETATM   17  C   UNL     1      -8.286  14.830  64.899  1.00  0.00     7.058 A  
HETATM   18  C   UNL     1      -6.749   9.455  72.025  1.00  0.00     0.362 A  
HETATM   19  O   UNL     1      -7.459  16.653  63.018  1.00  0.00    17.366 OA 
HETATM   20  C   UNL     1      -6.768  10.264  73.158  1.00  0.00     2.971 A  
HETATM   21  C   UNL     1      -8.802  13.995  65.897  1.00  0.00     0.700 A  
HETATM   22  O   UNL     1      -7.083  18.188  64.541  1.00  0.00     1.466 OA 
HETATM   23  C   UNL     1      -7.207  11.579  73.057  1.00  0.00    11.200 A  
HETATM   24  C   UNL     1      -7.643  12.053  71.822  1.00  0.00    10.484 A  
HETATM   25  O   UNL     1      -8.105  13.370  71.797  1.00  0.00     7.973 OA 
HETATM   26  C   UNL     1      -8.661  13.915  70.655  1.00  0.00     4.187 C  
HETATM   27  O   UNL     1      -9.050  15.076  70.690  1.00  0.00     0.898 OA 
ENDBRANCH   2   4
TORSDOF 1
ENDMDL
MODEL      135
REMARK 921   NORMALIZED FREE ENERGY PREDICTED BY IDOCK:   88.11 KCAL/MOL
REMARK 922        TOTAL FREE ENERGY PREDICTED BY IDOCK:   92.86 KCAL/MOL
REMARK 923 INTER-LIGAND FREE ENERGY PREDICTED BY IDOCK:   91.98 KCAL/MOL
REMARK 924 INTRA-LIGAND FREE ENERGY PREDICTED BY IDOCK:    0.88 KCAL/MOL
REMARK 927      BINDING AFFINITY PREDICTED BY RF-SCORE:    0.00 PKD
ROOT
HETATM    1  C   UNL     1     -10.311  15.588  71.478  1.00  0.00     1.060 C  
HETATM    2  C   UNL     1     -11.030  15.935  70.192  1.00  0.00    -0.364 C  
HETATM    3  O   UNL     1     -12.215  16.256  70.171  1.00  0.00    -0.029 OA 
ENDROOT
BRANCH   2   4
HETATM    4  C   UNL     1     -10.206  15.761  68.936  1.00  0.00    -0.219 C  
HETATM    5  C   UNL     1      -8.962  16.671  68.805  1.00  0.00    -0.253 C  
HETATM    6  C   UNL     1      -8.003  16.497  69.985  1.00  0.00     1.297 A  
HETATM    7  C   UNL     1      -8.292  16.559  67.424  1.00  0.00    -0.188 C  
HETATM    8  C   UNL     1      -7.851  17.623  66.722  1.00  0.00    -0.234 C  
HETATM    9  C   UNL     1      -7.370  15.270  70.241  1.00  0.00     0.341 A  
HETATM   10  C   UNL     1      -7.483  17.503  65.308  1.00  0.00     1.544 A  
HETATM   11  C   UNL     1      -6.677  15.056  71.435  1.00  0.00     1.130 A  
HETATM   12  O   UNL     1      -7.777  18.908  67.222  1.00  0.00    -0.232 OA 
HETATM   13  C   UNL     1      -7.156  18.589  64.490  1.00  0.00     2.503 A  
HETATM   14  C   UNL     1      -6.597  16.080  72.384  1.00  0.00     4.417 A  
HETATM   15  H   UNL     1      -7.467  19.657  66.728  1.00  0.00     0.000 HD 
HETATM   16  N   UNL     1      -5.997  15.808  73.696  1.00  0.00     2.062 N  
HETATM   17  C   UNL     1      -7.143  17.339  72.112  1.00  0.00     8.253 A  
HETATM   18  C   UNL     1      -6.911  18.409  63.122  1.00  0.00     7.902 A  
HETATM   19  O   UNL     1      -5.947  16.740  74.511  1.00  0.00     5.516 OA 
HETATM   20  C   UNL     1      -6.977  17.138  62.558  1.00  0.00    18.383 A  
HETATM   21  C   UNL     1      -7.842  17.541  70.916  1.00  0.00     5.606 A  
HETATM   22  O   UNL     1      -5.597  14.656  73.919  1.00  0.00    -0.155 OA 
HETATM   23  C   UNL     1      -7.276  16.044  63.360  1.00  0.00    23.055 A  
HETATM   24  C   UNL     1      -7.527  16.249  64.715  1.00  0.00     8.176 A  
HETATM   25  O   UNL     1      -7.857  15.114  65.458  1.00  0.00     2.723 OA 
HETATM   26  C   UNL     1      -8.231  15.207  66.785  1.00  0.00    -0.137 C  
HETATM   27  O   UNL     1      -8.510  14.177  67.388  1.00  0.00    -0.180 OA 
ENDBRANCH   2   4
TORSDOF 1
ENDMDL
