MODEL        1
REMARK 921   NORMALIZED FREE ENERGY PREDICTED BY IDOCK:   -7.53 KCAL/MOL
REMARK 922        TOTAL FREE ENERGY PREDICTED BY IDOCK:  -11.37 KCAL/MOL
REMARK 923 INTER-LIGAND FREE ENERGY PREDICTED BY IDOCK:  -10.62 KCAL/MOL
REMARK 924 INTRA-LIGAND FREE ENERGY PREDICTED BY IDOCK:   -0.76 KCAL/MOL
REMARK 927      BINDING AFFINITY PREDICTED BY RF-SCORE:    0.00 PKD
ROOT
HETATM    1  C   UNL     1     -11.872  16.082  71.731  1.00  0.00    -0.599 C  
HETATM    2  C   UNL     1     -12.878  15.256  70.978  1.00  0.00    -0.440 C  
HETATM    3  O   UNL     1     -14.081  15.511  71.028  1.00  0.00    -0.513 OA 
ENDROOT
BRANCH   2   4
HETATM    4  C   UNL     1     -12.392  14.110  70.158  1.00  0.00    -0.413 A  
HETATM    5  C   UNL     1     -12.241  12.836  70.690  1.00  0.00    -0.374 A  
HETATM    6  C   UNL     1     -11.790  11.810  69.870  1.00  0.00    -0.423 A  
HETATM    7  C   UNL     1     -11.479  12.030  68.520  1.00  0.00    -0.293 A  
HETATM    8  S   UNL     1     -10.924  10.595  67.642  1.00  0.00    -0.313 SA 
HETATM    9  C   UNL     1     -10.627  11.224  66.013  1.00  0.00    -0.258 A  
HETATM   10  C   UNL     1     -10.826  12.572  65.637  1.00  0.00    -0.277 A  
HETATM   11  C   UNL     1     -10.534  12.867  64.285  1.00  0.00    -0.430 A  
HETATM   12  N   UNL     1     -11.283  13.552  66.572  1.00  0.00    -0.301 NA 
HETATM   13  C   UNL     1     -11.609  13.310  67.942  1.00  0.00    -0.334 A  
HETATM   14  C   UNL     1     -10.066  11.907  63.373  1.00  0.00    -0.464 A  
HETATM   15  C   UNL     1     -12.077  14.330  68.805  1.00  0.00    -0.300 A  
HETATM   16  C   UNL     1     -10.156  10.264  65.094  1.00  0.00    -0.355 A  
HETATM   17  C   UNL     1      -9.873  10.600  63.779  1.00  0.00    -0.394 A  
BRANCH  12  18
HETATM   18  C   UNL     1     -11.409  14.956  66.114  1.00  0.00    -0.307 C  
BRANCH  18  19
HETATM   19  C   UNL     1     -10.128  15.754  66.404  1.00  0.00    -0.305 C  
BRANCH  19  20
HETATM   20  C   UNL     1     -10.410  17.260  66.500  1.00  0.00    -0.308 C  
BRANCH  20  21
HETATM   21  N   UNL     1      -9.241  18.080  66.140  1.00  0.00    -0.504 NA 
HETATM   22  C   UNL     1      -9.393  19.489  66.549  1.00  0.00    -0.370 C  
HETATM   23  C   UNL     1      -9.312  19.694  68.072  1.00  0.00    -0.341 C  
HETATM   24  N   UNL     1      -8.023  19.259  68.644  1.00  0.00    -0.361 NA 
HETATM   25  C   UNL     1      -7.795  17.845  68.241  1.00  0.00    -0.285 C  
HETATM   26  C   UNL     1      -7.996  17.540  66.729  1.00  0.00    -0.241 C  
BRANCH  24  27
HETATM   27  C   UNL     1      -6.893  20.113  68.197  1.00  0.00    -0.291 C  
BRANCH  27  28
HETATM   28  C   UNL     1      -5.888  20.417  69.320  1.00  0.00    -0.337 C  
HETATM   29  O   UNL     1      -6.528  20.344  70.590  1.00  0.00    -0.485 OA 
HETATM   30  H   UNL     1      -5.906  20.532  71.284  1.00  0.00     0.000 HD 
ENDBRANCH  27  28
ENDBRANCH  24  27
ENDBRANCH  20  21
ENDBRANCH  19  20
ENDBRANCH  18  19
ENDBRANCH  12  18
ENDBRANCH   2   4
TORSDOF 7
ENDMDL
MODEL        2
REMARK 921   NORMALIZED FREE ENERGY PREDICTED BY IDOCK:   -7.24 KCAL/MOL
REMARK 922        TOTAL FREE ENERGY PREDICTED BY IDOCK:  -10.95 KCAL/MOL
REMARK 923 INTER-LIGAND FREE ENERGY PREDICTED BY IDOCK:  -10.23 KCAL/MOL
REMARK 924 INTRA-LIGAND FREE ENERGY PREDICTED BY IDOCK:   -0.73 KCAL/MOL
REMARK 927      BINDING AFFINITY PREDICTED BY RF-SCORE:    0.00 PKD
ROOT
HETATM    1  C   UNL     1     -12.700  15.362  71.966  1.00  0.00    -0.455 C  
HETATM    2  C   UNL     1     -13.218  13.951  71.905  1.00  0.00    -0.397 C  
HETATM    3  O   UNL     1     -14.096  13.558  72.672  1.00  0.00    -0.762 OA 
ENDROOT
BRANCH   2   4
HETATM    4  C   UNL     1     -12.647  13.024  70.887  1.00  0.00    -0.364 A  
HETATM    5  C   UNL     1     -12.387  11.689  71.171  1.00  0.00    -0.351 A  
HETATM    6  C   UNL     1     -11.861  10.876  70.175  1.00  0.00    -0.438 A  
HETATM    7  C   UNL     1     -11.583  11.370  68.893  1.00  0.00    -0.323 A  
HETATM    8  S   UNL     1     -10.921  10.176  67.764  1.00  0.00    -0.221 SA 
HETATM    9  C   UNL     1     -10.693  11.121  66.284  1.00  0.00    -0.240 A  
HETATM   10  C   UNL     1     -11.006  12.495  66.166  1.00  0.00    -0.284 A  
HETATM   11  C   UNL     1     -10.752  13.062  64.896  1.00  0.00    -0.349 A  
HETATM   12  N   UNL     1     -11.532  13.241  67.266  1.00  0.00    -0.320 NA 
HETATM   13  C   UNL     1     -11.823  12.720  68.565  1.00  0.00    -0.306 A  
HETATM   14  C   UNL     1     -10.216  12.331  63.822  1.00  0.00    -0.427 A  
HETATM   15  C   UNL     1     -12.365  13.518  69.601  1.00  0.00    -0.220 A  
HETATM   16  C   UNL     1     -10.154  10.393  65.204  1.00  0.00    -0.379 A  
HETATM   17  C   UNL     1      -9.914  10.992  63.976  1.00  0.00    -0.390 A  
BRANCH  12  18
HETATM   18  C   UNL     1     -11.778  14.691  67.079  1.00  0.00    -0.362 C  
BRANCH  18  19
HETATM   19  C   UNL     1     -10.526  15.516  67.414  1.00  0.00    -0.281 C  
BRANCH  19  20
HETATM   20  C   UNL     1     -10.890  16.937  67.869  1.00  0.00    -0.310 C  
BRANCH  20  21
HETATM   21  N   UNL     1     -10.398  17.972  66.944  1.00  0.00    -0.365 NA 
HETATM   22  C   UNL     1     -10.618  19.337  67.456  1.00  0.00    -0.474 C  
HETATM   23  C   UNL     1      -9.712  19.695  68.647  1.00  0.00    -0.400 C  
HETATM   24  N   UNL     1      -8.274  19.629  68.317  1.00  0.00    -0.330 NA 
HETATM   25  C   UNL     1      -7.991  18.277  67.764  1.00  0.00    -0.245 C  
HETATM   26  C   UNL     1      -8.960  17.795  66.646  1.00  0.00    -0.266 C  
BRANCH  24  27
HETATM   27  C   UNL     1      -7.872  20.679  67.348  1.00  0.00    -0.283 C  
BRANCH  27  28
HETATM   28  C   UNL     1      -6.380  21.039  67.435  1.00  0.00    -0.350 C  
HETATM   29  O   UNL     1      -5.935  20.978  68.786  1.00  0.00    -0.337 OA 
HETATM   30  H   UNL     1      -5.012  21.201  68.840  1.00  0.00     0.000 HD 
ENDBRANCH  27  28
ENDBRANCH  24  27
ENDBRANCH  20  21
ENDBRANCH  19  20
ENDBRANCH  18  19
ENDBRANCH  12  18
ENDBRANCH   2   4
TORSDOF 7
ENDMDL
MODEL        3
REMARK 921   NORMALIZED FREE ENERGY PREDICTED BY IDOCK:   -7.23 KCAL/MOL
REMARK 922        TOTAL FREE ENERGY PREDICTED BY IDOCK:  -10.95 KCAL/MOL
REMARK 923 INTER-LIGAND FREE ENERGY PREDICTED BY IDOCK:  -10.15 KCAL/MOL
REMARK 924 INTRA-LIGAND FREE ENERGY PREDICTED BY IDOCK:   -0.80 KCAL/MOL
REMARK 927      BINDING AFFINITY PREDICTED BY RF-SCORE:    0.00 PKD
ROOT
HETATM    1  C   UNL     1     -12.532  15.073  73.734  1.00  0.00    -0.665 C  
HETATM    2  C   UNL     1     -13.144  14.276  72.613  1.00  0.00    -0.478 C  
HETATM    3  O   UNL     1     -14.026  13.446  72.827  1.00  0.00    -0.724 OA 
ENDROOT
BRANCH   2   4
HETATM    4  C   UNL     1     -12.663  14.514  71.223  1.00  0.00    -0.413 A  
HETATM    5  C   UNL     1     -12.487  15.794  70.713  1.00  0.00    -0.420 A  
HETATM    6  C   UNL     1     -12.030  15.947  69.411  1.00  0.00    -0.268 A  
HETATM    7  C   UNL     1     -11.746  14.840  68.597  1.00  0.00    -0.325 A  
HETATM    8  S   UNL     1     -11.170  15.243  66.971  1.00  0.00    -0.220 SA 
HETATM    9  C   UNL     1     -10.920  13.650  66.239  1.00  0.00    -0.299 A  
HETATM   10  C   UNL     1     -11.161  12.426  66.904  1.00  0.00    -0.305 A  
HETATM   11  C   UNL     1     -10.894  11.266  66.143  1.00  0.00    -0.281 A  
HETATM   12  N   UNL     1     -11.647  12.387  68.248  1.00  0.00    -0.312 NA 
HETATM   13  C   UNL     1     -11.920  13.524  69.071  1.00  0.00    -0.335 A  
HETATM   14  C   UNL     1     -10.435  11.307  64.815  1.00  0.00    -0.384 A  
HETATM   15  C   UNL     1     -12.380  13.405  70.404  1.00  0.00    -0.382 A  
HETATM   16  C   UNL     1     -10.461  13.686  64.906  1.00  0.00    -0.426 A  
HETATM   17  C   UNL     1     -10.219  12.521  64.193  1.00  0.00    -0.376 A  
BRANCH  12  18
HETATM   18  C   UNL     1     -11.932  11.065  68.854  1.00  0.00    -0.262 C  
BRANCH  18  19
HETATM   19  C   UNL     1     -10.682  10.481  69.531  1.00  0.00    -0.291 C  
BRANCH  19  20
HETATM   20  C   UNL     1     -10.866   8.995  69.872  1.00  0.00    -0.218 C  
BRANCH  20  21
HETATM   21  N   UNL     1      -9.782   8.152  69.339  1.00  0.00    -0.168 NA 
HETATM   22  C   UNL     1     -10.030   6.714  69.548  1.00  0.00    -0.163 C  
HETATM   23  C   UNL     1     -11.161   6.155  68.666  1.00  0.00    -0.294 C  
HETATM   24  N   UNL     1     -10.888   6.298  67.222  1.00  0.00    -0.344 NA 
HETATM   25  C   UNL     1     -10.599   7.732  66.948  1.00  0.00    -0.277 C  
HETATM   26  C   UNL     1      -9.562   8.398  67.896  1.00  0.00    -0.156 C  
BRANCH  24  27
HETATM   27  C   UNL     1      -9.755   5.448  66.778  1.00  0.00    -0.157 C  
BRANCH  27  28
HETATM   28  C   UNL     1     -10.200   4.253  65.918  1.00  0.00    -0.173 C  
HETATM   29  O   UNL     1     -11.381   4.579  65.191  1.00  0.00    -1.034 OA 
HETATM   30  H   UNL     1     -11.656   3.841  64.660  1.00  0.00     0.000 HD 
ENDBRANCH  27  28
ENDBRANCH  24  27
ENDBRANCH  20  21
ENDBRANCH  19  20
ENDBRANCH  18  19
ENDBRANCH  12  18
ENDBRANCH   2   4
TORSDOF 7
ENDMDL
MODEL        4
REMARK 921   NORMALIZED FREE ENERGY PREDICTED BY IDOCK:   -7.13 KCAL/MOL
REMARK 922        TOTAL FREE ENERGY PREDICTED BY IDOCK:  -10.80 KCAL/MOL
REMARK 923 INTER-LIGAND FREE ENERGY PREDICTED BY IDOCK:  -10.18 KCAL/MOL
REMARK 924 INTRA-LIGAND FREE ENERGY PREDICTED BY IDOCK:   -0.63 KCAL/MOL
REMARK 927      BINDING AFFINITY PREDICTED BY RF-SCORE:    0.00 PKD
ROOT
HETATM    1  C   UNL     1     -10.755  11.659  63.915  1.00  0.00    -0.459 C  
HETATM    2  C   UNL     1      -9.905  11.176  65.060  1.00  0.00    -0.266 C  
HETATM    3  O   UNL     1      -8.760  10.765  64.877  1.00  0.00    -0.180 OA 
ENDROOT
BRANCH   2   4
HETATM    4  C   UNL     1     -10.476  11.207  66.436  1.00  0.00    -0.311 A  
HETATM    5  C   UNL     1     -10.604  10.058  67.206  1.00  0.00    -0.319 A  
HETATM    6  C   UNL     1     -11.137  10.157  68.485  1.00  0.00    -0.266 A  
HETATM    7  C   UNL     1     -11.554  11.387  69.015  1.00  0.00    -0.317 A  
HETATM    8  S   UNL     1     -12.203  11.304  70.661  1.00  0.00    -0.379 SA 
HETATM    9  C   UNL     1     -12.623  12.990  71.001  1.00  0.00    -0.299 A  
HETATM   10  C   UNL     1     -12.433  14.053  70.088  1.00  0.00    -0.319 A  
HETATM   11  C   UNL     1     -12.830  15.326  70.557  1.00  0.00    -0.421 A  
HETATM   12  N   UNL     1     -11.885  13.833  68.786  1.00  0.00    -0.346 NA 
HETATM   13  C   UNL     1     -11.451  12.575  68.264  1.00  0.00    -0.308 A  
HETATM   14  C   UNL     1     -13.387  15.536  71.830  1.00  0.00    -0.577 A  
HETATM   15  C   UNL     1     -10.897  12.439  66.969  1.00  0.00    -0.282 A  
HETATM   16  C   UNL     1     -13.183  13.206  72.277  1.00  0.00    -0.555 A  
HETATM   17  C   UNL     1     -13.567  14.472  72.693  1.00  0.00    -0.577 A  
BRANCH  12  18
HETATM   18  C   UNL     1     -11.774  14.990  67.866  1.00  0.00    -0.289 C  
BRANCH  18  19
HETATM   19  C   UNL     1     -10.519  15.824  68.167  1.00  0.00    -0.263 C  
BRANCH  19  20
HETATM   20  C   UNL     1     -10.730  17.306  67.825  1.00  0.00    -0.333 C  
BRANCH  20  21
HETATM   21  N   UNL     1      -9.745  18.184  68.479  1.00  0.00    -0.346 NA 
HETATM   22  C   UNL     1      -8.361  17.884  68.067  1.00  0.00    -0.258 C  
HETATM   23  C   UNL     1      -8.054  18.294  66.616  1.00  0.00    -0.260 C  
HETATM   24  N   UNL     1      -8.226  19.741  66.378  1.00  0.00    -0.334 NA 
HETATM   25  C   UNL     1      -9.602  20.116  66.804  1.00  0.00    -0.427 C  
HETATM   26  C   UNL     1     -10.027  19.612  68.212  1.00  0.00    -0.436 C  
BRANCH  24  27
HETATM   27  C   UNL     1      -7.220  20.554  67.106  1.00  0.00    -0.315 C  
BRANCH  27  28
HETATM   28  C   UNL     1      -6.172  21.188  66.177  1.00  0.00    -0.240 C  
HETATM   29  O   UNL     1      -6.552  21.019  64.815  1.00  0.00    -0.494 OA 
HETATM   30  H   UNL     1      -5.904  21.411  64.240  1.00  0.00     0.000 HD 
ENDBRANCH  27  28
ENDBRANCH  24  27
ENDBRANCH  20  21
ENDBRANCH  19  20
ENDBRANCH  18  19
ENDBRANCH  12  18
ENDBRANCH   2   4
TORSDOF 7
ENDMDL
MODEL        5
REMARK 921   NORMALIZED FREE ENERGY PREDICTED BY IDOCK:   -7.12 KCAL/MOL
REMARK 922        TOTAL FREE ENERGY PREDICTED BY IDOCK:  -10.79 KCAL/MOL
REMARK 923 INTER-LIGAND FREE ENERGY PREDICTED BY IDOCK:   -9.93 KCAL/MOL
REMARK 924 INTRA-LIGAND FREE ENERGY PREDICTED BY IDOCK:   -0.86 KCAL/MOL
REMARK 927      BINDING AFFINITY PREDICTED BY RF-SCORE:    0.00 PKD
ROOT
HETATM    1  C   UNL     1     -10.033  10.381  64.859  1.00  0.00    -0.409 C  
HETATM    2  C   UNL     1     -10.289  11.810  64.465  1.00  0.00    -0.294 C  
HETATM    3  O   UNL     1     -10.233  12.169  63.290  1.00  0.00    -0.429 OA 
ENDROOT
BRANCH   2   4
HETATM    4  C   UNL     1     -10.619  12.797  65.532  1.00  0.00    -0.303 A  
HETATM    5  C   UNL     1     -10.452  14.163  65.348  1.00  0.00    -0.372 A  
HETATM    6  C   UNL     1     -10.785  15.031  66.380  1.00  0.00    -0.322 A  
HETATM    7  C   UNL     1     -11.282  14.560  67.604  1.00  0.00    -0.322 A  
HETATM    8  S   UNL     1     -11.652  15.823  68.790  1.00  0.00    -0.370 SA 
HETATM    9  C   UNL     1     -12.238  14.895  70.180  1.00  0.00    -0.336 A  
HETATM   10  C   UNL     1     -12.338  13.485  70.205  1.00  0.00    -0.275 A  
HETATM   11  C   UNL     1     -12.835  12.939  71.410  1.00  0.00    -0.377 A  
HETATM   12  N   UNL     1     -11.952  12.686  69.084  1.00  0.00    -0.276 NA 
HETATM   13  C   UNL     1     -11.459  13.181  67.837  1.00  0.00    -0.308 A  
HETATM   14  C   UNL     1     -13.196  13.725  72.518  1.00  0.00    -0.599 A  
HETATM   15  C   UNL     1     -11.116  12.327  66.762  1.00  0.00    -0.345 A  
HETATM   16  C   UNL     1     -12.600  15.679  71.295  1.00  0.00    -0.523 A  
HETATM   17  C   UNL     1     -13.076  15.100  72.462  1.00  0.00    -0.488 A  
BRANCH  12  18
HETATM   18  C   UNL     1     -12.030  11.212  69.211  1.00  0.00    -0.351 C  
BRANCH  18  19
HETATM   19  C   UNL     1     -10.691  10.620  69.680  1.00  0.00    -0.290 C  
BRANCH  19  20
HETATM   20  C   UNL     1     -10.871   9.214  70.270  1.00  0.00    -0.246 C  
BRANCH  20  21
HETATM   21  N   UNL     1      -9.808   8.284  69.851  1.00  0.00    -0.184 NA 
HETATM   22  C   UNL     1     -10.094   6.890  70.238  1.00  0.00    -0.183 C  
HETATM   23  C   UNL     1     -11.238   6.255  69.428  1.00  0.00    -0.420 C  
HETATM   24  N   UNL     1     -10.962   6.208  67.979  1.00  0.00    -0.327 NA 
HETATM   25  C   UNL     1     -10.635   7.589  67.529  1.00  0.00    -0.261 C  
HETATM   26  C   UNL     1      -9.581   8.341  68.390  1.00  0.00    -0.144 C  
BRANCH  24  27
HETATM   27  C   UNL     1      -9.851   5.280  67.649  1.00  0.00    -0.155 C  
BRANCH  27  28
HETATM   28  C   UNL     1      -9.778   4.937  66.151  1.00  0.00    -0.190 C  
HETATM   29  O   UNL     1     -11.085   4.717  65.631  1.00  0.00    -0.831 OA 
HETATM   30  H   UNL     1     -11.040   4.505  64.705  1.00  0.00     0.000 HD 
ENDBRANCH  27  28
ENDBRANCH  24  27
ENDBRANCH  20  21
ENDBRANCH  19  20
ENDBRANCH  18  19
ENDBRANCH  12  18
ENDBRANCH   2   4
TORSDOF 7
ENDMDL
MODEL        6
REMARK 921   NORMALIZED FREE ENERGY PREDICTED BY IDOCK:   -7.05 KCAL/MOL
REMARK 922        TOTAL FREE ENERGY PREDICTED BY IDOCK:  -10.70 KCAL/MOL
REMARK 923 INTER-LIGAND FREE ENERGY PREDICTED BY IDOCK:  -10.12 KCAL/MOL
REMARK 924 INTRA-LIGAND FREE ENERGY PREDICTED BY IDOCK:   -0.58 KCAL/MOL
REMARK 927      BINDING AFFINITY PREDICTED BY RF-SCORE:    0.00 PKD
ROOT
HETATM    1  C   UNL     1     -12.581  15.162  73.587  1.00  0.00    -0.702 C  
HETATM    2  C   UNL     1     -13.086  14.268  72.488  1.00  0.00    -0.461 C  
HETATM    3  O   UNL     1     -13.898  13.372  72.715  1.00  0.00    -0.720 OA 
ENDROOT
BRANCH   2   4
HETATM    4  C   UNL     1     -12.587  14.489  71.101  1.00  0.00    -0.406 A  
HETATM    5  C   UNL     1     -12.339  15.761  70.602  1.00  0.00    -0.412 A  
HETATM    6  C   UNL     1     -11.867  15.898  69.303  1.00  0.00    -0.328 A  
HETATM    7  C   UNL     1     -11.640  14.784  68.482  1.00  0.00    -0.321 A  
HETATM    8  S   UNL     1     -11.035  15.166  66.862  1.00  0.00    -0.311 SA 
HETATM    9  C   UNL     1     -10.869  13.567  66.119  1.00  0.00    -0.281 A  
HETATM   10  C   UNL     1     -11.180  12.354  66.774  1.00  0.00    -0.310 A  
HETATM   11  C   UNL     1     -10.973  11.186  66.005  1.00  0.00    -0.189 A  
HETATM   12  N   UNL     1     -11.674  12.332  68.116  1.00  0.00    -0.339 NA 
HETATM   13  C   UNL     1     -11.888  13.475  68.945  1.00  0.00    -0.345 A  
HETATM   14  C   UNL     1     -10.506  11.211  64.680  1.00  0.00    -0.400 A  
HETATM   15  C   UNL     1     -12.361  13.373  70.275  1.00  0.00    -0.354 A  
HETATM   16  C   UNL     1     -10.402  13.587  64.788  1.00  0.00    -0.405 A  
HETATM   17  C   UNL     1     -10.221  12.417  64.068  1.00  0.00    -0.401 A  
BRANCH  12  18
HETATM   18  C   UNL     1     -12.033  11.022  68.710  1.00  0.00    -0.225 C  
BRANCH  18  19
HETATM   19  C   UNL     1     -10.932  10.518  69.656  1.00  0.00    -0.333 C  
BRANCH  19  20
HETATM   20  C   UNL     1     -11.522   9.885  70.924  1.00  0.00    -0.376 C  
BRANCH  20  21
HETATM   21  N   UNL     1     -10.575   8.981  71.600  1.00  0.00    -0.343 NA 
HETATM   22  C   UNL     1     -11.227   8.148  72.627  1.00  0.00    -0.378 C  
HETATM   23  C   UNL     1     -12.145   7.062  72.038  1.00  0.00    -0.294 C  
HETATM   24  N   UNL     1     -11.428   6.114  71.163  1.00  0.00    -0.286 NA 
HETATM   25  C   UNL     1     -10.721   6.899  70.116  1.00  0.00    -0.237 C  
HETATM   26  C   UNL     1      -9.881   8.101  70.634  1.00  0.00    -0.181 C  
BRANCH  24  27
HETATM   27  C   UNL     1     -10.465   5.272  71.917  1.00  0.00    -0.219 C  
BRANCH  27  28
HETATM   28  C   UNL     1     -11.090   4.601  73.152  1.00  0.00    -0.289 C  
HETATM   29  O   UNL     1     -10.458   5.066  74.340  1.00  0.00    -0.268 OA 
HETATM   30  H   UNL     1     -10.844   4.652  75.103  1.00  0.00     0.000 HD 
ENDBRANCH  27  28
ENDBRANCH  24  27
ENDBRANCH  20  21
ENDBRANCH  19  20
ENDBRANCH  18  19
ENDBRANCH  12  18
ENDBRANCH   2   4
TORSDOF 7
ENDMDL
MODEL        7
REMARK 921   NORMALIZED FREE ENERGY PREDICTED BY IDOCK:   -6.94 KCAL/MOL
REMARK 922        TOTAL FREE ENERGY PREDICTED BY IDOCK:  -10.54 KCAL/MOL
REMARK 923 INTER-LIGAND FREE ENERGY PREDICTED BY IDOCK:   -9.82 KCAL/MOL
REMARK 924 INTRA-LIGAND FREE ENERGY PREDICTED BY IDOCK:   -0.71 KCAL/MOL
REMARK 927      BINDING AFFINITY PREDICTED BY RF-SCORE:    0.00 PKD
ROOT
HETATM    1  C   UNL     1     -13.472  13.747  72.355  1.00  0.00    -0.672 C  
HETATM    2  C   UNL     1     -12.779  13.013  71.240  1.00  0.00    -0.293 C  
HETATM    3  O   UNL     1     -12.343  13.610  70.256  1.00  0.00    -0.333 OA 
ENDROOT
BRANCH   2   4
HETATM    4  C   UNL     1     -12.622  11.535  71.346  1.00  0.00    -0.419 A  
HETATM    5  C   UNL     1     -13.367  10.779  72.241  1.00  0.00    -0.149 A  
HETATM    6  C   UNL     1     -13.178   9.403  72.286  1.00  0.00    -0.528 A  
HETATM    7  C   UNL     1     -12.250   8.761  71.453  1.00  0.00    -0.309 A  
HETATM    8  S   UNL     1     -12.160   7.004  71.658  1.00  0.00    -0.365 SA 
HETATM    9  C   UNL     1     -10.920   6.537  70.484  1.00  0.00    -0.294 A  
HETATM   10  C   UNL     1     -10.241   7.449  69.643  1.00  0.00    -0.210 A  
HETATM   11  C   UNL     1      -9.290   6.870  68.773  1.00  0.00    -0.129 A  
HETATM   12  N   UNL     1     -10.508   8.853  69.692  1.00  0.00    -0.213 NA 
HETATM   13  C   UNL     1     -11.467   9.492  70.537  1.00  0.00    -0.276 A  
HETATM   14  C   UNL     1      -9.016   5.492  68.741  1.00  0.00    -0.120 A  
HETATM   15  C   UNL     1     -11.690  10.889  70.513  1.00  0.00    -0.441 A  
HETATM   16  C   UNL     1     -10.640   5.155  70.449  1.00  0.00    -0.225 A  
HETATM   17  C   UNL     1      -9.692   4.631  69.584  1.00  0.00    -0.283 A  
BRANCH  12  18
HETATM   18  C   UNL     1      -9.711   9.750  68.821  1.00  0.00    -0.161 C  
BRANCH  18  19
HETATM   19  C   UNL     1     -10.232   9.731  67.375  1.00  0.00    -0.284 C  
BRANCH  19  20
HETATM   20  C   UNL     1     -11.258  10.847  67.130  1.00  0.00    -0.184 C  
BRANCH  20  21
HETATM   21  N   UNL     1     -10.988  11.603  65.895  1.00  0.00    -0.294 NA 
HETATM   22  C   UNL     1     -11.942  12.709  65.691  1.00  0.00    -0.452 C  
HETATM   23  C   UNL     1     -11.745  13.874  66.678  1.00  0.00    -0.395 C  
HETATM   24  N   UNL     1     -10.406  14.489  66.582  1.00  0.00    -0.270 NA 
HETATM   25  C   UNL     1      -9.392  13.414  66.751  1.00  0.00    -0.256 C  
HETATM   26  C   UNL     1      -9.612  12.145  65.879  1.00  0.00    -0.214 C  
BRANCH  24  27
HETATM   27  C   UNL     1     -10.204  15.194  65.291  1.00  0.00    -0.368 C  
BRANCH  27  28
HETATM   28  C   UNL     1     -11.215  16.329  65.059  1.00  0.00    -0.176 C  
HETATM   29  O   UNL     1     -11.584  16.390  63.685  1.00  0.00    -1.514 OA 
HETATM   30  H   UNL     1     -12.208  17.092  63.542  1.00  0.00     0.000 HD 
ENDBRANCH  27  28
ENDBRANCH  24  27
ENDBRANCH  20  21
ENDBRANCH  19  20
ENDBRANCH  18  19
ENDBRANCH  12  18
ENDBRANCH   2   4
TORSDOF 7
ENDMDL
MODEL        8
REMARK 921   NORMALIZED FREE ENERGY PREDICTED BY IDOCK:   -6.93 KCAL/MOL
REMARK 922        TOTAL FREE ENERGY PREDICTED BY IDOCK:  -10.52 KCAL/MOL
REMARK 923 INTER-LIGAND FREE ENERGY PREDICTED BY IDOCK:  -10.00 KCAL/MOL
REMARK 924 INTRA-LIGAND FREE ENERGY PREDICTED BY IDOCK:   -0.51 KCAL/MOL
REMARK 927      BINDING AFFINITY PREDICTED BY RF-SCORE:    0.00 PKD
ROOT
HETATM    1  C   UNL     1      -9.417  10.093  64.314  1.00  0.00    -0.366 C  
HETATM    2  C   UNL     1     -10.110  11.322  64.835  1.00  0.00    -0.281 C  
HETATM    3  O   UNL     1     -10.245  12.325  64.135  1.00  0.00    -0.328 OA 
ENDROOT
BRANCH   2   4
HETATM    4  C   UNL     1     -10.643  11.307  66.227  1.00  0.00    -0.315 A  
HETATM    5  C   UNL     1     -10.749  10.132  66.960  1.00  0.00    -0.264 A  
HETATM    6  C   UNL     1     -11.247  10.187  68.256  1.00  0.00    -0.246 A  
HETATM    7  C   UNL     1     -11.648  11.398  68.839  1.00  0.00    -0.323 A  
HETATM    8  S   UNL     1     -12.251  11.259  70.499  1.00  0.00    -0.380 SA 
HETATM    9  C   UNL     1     -12.660  12.933  70.907  1.00  0.00    -0.270 A  
HETATM   10  C   UNL     1     -12.496  14.026  70.026  1.00  0.00    -0.281 A  
HETATM   11  C   UNL     1     -12.879  15.282  70.549  1.00  0.00    -0.421 A  
HETATM   12  N   UNL     1     -11.984  13.851  68.702  1.00  0.00    -0.367 NA 
HETATM   13  C   UNL     1     -11.566  12.612  68.126  1.00  0.00    -0.338 A  
HETATM   14  C   UNL     1     -13.400  15.449  71.843  1.00  0.00    -0.554 A  
HETATM   15  C   UNL     1     -11.048  12.520  66.812  1.00  0.00    -0.323 A  
HETATM   16  C   UNL     1     -13.185  13.105  72.205  1.00  0.00    -0.561 A  
HETATM   17  C   UNL     1     -13.556  14.356  72.674  1.00  0.00    -0.589 A  
BRANCH  12  18
HETATM   18  C   UNL     1     -11.898  15.038  67.819  1.00  0.00    -0.204 C  
BRANCH  18  19
HETATM   19  C   UNL     1     -10.481  15.631  67.818  1.00  0.00    -0.273 C  
BRANCH  19  20
HETATM   20  C   UNL     1     -10.404  16.913  68.660  1.00  0.00    -0.332 C  
BRANCH  20  21
HETATM   21  N   UNL     1     -10.440  18.135  67.836  1.00  0.00    -0.395 NA 
HETATM   22  C   UNL     1      -9.862  19.300  68.531  1.00  0.00    -0.424 C  
HETATM   23  C   UNL     1      -8.333  19.219  68.691  1.00  0.00    -0.372 C  
HETATM   24  N   UNL     1      -7.622  19.143  67.400  1.00  0.00    -0.233 NA 
HETATM   25  C   UNL     1      -8.183  17.997  66.634  1.00  0.00    -0.261 C  
HETATM   26  C   UNL     1      -9.735  17.943  66.550  1.00  0.00    -0.329 C  
BRANCH  24  27
HETATM   27  C   UNL     1      -7.745  20.398  66.617  1.00  0.00    -0.229 C  
BRANCH  27  28
HETATM   28  C   UNL     1      -6.451  20.772  65.874  1.00  0.00    -0.214 C  
HETATM   29  O   UNL     1      -6.727  21.035  64.502  1.00  0.00    -0.531 OA 
HETATM   30  H   UNL     1      -5.928  21.265  64.043  1.00  0.00     0.000 HD 
ENDBRANCH  27  28
ENDBRANCH  24  27
ENDBRANCH  20  21
ENDBRANCH  19  20
ENDBRANCH  18  19
ENDBRANCH  12  18
ENDBRANCH   2   4
TORSDOF 7
ENDMDL
MODEL        9
REMARK 921   NORMALIZED FREE ENERGY PREDICTED BY IDOCK:   -6.92 KCAL/MOL
REMARK 922        TOTAL FREE ENERGY PREDICTED BY IDOCK:  -10.50 KCAL/MOL
REMARK 923 INTER-LIGAND FREE ENERGY PREDICTED BY IDOCK:  -10.14 KCAL/MOL
REMARK 924 INTRA-LIGAND FREE ENERGY PREDICTED BY IDOCK:   -0.36 KCAL/MOL
REMARK 927      BINDING AFFINITY PREDICTED BY RF-SCORE:    0.00 PKD
ROOT
HETATM    1  C   UNL     1     -11.654  15.957  71.155  1.00  0.00    -0.481 C  
HETATM    2  C   UNL     1     -12.018  14.877  70.174  1.00  0.00    -0.317 C  
HETATM    3  O   UNL     1     -12.082  15.104  68.967  1.00  0.00    -0.285 OA 
ENDROOT
BRANCH   2   4
HETATM    4  C   UNL     1     -12.300  13.507  70.691  1.00  0.00    -0.432 A  
HETATM    5  C   UNL     1     -13.284  13.268  71.642  1.00  0.00    -0.446 A  
HETATM    6  C   UNL     1     -13.502  11.967  72.077  1.00  0.00    -0.364 A  
HETATM    7  C   UNL     1     -12.750  10.891  71.583  1.00  0.00    -0.393 A  
HETATM    8  S   UNL     1     -13.181   9.312  72.259  1.00  0.00    -0.447 SA 
HETATM    9  C   UNL     1     -12.060   8.215  71.437  1.00  0.00    -0.297 A  
HETATM   10  C   UNL     1     -11.099   8.631  70.487  1.00  0.00    -0.242 A  
HETATM   11  C   UNL     1     -10.304   7.596  69.944  1.00  0.00    -0.225 A  
HETATM   12  N   UNL     1     -10.952  10.006  70.122  1.00  0.00    -0.288 NA 
HETATM   13  C   UNL     1     -11.735  11.091  70.624  1.00  0.00    -0.269 A  
HETATM   14  C   UNL     1     -10.437   6.248  70.318  1.00  0.00    -0.276 A  
HETATM   15  C   UNL     1     -11.546  12.427  70.199  1.00  0.00    -0.159 A  
HETATM   16  C   UNL     1     -12.188   6.861  71.810  1.00  0.00    -0.396 A  
HETATM   17  C   UNL     1     -11.381   5.879  71.257  1.00  0.00    -0.238 A  
BRANCH  12  18
HETATM   18  C   UNL     1      -9.881  10.368  69.164  1.00  0.00    -0.223 C  
BRANCH  18  19
HETATM   19  C   UNL     1     -10.102   9.698  67.799  1.00  0.00    -0.232 C  
BRANCH  19  20
HETATM   20  C   UNL     1     -11.118  10.474  66.948  1.00  0.00    -0.050 C  
BRANCH  20  21
HETATM   21  N   UNL     1     -10.485  11.513  66.118  1.00  0.00    -0.244 NA 
HETATM   22  C   UNL     1     -10.842  11.391  64.692  1.00  0.00    -0.292 C  
HETATM   23  C   UNL     1     -12.304  11.769  64.394  1.00  0.00    -0.025 C  
HETATM   24  N   UNL     1     -12.624  13.163  64.758  1.00  0.00    -0.644 NA 
HETATM   25  C   UNL     1     -12.258  13.361  66.187  1.00  0.00    -0.415 C  
HETATM   26  C   UNL     1     -10.837  12.872  66.587  1.00  0.00    -0.267 C  
BRANCH  24  27
HETATM   27  C   UNL     1     -11.913  14.145  63.901  1.00  0.00    -0.243 C  
BRANCH  27  28
HETATM   28  C   UNL     1     -11.497  15.416  64.660  1.00  0.00    -0.337 C  
HETATM   29  O   UNL     1     -11.550  16.547  63.796  1.00  0.00    -1.617 OA 
HETATM   30  H   UNL     1     -11.293  17.332  64.265  1.00  0.00     0.000 HD 
ENDBRANCH  27  28
ENDBRANCH  24  27
ENDBRANCH  20  21
ENDBRANCH  19  20
ENDBRANCH  18  19
ENDBRANCH  12  18
ENDBRANCH   2   4
TORSDOF 7
ENDMDL
MODEL       10
REMARK 921   NORMALIZED FREE ENERGY PREDICTED BY IDOCK:   -6.81 KCAL/MOL
REMARK 922        TOTAL FREE ENERGY PREDICTED BY IDOCK:  -10.35 KCAL/MOL
REMARK 923 INTER-LIGAND FREE ENERGY PREDICTED BY IDOCK:   -9.67 KCAL/MOL
REMARK 924 INTRA-LIGAND FREE ENERGY PREDICTED BY IDOCK:   -0.67 KCAL/MOL
REMARK 927      BINDING AFFINITY PREDICTED BY RF-SCORE:    0.00 PKD
ROOT
HETATM    1  C   UNL     1     -12.202  11.971  63.377  1.00  0.00    -0.627 C  
HETATM    2  C   UNL     1     -11.250  11.815  64.532  1.00  0.00    -0.305 C  
HETATM    3  O   UNL     1     -10.505  10.840  64.619  1.00  0.00    -0.344 OA 
ENDROOT
BRANCH   2   4
HETATM    4  C   UNL     1     -11.221  12.873  65.581  1.00  0.00    -0.325 A  
HETATM    5  C   UNL     1     -10.764  14.158  65.317  1.00  0.00    -0.374 A  
HETATM    6  C   UNL     1     -10.769  15.100  66.337  1.00  0.00    -0.317 A  
HETATM    7  C   UNL     1     -11.220  14.785  67.627  1.00  0.00    -0.323 A  
HETATM    8  S   UNL     1     -11.150  16.123  68.786  1.00  0.00    -0.364 SA 
HETATM    9  C   UNL     1     -11.774  15.388  70.271  1.00  0.00    -0.327 A  
HETATM   10  C   UNL     1     -12.194  14.041  70.372  1.00  0.00    -0.363 A  
HETATM   11  C   UNL     1     -12.664  13.653  71.647  1.00  0.00    -0.396 A  
HETATM   12  N   UNL     1     -12.132  13.151  69.254  1.00  0.00    -0.265 NA 
HETATM   13  C   UNL     1     -11.683  13.491  67.941  1.00  0.00    -0.357 A  
HETATM   14  C   UNL     1     -12.706  14.524  72.748  1.00  0.00    -0.461 A  
HETATM   15  C   UNL     1     -11.670  12.558  66.876  1.00  0.00    -0.447 A  
HETATM   16  C   UNL     1     -11.817  16.257  71.380  1.00  0.00    -0.394 A  
HETATM   17  C   UNL     1     -12.278  15.831  72.616  1.00  0.00    -0.573 A  
BRANCH  12  18
HETATM   18  C   UNL     1     -12.534  11.739  69.457  1.00  0.00     0.083 C  
BRANCH  18  19
HETATM   19  C   UNL     1     -11.400  10.923  70.096  1.00  0.00    -0.367 C  
BRANCH  19  20
HETATM   20  C   UNL     1     -11.929   9.970  71.177  1.00  0.00    -0.392 C  
BRANCH  20  21
HETATM   21  N   UNL     1     -10.889   9.062  71.691  1.00  0.00    -0.344 NA 
HETATM   22  C   UNL     1     -11.452   7.944  72.471  1.00  0.00    -0.398 C  
HETATM   23  C   UNL     1     -12.200   6.913  71.607  1.00  0.00    -0.361 C  
HETATM   24  N   UNL     1     -11.339   6.283  70.587  1.00  0.00    -0.342 NA 
HETATM   25  C   UNL     1     -10.714   7.366  69.780  1.00  0.00    -0.241 C  
HETATM   26  C   UNL     1     -10.057   8.514  70.597  1.00  0.00    -0.192 C  
BRANCH  24  27
HETATM   27  C   UNL     1     -10.293   5.419  71.191  1.00  0.00    -0.235 C  
BRANCH  27  28
HETATM   28  C   UNL     1      -9.239   4.950  70.175  1.00  0.00    -0.130 C  
HETATM   29  O   UNL     1      -9.740   3.859  69.410  1.00  0.00    -0.192 OA 
HETATM   30  H   UNL     1      -9.088   3.568  68.782  1.00  0.00     0.000 HD 
ENDBRANCH  27  28
ENDBRANCH  24  27
ENDBRANCH  20  21
ENDBRANCH  19  20
ENDBRANCH  18  19
ENDBRANCH  12  18
ENDBRANCH   2   4
TORSDOF 7
ENDMDL
MODEL       11
REMARK 921   NORMALIZED FREE ENERGY PREDICTED BY IDOCK:   -6.70 KCAL/MOL
REMARK 922        TOTAL FREE ENERGY PREDICTED BY IDOCK:  -10.20 KCAL/MOL
REMARK 923 INTER-LIGAND FREE ENERGY PREDICTED BY IDOCK:   -9.46 KCAL/MOL
REMARK 924 INTRA-LIGAND FREE ENERGY PREDICTED BY IDOCK:   -0.74 KCAL/MOL
REMARK 927      BINDING AFFINITY PREDICTED BY RF-SCORE:    0.00 PKD
ROOT
HETATM    1  C   UNL     1     -13.327  15.482  71.816  1.00  0.00    -0.577 C  
HETATM    2  C   UNL     1     -12.670  14.618  70.774  1.00  0.00    -0.359 C  
HETATM    3  O   UNL     1     -12.161  15.108  69.766  1.00  0.00    -0.310 OA 
ENDROOT
BRANCH   2   4
HETATM    4  C   UNL     1     -12.639  13.143  70.984  1.00  0.00    -0.397 A  
HETATM    5  C   UNL     1     -13.343  12.532  72.013  1.00  0.00    -0.528 A  
HETATM    6  C   UNL     1     -13.278  11.151  72.150  1.00  0.00    -0.297 A  
HETATM    7  C   UNL     1     -12.516  10.361  71.278  1.00  0.00    -0.415 A  
HETATM    8  S   UNL     1     -12.566   8.623  71.616  1.00  0.00    -0.352 SA 
HETATM    9  C   UNL     1     -11.518   7.949  70.357  1.00  0.00    -0.145 A  
HETATM   10  C   UNL     1     -10.860   8.726  69.376  1.00  0.00    -0.110 A  
HETATM   11  C   UNL     1     -10.073   7.993  68.458  1.00  0.00    -0.218 A  
HETATM   12  N   UNL     1     -10.987  10.150  69.337  1.00  0.00    -0.234 NA 
HETATM   13  C   UNL     1     -11.779  10.941  70.225  1.00  0.00    -0.347 A  
HETATM   14  C   UNL     1      -9.933   6.596  68.510  1.00  0.00    -0.152 A  
HETATM   15  C   UNL     1     -11.874  12.349  70.111  1.00  0.00    -0.341 A  
HETATM   16  C   UNL     1     -11.373   6.547  70.405  1.00  0.00    -0.443 A  
HETATM   17  C   UNL     1     -10.584   5.870  69.489  1.00  0.00    -0.378 A  
BRANCH  12  18
HETATM   18  C   UNL     1     -10.217  10.897  68.315  1.00  0.00    -0.173 C  
BRANCH  18  19
HETATM   19  C   UNL     1     -11.005  11.019  67.001  1.00  0.00    -0.333 C  
BRANCH  19  20
HETATM   20  C   UNL     1     -10.604  12.277  66.217  1.00  0.00    -0.251 C  
BRANCH  20  21
HETATM   21  N   UNL     1     -11.054  13.519  66.870  1.00  0.00    -0.292 NA 
HETATM   22  C   UNL     1      -9.930  14.327  67.377  1.00  0.00    -0.242 C  
HETATM   23  C   UNL     1      -9.099  14.985  66.261  1.00  0.00    -0.253 C  
HETATM   24  N   UNL     1      -9.891  15.902  65.418  1.00  0.00    -0.424 NA 
HETATM   25  C   UNL     1     -11.064  15.150  64.896  1.00  0.00    -0.414 C  
HETATM   26  C   UNL     1     -11.870  14.348  65.956  1.00  0.00    -0.372 C  
BRANCH  24  27
HETATM   27  C   UNL     1     -10.338  17.105  66.164  1.00  0.00    -0.322 C  
BRANCH  27  28
HETATM   28  C   UNL     1      -9.172  17.992  66.631  1.00  0.00    -0.284 C  
HETATM   29  O   UNL     1      -8.157  18.041  65.634  1.00  0.00    -0.500 OA 
HETATM   30  H   UNL     1      -7.436  18.588  65.923  1.00  0.00     0.000 HD 
ENDBRANCH  27  28
ENDBRANCH  24  27
ENDBRANCH  20  21
ENDBRANCH  19  20
ENDBRANCH  18  19
ENDBRANCH  12  18
ENDBRANCH   2   4
TORSDOF 7
ENDMDL
MODEL       12
REMARK 921   NORMALIZED FREE ENERGY PREDICTED BY IDOCK:   -6.61 KCAL/MOL
REMARK 922        TOTAL FREE ENERGY PREDICTED BY IDOCK:  -10.08 KCAL/MOL
REMARK 923 INTER-LIGAND FREE ENERGY PREDICTED BY IDOCK:   -9.20 KCAL/MOL
REMARK 924 INTRA-LIGAND FREE ENERGY PREDICTED BY IDOCK:   -0.88 KCAL/MOL
REMARK 927      BINDING AFFINITY PREDICTED BY RF-SCORE:    0.00 PKD
ROOT
HETATM    1  C   UNL     1     -14.154   8.939  71.451  1.00  0.00    -0.278 C  
HETATM    2  C   UNL     1     -12.823   9.611  71.659  1.00  0.00    -0.405 C  
HETATM    3  O   UNL     1     -11.863   8.997  72.123  1.00  0.00    -0.358 OA 
ENDROOT
BRANCH   2   4
HETATM    4  C   UNL     1     -12.683  11.047  71.287  1.00  0.00    -0.537 A  
HETATM    5  C   UNL     1     -13.213  12.065  72.069  1.00  0.00    -0.481 A  
HETATM    6  C   UNL     1     -13.041  13.384  71.669  1.00  0.00    -0.463 A  
HETATM    7  C   UNL     1     -12.348  13.712  70.495  1.00  0.00    -0.355 A  
HETATM    8  S   UNL     1     -12.233  15.448  70.161  1.00  0.00    -0.360 SA 
HETATM    9  C   UNL     1     -11.323  15.495  68.643  1.00  0.00    -0.344 A  
HETATM   10  C   UNL     1     -10.858  14.345  67.963  1.00  0.00    -0.243 A  
HETATM   11  C   UNL     1     -10.147  14.601  66.768  1.00  0.00    -0.266 A  
HETATM   12  N   UNL     1     -11.106  13.028  68.461  1.00  0.00    -0.253 NA 
HETATM   13  C   UNL     1     -11.802  12.710  69.667  1.00  0.00    -0.311 A  
HETATM   14  C   UNL     1      -9.922  15.896  66.270  1.00  0.00    -0.318 A  
HETATM   15  C   UNL     1     -11.990  11.378  70.108  1.00  0.00    -0.460 A  
HETATM   16  C   UNL     1     -11.095  16.791  68.138  1.00  0.00    -0.254 A  
HETATM   17  C   UNL     1     -10.399  16.996  66.956  1.00  0.00    -0.304 A  
BRANCH  12  18
HETATM   18  C   UNL     1     -10.637  11.874  67.658  1.00  0.00    -0.211 C  
BRANCH  18  19
HETATM   19  C   UNL     1      -9.161  11.557  67.945  1.00  0.00    -0.168 C  
BRANCH  19  20
HETATM   20  C   UNL     1      -8.920  10.045  68.062  1.00  0.00    -0.128 C  
BRANCH  20  21
HETATM   21  N   UNL     1     -10.124   9.254  67.751  1.00  0.00    -0.191 NA 
HETATM   22  C   UNL     1     -10.028   8.570  66.448  1.00  0.00    -0.244 C  
HETATM   23  C   UNL     1      -9.023   7.405  66.443  1.00  0.00    -0.163 C  
HETATM   24  N   UNL     1      -9.363   6.347  67.414  1.00  0.00    -0.116 NA 
HETATM   25  C   UNL     1      -9.504   6.980  68.753  1.00  0.00    -0.136 C  
HETATM   26  C   UNL     1     -10.400   8.250  68.802  1.00  0.00    -0.205 C  
BRANCH  24  27
HETATM   27  C   UNL     1     -10.610   5.628  67.048  1.00  0.00    -0.285 C  
BRANCH  27  28
HETATM   28  C   UNL     1     -10.407   4.611  65.913  1.00  0.00    -0.283 C  
HETATM   29  O   UNL     1     -11.539   4.602  65.049  1.00  0.00    -1.080 OA 
HETATM   30  H   UNL     1     -11.413   3.973  64.348  1.00  0.00     0.000 HD 
ENDBRANCH  27  28
ENDBRANCH  24  27
ENDBRANCH  20  21
ENDBRANCH  19  20
ENDBRANCH  18  19
ENDBRANCH  12  18
ENDBRANCH   2   4
TORSDOF 7
ENDMDL
MODEL       13
REMARK 921   NORMALIZED FREE ENERGY PREDICTED BY IDOCK:   -6.61 KCAL/MOL
REMARK 922        TOTAL FREE ENERGY PREDICTED BY IDOCK:  -10.07 KCAL/MOL
REMARK 923 INTER-LIGAND FREE ENERGY PREDICTED BY IDOCK:   -9.27 KCAL/MOL
REMARK 924 INTRA-LIGAND FREE ENERGY PREDICTED BY IDOCK:   -0.80 KCAL/MOL
REMARK 927      BINDING AFFINITY PREDICTED BY RF-SCORE:    0.00 PKD
ROOT
HETATM    1  C   UNL     1      -7.226  19.283  68.815  1.00  0.00    -0.380 C  
HETATM    2  C   UNL     1      -7.492  17.806  68.704  1.00  0.00    -0.274 C  
HETATM    3  O   UNL     1      -6.924  16.998  69.437  1.00  0.00    -0.226 OA 
ENDROOT
BRANCH   2   4
HETATM    4  C   UNL     1      -8.469  17.331  67.683  1.00  0.00    -0.212 A  
HETATM    5  C   UNL     1      -9.261  18.211  66.957  1.00  0.00    -0.270 A  
HETATM    6  C   UNL     1     -10.147  17.704  66.015  1.00  0.00    -0.263 A  
HETATM    7  C   UNL     1     -10.263  16.325  65.782  1.00  0.00    -0.367 A  
HETATM    8  S   UNL     1     -11.443  15.880  64.539  1.00  0.00    -0.149 SA 
HETATM    9  C   UNL     1     -11.333  14.112  64.511  1.00  0.00    -0.348 A  
HETATM   10  C   UNL     1     -10.466  13.360  65.337  1.00  0.00    -0.302 A  
HETATM   11  C   UNL     1     -10.528  11.960  65.154  1.00  0.00    -0.330 A  
HETATM   12  N   UNL     1      -9.602  13.989  66.286  1.00  0.00    -0.284 NA 
HETATM   13  C   UNL     1      -9.484  15.397  66.503  1.00  0.00    -0.273 A  
HETATM   14  C   UNL     1     -11.392  11.342  64.234  1.00  0.00    -0.244 A  
HETATM   15  C   UNL     1      -8.588  15.949  67.449  1.00  0.00    -0.189 A  
HETATM   16  C   UNL     1     -12.199  13.488  63.590  1.00  0.00    -0.438 A  
HETATM   17  C   UNL     1     -12.232  12.108  63.450  1.00  0.00    -0.635 A  
BRANCH  12  18
HETATM   18  C   UNL     1      -8.767  13.127  67.156  1.00  0.00    -0.213 C  
BRANCH  18  19
HETATM   19  C   UNL     1      -9.509  12.756  68.450  1.00  0.00    -0.162 C  
BRANCH  19  20
HETATM   20  C   UNL     1      -9.479  11.242  68.703  1.00  0.00    -0.175 C  
BRANCH  20  21
HETATM   21  N   UNL     1     -10.805  10.617  68.558  1.00  0.00    -0.215 NA 
HETATM   22  C   UNL     1     -10.927   9.368  69.334  1.00  0.00    -0.145 C  
HETATM   23  C   UNL     1     -10.986   9.597  70.854  1.00  0.00    -0.342 C  
HETATM   24  N   UNL     1     -12.135  10.427  71.267  1.00  0.00    -0.370 NA 
HETATM   25  C   UNL     1     -12.085  11.698  70.495  1.00  0.00    -0.366 C  
HETATM   26  C   UNL     1     -11.888  11.541  68.960  1.00  0.00    -0.343 C  
BRANCH  24  27
HETATM   27  C   UNL     1     -13.432   9.739  71.048  1.00  0.00    -0.180 C  
BRANCH  27  28
HETATM   28  C   UNL     1     -13.599   8.479  71.915  1.00  0.00    -0.396 C  
HETATM   29  O   UNL     1     -14.040   8.834  73.222  1.00  0.00    -1.180 OA 
HETATM   30  H   UNL     1     -14.143   8.056  73.758  1.00  0.00     0.000 HD 
ENDBRANCH  27  28
ENDBRANCH  24  27
ENDBRANCH  20  21
ENDBRANCH  19  20
ENDBRANCH  18  19
ENDBRANCH  12  18
ENDBRANCH   2   4
TORSDOF 7
ENDMDL
MODEL       14
REMARK 921   NORMALIZED FREE ENERGY PREDICTED BY IDOCK:   -6.58 KCAL/MOL
REMARK 922        TOTAL FREE ENERGY PREDICTED BY IDOCK:  -10.03 KCAL/MOL
REMARK 923 INTER-LIGAND FREE ENERGY PREDICTED BY IDOCK:   -9.59 KCAL/MOL
REMARK 924 INTRA-LIGAND FREE ENERGY PREDICTED BY IDOCK:   -0.44 KCAL/MOL
REMARK 927      BINDING AFFINITY PREDICTED BY RF-SCORE:    0.00 PKD
ROOT
HETATM    1  C   UNL     1     -13.417   9.797  72.311  1.00  0.00    -0.443 C  
HETATM    2  C   UNL     1     -12.797  10.853  71.436  1.00  0.00    -0.449 C  
HETATM    3  O   UNL     1     -12.952  12.050  71.671  1.00  0.00    -0.408 OA 
ENDROOT
BRANCH   2   4
HETATM    4  C   UNL     1     -11.979  10.421  70.267  1.00  0.00    -0.387 A  
HETATM    5  C   UNL     1     -11.182   9.285  70.306  1.00  0.00    -0.267 A  
HETATM    6  C   UNL     1     -10.449   8.934  69.180  1.00  0.00    -0.236 A  
HETATM    7  C   UNL     1     -10.493   9.700  68.006  1.00  0.00    -0.229 A  
HETATM    8  S   UNL     1      -9.492   9.084  66.680  1.00  0.00    -0.213 SA 
HETATM    9  C   UNL     1      -9.778  10.267  65.393  1.00  0.00    -0.278 A  
HETATM   10  C   UNL     1     -10.627  11.390  65.524  1.00  0.00    -0.271 A  
HETATM   11  C   UNL     1     -10.721  12.209  64.375  1.00  0.00    -0.366 A  
HETATM   12  N   UNL     1     -11.325  11.663  66.741  1.00  0.00    -0.410 NA 
HETATM   13  C   UNL     1     -11.282  10.865  67.926  1.00  0.00    -0.321 A  
HETATM   14  C   UNL     1     -10.019  11.949  63.187  1.00  0.00    -0.327 A  
HETATM   15  C   UNL     1     -12.020  11.190  69.089  1.00  0.00    -0.413 A  
HETATM   16  C   UNL     1      -9.074  10.011  64.198  1.00  0.00    -0.295 A  
HETATM   17  C   UNL     1      -9.190  10.847  63.098  1.00  0.00    -0.314 A  
BRANCH  12  18
HETATM   18  C   UNL     1     -12.149  12.893  66.817  1.00  0.00    -0.265 C  
BRANCH  18  19
HETATM   19  C   UNL     1     -11.544  13.909  67.799  1.00  0.00    -0.381 C  
BRANCH  19  20
HETATM   20  C   UNL     1     -10.193  14.442  67.300  1.00  0.00    -0.252 C  
BRANCH  20  21
HETATM   21  N   UNL     1      -9.708  15.586  68.092  1.00  0.00    -0.207 NA 
HETATM   22  C   UNL     1      -8.289  15.890  67.830  1.00  0.00    -0.153 C  
HETATM   23  C   UNL     1      -8.042  16.499  66.438  1.00  0.00    -0.327 C  
HETATM   24  N   UNL     1      -8.760  17.773  66.232  1.00  0.00    -0.445 NA 
HETATM   25  C   UNL     1     -10.202  17.538  66.510  1.00  0.00    -0.342 C  
HETATM   26  C   UNL     1     -10.515  16.800  67.843  1.00  0.00    -0.335 C  
BRANCH  24  27
HETATM   27  C   UNL     1      -8.236  18.859  67.097  1.00  0.00    -0.269 C  
BRANCH  27  28
HETATM   28  C   UNL     1      -8.787  20.245  66.724  1.00  0.00    -0.270 C  
HETATM   29  O   UNL     1      -7.804  21.248  66.957  1.00  0.00    -0.717 OA 
HETATM   30  H   UNL     1      -8.145  22.105  66.727  1.00  0.00     0.000 HD 
ENDBRANCH  27  28
ENDBRANCH  24  27
ENDBRANCH  20  21
ENDBRANCH  19  20
ENDBRANCH  18  19
ENDBRANCH  12  18
ENDBRANCH   2   4
TORSDOF 7
ENDMDL
MODEL       15
REMARK 921   NORMALIZED FREE ENERGY PREDICTED BY IDOCK:   -6.58 KCAL/MOL
REMARK 922        TOTAL FREE ENERGY PREDICTED BY IDOCK:  -10.03 KCAL/MOL
REMARK 923 INTER-LIGAND FREE ENERGY PREDICTED BY IDOCK:   -9.43 KCAL/MOL
REMARK 924 INTRA-LIGAND FREE ENERGY PREDICTED BY IDOCK:   -0.59 KCAL/MOL
REMARK 927      BINDING AFFINITY PREDICTED BY RF-SCORE:    0.00 PKD
ROOT
HETATM    1  C   UNL     1     -13.155  10.463  71.871  1.00  0.00    -0.563 C  
HETATM    2  C   UNL     1     -12.130   9.375  71.694  1.00  0.00    -0.388 C  
HETATM    3  O   UNL     1     -11.808   8.643  72.629  1.00  0.00    -0.334 OA 
ENDROOT
BRANCH   2   4
HETATM    4  C   UNL     1     -11.505   9.193  70.354  1.00  0.00    -0.228 A  
HETATM    5  C   UNL     1     -10.816   8.036  70.014  1.00  0.00    -0.235 A  
HETATM    6  C   UNL     1     -10.263   7.926  68.745  1.00  0.00    -0.218 A  
HETATM    7  C   UNL     1     -10.380   8.956  67.800  1.00  0.00    -0.242 A  
HETATM    8  S   UNL     1      -9.610   8.623  66.240  1.00  0.00    -0.237 SA 
HETATM    9  C   UNL     1      -9.942  10.098  65.317  1.00  0.00    -0.311 A  
HETATM   10  C   UNL     1     -10.663  11.204  65.825  1.00  0.00    -0.188 A  
HETATM   11  C   UNL     1     -10.822  12.281  64.924  1.00  0.00    -0.342 A  
HETATM   12  N   UNL     1     -11.178  11.214  67.158  1.00  0.00    -0.371 NA 
HETATM   13  C   UNL     1     -11.063  10.151  68.106  1.00  0.00    -0.230 A  
HETATM   14  C   UNL     1     -10.297  12.277  63.620  1.00  0.00    -0.463 A  
HETATM   15  C   UNL     1     -11.619  10.226  69.405  1.00  0.00    -0.213 A  
HETATM   16  C   UNL     1      -9.417  10.099  64.009  1.00  0.00    -0.341 A  
HETATM   17  C   UNL     1      -9.590  11.182  63.161  1.00  0.00    -0.388 A  
BRANCH  12  18
HETATM   18  C   UNL     1     -11.870  12.436  67.635  1.00  0.00    -0.295 C  
BRANCH  18  19
HETATM   19  C   UNL     1     -10.978  13.246  68.588  1.00  0.00    -0.294 C  
BRANCH  19  20
HETATM   20  C   UNL     1     -10.244  14.376  67.852  1.00  0.00    -0.232 C  
BRANCH  20  21
HETATM   21  N   UNL     1     -11.149  15.460  67.433  1.00  0.00    -0.324 NA 
HETATM   22  C   UNL     1     -11.351  16.467  68.492  1.00  0.00    -0.289 C  
HETATM   23  C   UNL     1     -10.109  17.339  68.750  1.00  0.00    -0.337 C  
HETATM   24  N   UNL     1      -9.686  18.104  67.560  1.00  0.00    -0.296 NA 
HETATM   25  C   UNL     1      -9.492  17.143  66.441  1.00  0.00    -0.269 C  
HETATM   26  C   UNL     1     -10.657  16.137  66.213  1.00  0.00    -0.274 C  
BRANCH  24  27
HETATM   27  C   UNL     1     -10.673  19.146  67.182  1.00  0.00    -0.471 C  
BRANCH  27  28
HETATM   28  C   UNL     1     -10.332  19.846  65.856  1.00  0.00    -0.464 C  
HETATM   29  O   UNL     1      -9.038  20.436  65.927  1.00  0.00    -0.595 OA 
HETATM   30  H   UNL     1      -8.827  20.869  65.108  1.00  0.00     0.000 HD 
ENDBRANCH  27  28
ENDBRANCH  24  27
ENDBRANCH  20  21
ENDBRANCH  19  20
ENDBRANCH  18  19
ENDBRANCH  12  18
ENDBRANCH   2   4
TORSDOF 7
ENDMDL
MODEL       16
REMARK 921   NORMALIZED FREE ENERGY PREDICTED BY IDOCK:   -6.56 KCAL/MOL
REMARK 922        TOTAL FREE ENERGY PREDICTED BY IDOCK:  -10.00 KCAL/MOL
REMARK 923 INTER-LIGAND FREE ENERGY PREDICTED BY IDOCK:   -9.36 KCAL/MOL
REMARK 924 INTRA-LIGAND FREE ENERGY PREDICTED BY IDOCK:   -0.63 KCAL/MOL
REMARK 927      BINDING AFFINITY PREDICTED BY RF-SCORE:    0.00 PKD
ROOT
HETATM    1  C   UNL     1     -10.387  11.564  63.410  1.00  0.00    -0.469 C  
HETATM    2  C   UNL     1     -10.292  11.255  64.879  1.00  0.00    -0.304 C  
HETATM    3  O   UNL     1      -9.943  10.145  65.278  1.00  0.00    -0.300 OA 
ENDROOT
BRANCH   2   4
HETATM    4  C   UNL     1     -10.627  12.329  65.857  1.00  0.00    -0.290 A  
HETATM    5  C   UNL     1     -10.403  13.671  65.582  1.00  0.00    -0.309 A  
HETATM    6  C   UNL     1     -10.745  14.623  66.534  1.00  0.00    -0.312 A  
HETATM    7  C   UNL     1     -11.306  14.261  67.767  1.00  0.00    -0.307 A  
HETATM    8  S   UNL     1     -11.674  15.620  68.842  1.00  0.00    -0.353 SA 
HETATM    9  C   UNL     1     -12.347  14.817  70.270  1.00  0.00    -0.345 A  
HETATM   10  C   UNL     1     -12.499  13.416  70.393  1.00  0.00    -0.252 A  
HETATM   11  C   UNL     1     -13.062  12.978  71.614  1.00  0.00    -0.440 A  
HETATM   12  N   UNL     1     -12.099  12.525  69.350  1.00  0.00    -0.231 NA 
HETATM   13  C   UNL     1     -11.541  12.909  68.092  1.00  0.00    -0.336 A  
HETATM   14  C   UNL     1     -13.437  13.855  72.646  1.00  0.00    -0.652 A  
HETATM   15  C   UNL     1     -11.188  11.967  67.096  1.00  0.00    -0.374 A  
HETATM   16  C   UNL     1     -12.724  15.692  71.310  1.00  0.00    -0.537 A  
HETATM   17  C   UNL     1     -13.265  15.218  72.495  1.00  0.00    -0.527 A  
BRANCH  12  18
HETATM   18  C   UNL     1     -12.236  11.067  69.580  1.00  0.00    -0.300 C  
BRANCH  18  19
HETATM   19  C   UNL     1     -10.945  10.471  70.164  1.00  0.00    -0.338 C  
BRANCH  19  20
HETATM   20  C   UNL     1     -11.243   9.318  71.133  1.00  0.00    -0.343 C  
BRANCH  20  21
HETATM   21  N   UNL     1     -10.161   8.319  71.175  1.00  0.00    -0.186 NA 
HETATM   22  C   UNL     1      -9.684   8.062  72.546  1.00  0.00    -0.258 C  
HETATM   23  C   UNL     1     -10.695   7.288  73.409  1.00  0.00    -0.369 C  
HETATM   24  N   UNL     1     -11.027   5.960  72.856  1.00  0.00    -0.255 NA 
HETATM   25  C   UNL     1     -11.490   6.148  71.455  1.00  0.00    -0.254 C  
HETATM   26  C   UNL     1     -10.579   7.039  70.563  1.00  0.00    -0.224 C  
BRANCH  24  27
HETATM   27  C   UNL     1      -9.870   5.030  72.898  1.00  0.00    -0.153 C  
BRANCH  27  28
HETATM   28  C   UNL     1     -10.224   3.608  72.432  1.00  0.00    -0.145 C  
HETATM   29  O   UNL     1     -11.152   3.009  73.330  1.00  0.00    -0.202 OA 
HETATM   30  H   UNL     1     -11.371   2.131  73.042  1.00  0.00     0.000 HD 
ENDBRANCH  27  28
ENDBRANCH  24  27
ENDBRANCH  20  21
ENDBRANCH  19  20
ENDBRANCH  18  19
ENDBRANCH  12  18
ENDBRANCH   2   4
TORSDOF 7
ENDMDL
MODEL       17
REMARK 921   NORMALIZED FREE ENERGY PREDICTED BY IDOCK:   -6.43 KCAL/MOL
REMARK 922        TOTAL FREE ENERGY PREDICTED BY IDOCK:   -9.82 KCAL/MOL
REMARK 923 INTER-LIGAND FREE ENERGY PREDICTED BY IDOCK:   -9.26 KCAL/MOL
REMARK 924 INTRA-LIGAND FREE ENERGY PREDICTED BY IDOCK:   -0.56 KCAL/MOL
REMARK 927      BINDING AFFINITY PREDICTED BY RF-SCORE:    0.00 PKD
ROOT
HETATM    1  C   UNL     1     -10.065   7.502  66.881  1.00  0.00    -0.336 C  
HETATM    2  C   UNL     1      -9.547   7.865  68.247  1.00  0.00    -0.156 C  
HETATM    3  O   UNL     1      -8.401   7.580  68.592  1.00  0.00    -0.127 OA 
ENDROOT
BRANCH   2   4
HETATM    4  C   UNL     1     -10.452   8.586  69.186  1.00  0.00    -0.217 A  
HETATM    5  C   UNL     1     -11.153   7.925  70.186  1.00  0.00    -0.204 A  
HETATM    6  C   UNL     1     -11.975   8.657  71.033  1.00  0.00    -0.278 A  
HETATM    7  C   UNL     1     -12.117  10.046  70.901  1.00  0.00    -0.355 A  
HETATM    8  S   UNL     1     -13.206  10.796  72.079  1.00  0.00    -0.190 SA 
HETATM    9  C   UNL     1     -13.151  12.508  71.627  1.00  0.00    -0.315 A  
HETATM   10  C   UNL     1     -12.380  13.020  70.558  1.00  0.00    -0.287 A  
HETATM   11  C   UNL     1     -12.473  14.418  70.367  1.00  0.00    -0.420 A  
HETATM   12  N   UNL     1     -11.576  12.168  69.738  1.00  0.00    -0.289 NA 
HETATM   13  C   UNL     1     -11.431  10.755  69.894  1.00  0.00    -0.321 A  
HETATM   14  C   UNL     1     -13.278  15.250  71.161  1.00  0.00    -0.567 A  
HETATM   15  C   UNL     1     -10.597   9.979  69.053  1.00  0.00    -0.235 A  
HETATM   16  C   UNL     1     -13.959  13.348  72.420  1.00  0.00    -0.605 A  
HETATM   17  C   UNL     1     -14.027  14.713  72.191  1.00  0.00    -0.591 A  
BRANCH  12  18
HETATM   18  C   UNL     1     -10.844  12.774  68.601  1.00  0.00    -0.253 C  
BRANCH  18  19
HETATM   19  C   UNL     1     -11.771  12.994  67.394  1.00  0.00    -0.427 C  
BRANCH  19  20
HETATM   20  C   UNL     1     -11.569  14.383  66.772  1.00  0.00    -0.385 C  
BRANCH  20  21
HETATM   21  N   UNL     1     -10.220  14.922  67.015  1.00  0.00    -0.254 NA 
HETATM   22  C   UNL     1      -9.576  15.407  65.780  1.00  0.00    -0.333 C  
HETATM   23  C   UNL     1     -10.205  16.700  65.232  1.00  0.00     0.014 C  
HETATM   24  N   UNL     1     -10.126  17.827  66.183  1.00  0.00    -0.470 NA 
HETATM   25  C   UNL     1     -10.737  17.389  67.467  1.00  0.00    -0.278 C  
HETATM   26  C   UNL     1     -10.243  16.017  68.009  1.00  0.00    -0.245 C  
BRANCH  24  27
HETATM   27  C   UNL     1      -8.729  18.280  66.402  1.00  0.00    -0.241 C  
BRANCH  27  28
HETATM   28  C   UNL     1      -8.642  19.694  67.001  1.00  0.00    -0.312 C  
HETATM   29  O   UNL     1      -9.173  20.650  66.089  1.00  0.00    -0.583 OA 
HETATM   30  H   UNL     1      -9.118  21.524  66.459  1.00  0.00     0.000 HD 
ENDBRANCH  27  28
ENDBRANCH  24  27
ENDBRANCH  20  21
ENDBRANCH  19  20
ENDBRANCH  18  19
ENDBRANCH  12  18
ENDBRANCH   2   4
TORSDOF 7
ENDMDL
MODEL       18
REMARK 921   NORMALIZED FREE ENERGY PREDICTED BY IDOCK:   -6.39 KCAL/MOL
REMARK 922        TOTAL FREE ENERGY PREDICTED BY IDOCK:   -9.76 KCAL/MOL
REMARK 923 INTER-LIGAND FREE ENERGY PREDICTED BY IDOCK:   -9.16 KCAL/MOL
REMARK 924 INTRA-LIGAND FREE ENERGY PREDICTED BY IDOCK:   -0.60 KCAL/MOL
REMARK 927      BINDING AFFINITY PREDICTED BY RF-SCORE:    0.00 PKD
ROOT
HETATM    1  C   UNL     1     -11.290  12.795  63.781  1.00  0.00    -0.520 C  
HETATM    2  C   UNL     1     -10.218  11.744  63.681  1.00  0.00    -0.428 C  
HETATM    3  O   UNL     1      -9.482  11.673  62.698  1.00  0.00    -0.288 OA 
ENDROOT
BRANCH   2   4
HETATM    4  C   UNL     1     -10.057  10.778  64.805  1.00  0.00    -0.396 A  
HETATM    5  C   UNL     1      -9.339   9.598  64.663  1.00  0.00    -0.271 A  
HETATM    6  C   UNL     1      -9.220   8.744  65.752  1.00  0.00    -0.269 A  
HETATM    7  C   UNL     1      -9.810   9.043  66.989  1.00  0.00    -0.209 A  
HETATM    8  S   UNL     1      -9.541   7.832  68.253  1.00  0.00    -0.158 SA 
HETATM    9  C   UNL     1     -10.406   8.513  69.639  1.00  0.00    -0.218 A  
HETATM   10  C   UNL     1     -11.105   9.742  69.610  1.00  0.00    -0.217 A  
HETATM   11  C   UNL     1     -11.725  10.110  70.826  1.00  0.00    -0.446 A  
HETATM   12  N   UNL     1     -11.174  10.537  68.423  1.00  0.00    -0.280 NA 
HETATM   13  C   UNL     1     -10.555  10.226  67.173  1.00  0.00    -0.260 A  
HETATM   14  C   UNL     1     -11.673   9.317  71.985  1.00  0.00    -0.336 A  
HETATM   15  C   UNL     1     -10.650  11.075  66.045  1.00  0.00    -0.275 A  
HETATM   16  C   UNL     1     -10.358   7.721  70.805  1.00  0.00    -0.206 A  
HETATM   17  C   UNL     1     -10.988   8.117  71.974  1.00  0.00    -0.350 A  
BRANCH  12  18
HETATM   18  C   UNL     1     -11.976  11.783  68.458  1.00  0.00    -0.215 C  
BRANCH  18  19
HETATM   19  C   UNL     1     -11.197  12.930  69.119  1.00  0.00    -0.293 C  
BRANCH  19  20
HETATM   20  C   UNL     1     -10.427  13.760  68.082  1.00  0.00    -0.249 C  
BRANCH  20  21
HETATM   21  N   UNL     1     -11.221  14.880  67.548  1.00  0.00    -0.318 NA 
HETATM   22  C   UNL     1     -11.614  15.842  68.595  1.00  0.00    -0.386 C  
HETATM   23  C   UNL     1     -10.437  16.677  69.129  1.00  0.00    -0.333 C  
HETATM   24  N   UNL     1      -9.783  17.486  68.081  1.00  0.00    -0.289 NA 
HETATM   25  C   UNL     1      -9.386  16.572  66.976  1.00  0.00    -0.230 C  
HETATM   26  C   UNL     1     -10.495  15.601  66.480  1.00  0.00    -0.302 C  
BRANCH  24  27
HETATM   27  C   UNL     1     -10.667  18.563  67.570  1.00  0.00    -0.377 C  
BRANCH  27  28
HETATM   28  C   UNL     1     -10.111  19.252  66.312  1.00  0.00    -0.442 C  
HETATM   29  O   UNL     1      -9.523  20.503  66.652  1.00  0.00    -0.598 OA 
HETATM   30  H   UNL     1      -9.180  20.928  65.874  1.00  0.00     0.000 HD 
ENDBRANCH  27  28
ENDBRANCH  24  27
ENDBRANCH  20  21
ENDBRANCH  19  20
ENDBRANCH  18  19
ENDBRANCH  12  18
ENDBRANCH   2   4
TORSDOF 7
ENDMDL
MODEL       19
REMARK 921   NORMALIZED FREE ENERGY PREDICTED BY IDOCK:   -6.38 KCAL/MOL
REMARK 922        TOTAL FREE ENERGY PREDICTED BY IDOCK:   -9.75 KCAL/MOL
REMARK 923 INTER-LIGAND FREE ENERGY PREDICTED BY IDOCK:   -9.06 KCAL/MOL
REMARK 924 INTRA-LIGAND FREE ENERGY PREDICTED BY IDOCK:   -0.69 KCAL/MOL
REMARK 927      BINDING AFFINITY PREDICTED BY RF-SCORE:    0.00 PKD
ROOT
HETATM    1  C   UNL     1      -8.478  10.735  62.341  1.00  0.00    -0.308 C  
HETATM    2  C   UNL     1      -9.478  11.275  63.326  1.00  0.00    -0.327 C  
HETATM    3  O   UNL     1     -10.132  12.289  63.083  1.00  0.00    -0.375 OA 
ENDROOT
BRANCH   2   4
HETATM    4  C   UNL     1      -9.671  10.555  64.616  1.00  0.00    -0.369 A  
HETATM    5  C   UNL     1      -9.139   9.291  64.840  1.00  0.00    -0.227 A  
HETATM    6  C   UNL     1      -9.349   8.676  66.068  1.00  0.00    -0.284 A  
HETATM    7  C   UNL     1     -10.089   9.298  67.084  1.00  0.00    -0.236 A  
HETATM    8  S   UNL     1     -10.240   8.354  68.575  1.00  0.00    -0.196 SA 
HETATM    9  C   UNL     1     -11.212   9.412  69.611  1.00  0.00    -0.074 A  
HETATM   10  C   UNL     1     -11.688  10.684  69.218  1.00  0.00    -0.264 A  
HETATM   11  C   UNL     1     -12.442  11.372  70.197  1.00  0.00    -0.271 A  
HETATM   12  N   UNL     1     -11.421  11.216  67.918  1.00  0.00    -0.456 NA 
HETATM   13  C   UNL     1     -10.654  10.576  66.896  1.00  0.00    -0.243 A  
HETATM   14  C   UNL     1     -12.719  10.839  71.467  1.00  0.00    -0.536 A  
HETATM   15  C   UNL     1     -10.414  11.175  65.637  1.00  0.00    -0.308 A  
HETATM   16  C   UNL     1     -11.494   8.882  70.887  1.00  0.00    -0.339 A  
HETATM   17  C   UNL     1     -12.246   9.588  71.813  1.00  0.00    -0.465 A  
BRANCH  12  18
HETATM   18  C   UNL     1     -12.007  12.530  67.562  1.00  0.00    -0.219 C  
BRANCH  18  19
HETATM   19  C   UNL     1     -11.114  13.686  68.040  1.00  0.00    -0.285 C  
BRANCH  19  20
HETATM   20  C   UNL     1     -10.776  14.650  66.893  1.00  0.00    -0.294 C  
BRANCH  20  21
HETATM   21  N   UNL     1      -9.570  15.451  67.164  1.00  0.00    -0.210 NA 
HETATM   22  C   UNL     1      -9.352  16.500  66.151  1.00  0.00    -0.304 C  
HETATM   23  C   UNL     1     -10.371  17.650  66.233  1.00  0.00    -0.342 C  
HETATM   24  N   UNL     1     -10.345  18.351  67.532  1.00  0.00    -0.374 NA 
HETATM   25  C   UNL     1     -10.533  17.337  68.605  1.00  0.00    -0.356 C  
HETATM   26  C   UNL     1      -9.624  16.079  68.503  1.00  0.00    -0.215 C  
BRANCH  24  27
HETATM   27  C   UNL     1      -9.080  19.098  67.742  1.00  0.00    -0.299 C  
BRANCH  27  28
HETATM   28  C   UNL     1      -9.044  20.442  66.995  1.00  0.00    -0.333 C  
HETATM   29  O   UNL     1      -7.758  21.041  67.116  1.00  0.00    -0.550 OA 
HETATM   30  H   UNL     1      -7.736  21.872  66.655  1.00  0.00     0.000 HD 
ENDBRANCH  27  28
ENDBRANCH  24  27
ENDBRANCH  20  21
ENDBRANCH  19  20
ENDBRANCH  18  19
ENDBRANCH  12  18
ENDBRANCH   2   4
TORSDOF 7
ENDMDL
MODEL       20
REMARK 921   NORMALIZED FREE ENERGY PREDICTED BY IDOCK:   -6.34 KCAL/MOL
REMARK 922        TOTAL FREE ENERGY PREDICTED BY IDOCK:   -9.69 KCAL/MOL
REMARK 923 INTER-LIGAND FREE ENERGY PREDICTED BY IDOCK:   -8.72 KCAL/MOL
REMARK 924 INTRA-LIGAND FREE ENERGY PREDICTED BY IDOCK:   -0.97 KCAL/MOL
REMARK 927      BINDING AFFINITY PREDICTED BY RF-SCORE:    0.00 PKD
ROOT
HETATM    1  C   UNL     1     -11.230  15.541  64.491  1.00  0.00    -0.327 C  
HETATM    2  C   UNL     1     -11.823  14.227  64.061  1.00  0.00    -0.237 C  
HETATM    3  O   UNL     1     -12.641  14.165  63.143  1.00  0.00    -0.686 OA 
ENDROOT
BRANCH   2   4
HETATM    4  C   UNL     1     -11.398  12.986  64.767  1.00  0.00    -0.348 A  
HETATM    5  C   UNL     1     -10.768  11.941  64.104  1.00  0.00    -0.402 A  
HETATM    6  C   UNL     1     -10.390  10.814  64.823  1.00  0.00    -0.380 A  
HETATM    7  C   UNL     1     -10.634  10.704  66.199  1.00  0.00    -0.142 A  
HETATM    8  S   UNL     1     -10.074   9.192  66.934  1.00  0.00    -0.268 SA 
HETATM    9  C   UNL     1     -10.536   9.388  68.632  1.00  0.00    -0.209 A  
HETATM   10  C   UNL     1     -11.191  10.531  69.148  1.00  0.00    -0.256 A  
HETATM   11  C   UNL     1     -11.467  10.490  70.534  1.00  0.00    -0.433 A  
HETATM   12  N   UNL     1     -11.546  11.633  68.310  1.00  0.00    -0.338 NA 
HETATM   13  C   UNL     1     -11.279  11.737  66.909  1.00  0.00    -0.327 A  
HETATM   14  C   UNL     1     -11.134   9.397  71.352  1.00  0.00    -0.450 A  
HETATM   15  C   UNL     1     -11.643  12.873  66.148  1.00  0.00    -0.423 A  
HETATM   16  C   UNL     1     -10.205   8.294  69.457  1.00  0.00    -0.210 A  
HETATM   17  C   UNL     1     -10.503   8.293  70.812  1.00  0.00    -0.223 A  
BRANCH  12  18
HETATM   18  C   UNL     1     -12.284  12.766  68.915  1.00  0.00     0.020 C  
BRANCH  18  19
HETATM   19  C   UNL     1     -11.331  13.731  69.638  1.00  0.00    -0.241 C  
BRANCH  19  20
HETATM   20  C   UNL     1     -11.572  15.187  69.215  1.00  0.00    -0.324 C  
BRANCH  20  21
HETATM   21  N   UNL     1     -10.799  15.565  68.019  1.00  0.00    -0.290 NA 
HETATM   22  C   UNL     1     -10.813  17.019  67.776  1.00  0.00    -0.269 C  
HETATM   23  C   UNL     1      -9.986  17.817  68.801  1.00  0.00    -0.367 C  
HETATM   24  N   UNL     1      -8.560  17.436  68.813  1.00  0.00    -0.257 NA 
HETATM   25  C   UNL     1      -8.479  15.965  69.026  1.00  0.00    -0.242 C  
HETATM   26  C   UNL     1      -9.396  15.105  68.112  1.00  0.00    -0.192 C  
BRANCH  24  27
HETATM   27  C   UNL     1      -7.868  17.815  67.555  1.00  0.00    -0.207 C  
BRANCH  27  28
HETATM   28  C   UNL     1      -8.044  19.300  67.196  1.00  0.00    -0.266 C  
HETATM   29  O   UNL     1      -8.701  19.430  65.940  1.00  0.00    -0.427 OA 
HETATM   30  H   UNL     1      -8.809  20.348  65.717  1.00  0.00     0.000 HD 
ENDBRANCH  27  28
ENDBRANCH  24  27
ENDBRANCH  20  21
ENDBRANCH  19  20
ENDBRANCH  18  19
ENDBRANCH  12  18
ENDBRANCH   2   4
TORSDOF 7
ENDMDL
MODEL       21
REMARK 921   NORMALIZED FREE ENERGY PREDICTED BY IDOCK:   -6.29 KCAL/MOL
REMARK 922        TOTAL FREE ENERGY PREDICTED BY IDOCK:   -9.62 KCAL/MOL
REMARK 923 INTER-LIGAND FREE ENERGY PREDICTED BY IDOCK:   -8.70 KCAL/MOL
REMARK 924 INTRA-LIGAND FREE ENERGY PREDICTED BY IDOCK:   -0.91 KCAL/MOL
REMARK 927      BINDING AFFINITY PREDICTED BY RF-SCORE:    0.00 PKD
ROOT
HETATM    1  C   UNL     1      -9.263   9.491  64.901  1.00  0.00    -0.284 C  
HETATM    2  C   UNL     1     -10.043   9.496  66.188  1.00  0.00    -0.256 C  
HETATM    3  O   UNL     1     -10.523   8.461  66.648  1.00  0.00    -0.294 OA 
ENDROOT
BRANCH   2   4
HETATM    4  C   UNL     1     -10.225  10.788  66.908  1.00  0.00    -0.274 A  
HETATM    5  C   UNL     1      -9.595  11.955  66.496  1.00  0.00    -0.226 A  
HETATM    6  C   UNL     1      -9.813  13.129  67.207  1.00  0.00    -0.232 A  
HETATM    7  C   UNL     1     -10.649  13.162  68.332  1.00  0.00    -0.251 A  
HETATM    8  S   UNL     1     -10.800  14.752  69.098  1.00  0.00    -0.266 SA 
HETATM    9  C   UNL     1     -11.897  14.432  70.451  1.00  0.00    -0.312 A  
HETATM   10  C   UNL     1     -12.450  13.163  70.738  1.00  0.00    -0.308 A  
HETATM   11  C   UNL     1     -13.307  13.122  71.861  1.00  0.00    -0.546 A  
HETATM   12  N   UNL     1     -12.145  12.015  69.943  1.00  0.00    -0.290 NA 
HETATM   13  C   UNL     1     -11.301  11.999  68.790  1.00  0.00    -0.278 A  
HETATM   14  C   UNL     1     -13.590  14.248  72.653  1.00  0.00    -0.601 A  
HETATM   15  C   UNL     1     -11.062  10.824  68.038  1.00  0.00    -0.359 A  
HETATM   16  C   UNL     1     -12.183  15.559  71.249  1.00  0.00    -0.447 A  
HETATM   17  C   UNL     1     -13.025  15.471  72.348  1.00  0.00    -0.511 A  
BRANCH  12  18
HETATM   18  C   UNL     1     -12.717  10.709  70.346  1.00  0.00    -0.265 C  
BRANCH  18  19
HETATM   19  C   UNL     1     -11.927  10.089  71.510  1.00  0.00    -0.438 C  
BRANCH  19  20
HETATM   20  C   UNL     1     -12.493   8.720  71.912  1.00  0.00    -0.372 C  
BRANCH  20  21
HETATM   21  N   UNL     1     -11.439   7.728  72.182  1.00  0.00    -0.291 NA 
HETATM   22  C   UNL     1     -11.710   6.427  71.542  1.00  0.00    -0.313 C  
HETATM   23  C   UNL     1     -11.559   6.458  70.010  1.00  0.00    -0.377 C  
HETATM   24  N   UNL     1     -10.199   6.832  69.574  1.00  0.00    -0.178 NA 
HETATM   25  C   UNL     1      -9.851   8.130  70.213  1.00  0.00    -0.184 C  
HETATM   26  C   UNL     1     -10.111   8.212  71.744  1.00  0.00    -0.205 C  
BRANCH  24  27
HETATM   27  C   UNL     1      -9.193   5.798  69.923  1.00  0.00    -0.144 C  
BRANCH  27  28
HETATM   28  C   UNL     1      -8.282   5.422  68.742  1.00  0.00    -0.094 C  
HETATM   29  O   UNL     1      -8.692   6.107  67.563  1.00  0.00    -0.107 OA 
HETATM   30  H   UNL     1      -8.129   5.874  66.834  1.00  0.00     0.000 HD 
ENDBRANCH  27  28
ENDBRANCH  24  27
ENDBRANCH  20  21
ENDBRANCH  19  20
ENDBRANCH  18  19
ENDBRANCH  12  18
ENDBRANCH   2   4
TORSDOF 7
ENDMDL
MODEL       22
REMARK 921   NORMALIZED FREE ENERGY PREDICTED BY IDOCK:   -6.24 KCAL/MOL
REMARK 922        TOTAL FREE ENERGY PREDICTED BY IDOCK:   -9.54 KCAL/MOL
REMARK 923 INTER-LIGAND FREE ENERGY PREDICTED BY IDOCK:   -9.01 KCAL/MOL
REMARK 924 INTRA-LIGAND FREE ENERGY PREDICTED BY IDOCK:   -0.53 KCAL/MOL
REMARK 927      BINDING AFFINITY PREDICTED BY RF-SCORE:    0.00 PKD
ROOT
HETATM    1  C   UNL     1     -11.520  11.711  64.056  1.00  0.00    -0.404 C  
HETATM    2  C   UNL     1     -11.825  13.178  63.922  1.00  0.00    -0.472 C  
HETATM    3  O   UNL     1     -12.706  13.581  63.164  1.00  0.00    -0.718 OA 
ENDROOT
BRANCH   2   4
HETATM    4  C   UNL     1     -11.037  14.148  64.734  1.00  0.00    -0.393 A  
HETATM    5  C   UNL     1     -11.181  15.521  64.583  1.00  0.00    -0.381 A  
HETATM    6  C   UNL     1     -10.422  16.373  65.376  1.00  0.00    -0.333 A  
HETATM    7  C   UNL     1      -9.512  15.879  66.322  1.00  0.00    -0.318 A  
HETATM    8  S   UNL     1      -8.643  17.123  67.236  1.00  0.00    -0.205 SA 
HETATM    9  C   UNL     1      -7.605  16.169  68.306  1.00  0.00    -0.146 A  
HETATM   10  C   UNL     1      -7.574  14.755  68.326  1.00  0.00    -0.115 A  
HETATM   11  C   UNL     1      -6.678  14.187  69.260  1.00  0.00    -0.122 A  
HETATM   12  N   UNL     1      -8.394  13.976  67.451  1.00  0.00    -0.186 NA 
HETATM   13  C   UNL     1      -9.328  14.493  66.501  1.00  0.00    -0.284 A  
HETATM   14  C   UNL     1      -5.859  14.955  70.105  1.00  0.00    -0.141 A  
HETATM   15  C   UNL     1     -10.122  13.656  65.682  1.00  0.00    -0.299 A  
HETATM   16  C   UNL     1      -6.780  16.935  69.156  1.00  0.00    -0.232 A  
HETATM   17  C   UNL     1      -5.909  16.335  70.051  1.00  0.00    -0.185 A  
BRANCH  12  18
HETATM   18  C   UNL     1      -8.259  12.500  67.491  1.00  0.00    -0.175 C  
BRANCH  18  19
HETATM   19  C   UNL     1      -9.427  11.854  68.252  1.00  0.00    -0.197 C  
BRANCH  19  20
HETATM   20  C   UNL     1      -9.005  10.538  68.923  1.00  0.00    -0.172 C  
BRANCH  20  21
HETATM   21  N   UNL     1     -10.068   9.519  68.889  1.00  0.00    -0.181 NA 
HETATM   22  C   UNL     1      -9.857   8.451  69.884  1.00  0.00    -0.186 C  
HETATM   23  C   UNL     1     -10.080   8.916  71.334  1.00  0.00    -0.309 C  
HETATM   24  N   UNL     1     -11.450   9.410  71.577  1.00  0.00    -0.376 NA 
HETATM   25  C   UNL     1     -11.737  10.477  70.580  1.00  0.00    -0.350 C  
HETATM   26  C   UNL     1     -11.404  10.120  69.103  1.00  0.00    -0.143 C  
BRANCH  24  27
HETATM   27  C   UNL     1     -12.462   8.328  71.483  1.00  0.00    -0.312 C  
BRANCH  27  28
HETATM   28  C   UNL     1     -13.866   8.777  71.921  1.00  0.00    -0.442 C  
HETATM   29  O   UNL     1     -13.920   8.920  73.337  1.00  0.00    -1.236 OA 
HETATM   30  H   UNL     1     -14.788   9.197  73.607  1.00  0.00     0.000 HD 
ENDBRANCH  27  28
ENDBRANCH  24  27
ENDBRANCH  20  21
ENDBRANCH  19  20
ENDBRANCH  18  19
ENDBRANCH  12  18
ENDBRANCH   2   4
TORSDOF 7
ENDMDL
MODEL       23
REMARK 921   NORMALIZED FREE ENERGY PREDICTED BY IDOCK:   -6.18 KCAL/MOL
REMARK 922        TOTAL FREE ENERGY PREDICTED BY IDOCK:   -9.47 KCAL/MOL
REMARK 923 INTER-LIGAND FREE ENERGY PREDICTED BY IDOCK:   -8.63 KCAL/MOL
REMARK 924 INTRA-LIGAND FREE ENERGY PREDICTED BY IDOCK:   -0.84 KCAL/MOL
REMARK 927      BINDING AFFINITY PREDICTED BY RF-SCORE:    0.00 PKD
ROOT
HETATM    1  C   UNL     1      -8.991   8.881  65.736  1.00  0.00    -0.249 C  
HETATM    2  C   UNL     1     -10.179   8.961  66.656  1.00  0.00    -0.268 C  
HETATM    3  O   UNL     1     -10.756   7.946  67.043  1.00  0.00    -0.339 OA 
ENDROOT
BRANCH   2   4
HETATM    4  C   UNL     1     -10.650  10.303  67.100  1.00  0.00    -0.320 A  
HETATM    5  C   UNL     1     -10.663  11.398  66.246  1.00  0.00    -0.322 A  
HETATM    6  C   UNL     1     -11.121  12.620  66.720  1.00  0.00    -0.318 A  
HETATM    7  C   UNL     1     -11.566  12.776  68.041  1.00  0.00    -0.341 A  
HETATM    8  S   UNL     1     -12.114  14.410  68.452  1.00  0.00    -0.166 SA 
HETATM    9  C   UNL     1     -12.589  14.248  70.150  1.00  0.00    -0.282 A  
HETATM   10  C   UNL     1     -12.501  13.043  70.885  1.00  0.00    -0.310 A  
HETATM   11  C   UNL     1     -12.936  13.126  72.228  1.00  0.00    -0.354 A  
HETATM   12  N   UNL     1     -11.999  11.841  70.297  1.00  0.00    -0.354 NA 
HETATM   13  C   UNL     1     -11.561  11.694  68.944  1.00  0.00    -0.314 A  
HETATM   14  C   UNL     1     -13.411  14.313  72.810  1.00  0.00    -0.621 A  
HETATM   15  C   UNL     1     -11.095  10.462  68.425  1.00  0.00    -0.322 A  
HETATM   16  C   UNL     1     -13.065  15.437  70.740  1.00  0.00    -0.479 A  
HETATM   17  C   UNL     1     -13.474  15.474  72.064  1.00  0.00    -0.578 A  
BRANCH  12  18
HETATM   18  C   UNL     1     -11.882  10.636  71.151  1.00  0.00    -0.241 C  
BRANCH  18  19
HETATM   19  C   UNL     1     -13.097   9.711  70.980  1.00  0.00    -0.310 C  
BRANCH  19  20
HETATM   20  C   UNL     1     -12.735   8.245  71.260  1.00  0.00    -0.197 C  
BRANCH  20  21
HETATM   21  N   UNL     1     -11.300   8.058  71.531  1.00  0.00    -0.252 NA 
HETATM   22  C   UNL     1     -11.054   7.293  72.768  1.00  0.00    -0.319 C  
HETATM   23  C   UNL     1     -11.425   5.804  72.648  1.00  0.00    -0.287 C  
HETATM   24  N   UNL     1     -10.660   5.103  71.597  1.00  0.00    -0.192 NA 
HETATM   25  C   UNL     1     -10.844   5.847  70.322  1.00  0.00    -0.320 C  
HETATM   26  C   UNL     1     -10.618   7.383  70.404  1.00  0.00    -0.228 C  
BRANCH  24  27
HETATM   27  C   UNL     1      -9.217   4.995  71.930  1.00  0.00    -0.137 C  
BRANCH  27  28
HETATM   28  C   UNL     1      -8.962   4.324  73.290  1.00  0.00    -0.104 C  
HETATM   29  O   UNL     1      -8.294   5.224  74.168  1.00  0.00    -0.109 OA 
HETATM   30  H   UNL     1      -8.136   4.809  75.008  1.00  0.00     0.000 HD 
ENDBRANCH  27  28
ENDBRANCH  24  27
ENDBRANCH  20  21
ENDBRANCH  19  20
ENDBRANCH  18  19
ENDBRANCH  12  18
ENDBRANCH   2   4
TORSDOF 7
ENDMDL
MODEL       24
REMARK 921   NORMALIZED FREE ENERGY PREDICTED BY IDOCK:   -6.17 KCAL/MOL
REMARK 922        TOTAL FREE ENERGY PREDICTED BY IDOCK:   -9.45 KCAL/MOL
REMARK 923 INTER-LIGAND FREE ENERGY PREDICTED BY IDOCK:   -9.09 KCAL/MOL
REMARK 924 INTRA-LIGAND FREE ENERGY PREDICTED BY IDOCK:   -0.35 KCAL/MOL
REMARK 927      BINDING AFFINITY PREDICTED BY RF-SCORE:    0.00 PKD
ROOT
HETATM    1  C   UNL     1      -6.851   3.692  67.803  1.00  0.00    -0.050 C  
HETATM    2  C   UNL     1      -7.535   5.018  67.603  1.00  0.00    -0.079 C  
HETATM    3  O   UNL     1      -7.221   5.766  66.678  1.00  0.00    -0.071 OA 
ENDROOT
BRANCH   2   4
HETATM    4  C   UNL     1      -8.614   5.415  68.550  1.00  0.00    -0.098 A  
HETATM    5  C   UNL     1      -9.288   4.484  69.331  1.00  0.00    -0.217 A  
HETATM    6  C   UNL     1     -10.279   4.920  70.200  1.00  0.00    -0.310 A  
HETATM    7  C   UNL     1     -10.620   6.277  70.305  1.00  0.00    -0.248 A  
HETATM    8  S   UNL     1     -11.906   6.631  71.470  1.00  0.00    -0.346 SA 
HETATM    9  C   UNL     1     -12.075   8.389  71.343  1.00  0.00    -0.301 A  
HETATM   10  C   UNL     1     -11.304   9.198  70.477  1.00  0.00    -0.257 A  
HETATM   11  C   UNL     1     -11.593  10.581  70.531  1.00  0.00    -0.441 A  
HETATM   12  N   UNL     1     -10.314   8.637  69.611  1.00  0.00    -0.209 NA 
HETATM   13  C   UNL     1      -9.968   7.253  69.524  1.00  0.00    -0.170 A  
HETATM   14  C   UNL     1     -12.580  11.127  71.368  1.00  0.00    -0.479 A  
HETATM   15  C   UNL     1      -8.959   6.774  68.656  1.00  0.00    -0.125 A  
HETATM   16  C   UNL     1     -13.066   8.942  72.180  1.00  0.00    -0.475 A  
HETATM   17  C   UNL     1     -13.321  10.305  72.195  1.00  0.00    -0.404 A  
BRANCH  12  18
HETATM   18  C   UNL     1      -9.591   9.546  68.690  1.00  0.00    -0.146 C  
BRANCH  18  19
HETATM   19  C   UNL     1     -10.227   9.543  67.291  1.00  0.00    -0.295 C  
BRANCH  19  20
HETATM   20  C   UNL     1     -11.102  10.785  67.066  1.00  0.00    -0.174 C  
BRANCH  20  21
HETATM   21  N   UNL     1     -10.476  11.762  66.158  1.00  0.00    -0.237 NA 
HETATM   22  C   UNL     1     -11.023  11.693  64.791  1.00  0.00    -0.289 C  
HETATM   23  C   UNL     1     -12.464  12.224  64.683  1.00  0.00    -0.341 C  
HETATM   24  N   UNL     1     -12.587  13.640  65.082  1.00  0.00    -0.605 NA 
HETATM   25  C   UNL     1     -12.022  13.783  66.451  1.00  0.00    -0.438 C  
HETATM   26  C   UNL     1     -10.620  13.145  66.665  1.00  0.00    -0.279 C  
BRANCH  24  27
HETATM   27  C   UNL     1     -11.894  14.552  64.137  1.00  0.00    -0.267 C  
BRANCH  27  28
HETATM   28  C   UNL     1     -11.282  15.782  64.828  1.00  0.00    -0.366 C  
HETATM   29  O   UNL     1     -11.390  16.926  63.987  1.00  0.00    -1.375 OA 
HETATM   30  H   UNL     1     -11.011  17.686  64.414  1.00  0.00     0.000 HD 
ENDBRANCH  27  28
ENDBRANCH  24  27
ENDBRANCH  20  21
ENDBRANCH  19  20
ENDBRANCH  18  19
ENDBRANCH  12  18
ENDBRANCH   2   4
TORSDOF 7
ENDMDL
MODEL       25
REMARK 921   NORMALIZED FREE ENERGY PREDICTED BY IDOCK:   -6.14 KCAL/MOL
REMARK 922        TOTAL FREE ENERGY PREDICTED BY IDOCK:   -9.41 KCAL/MOL
REMARK 923 INTER-LIGAND FREE ENERGY PREDICTED BY IDOCK:   -8.78 KCAL/MOL
REMARK 924 INTRA-LIGAND FREE ENERGY PREDICTED BY IDOCK:   -0.62 KCAL/MOL
REMARK 927      BINDING AFFINITY PREDICTED BY RF-SCORE:    0.00 PKD
ROOT
HETATM    1  C   UNL     1     -14.384  14.740  71.980  1.00  0.00    -0.642 C  
HETATM    2  C   UNL     1     -13.067  15.374  71.622  1.00  0.00    -0.459 C  
HETATM    3  O   UNL     1     -12.538  16.207  72.356  1.00  0.00    -0.453 OA 
ENDROOT
BRANCH   2   4
HETATM    4  C   UNL     1     -12.402  14.970  70.351  1.00  0.00    -0.401 A  
HETATM    5  C   UNL     1     -11.927  15.905  69.440  1.00  0.00    -0.268 A  
HETATM    6  C   UNL     1     -11.310  15.463  68.277  1.00  0.00    -0.354 A  
HETATM    7  C   UNL     1     -11.160  14.096  67.998  1.00  0.00    -0.267 A  
HETATM    8  S   UNL     1     -10.345  13.737  66.467  1.00  0.00    -0.291 SA 
HETATM    9  C   UNL     1     -10.331  11.966  66.438  1.00  0.00    -0.219 A  
HETATM   10  C   UNL     1     -10.875  11.153  67.459  1.00  0.00    -0.254 A  
HETATM   11  C   UNL     1     -10.757   9.761  67.245  1.00  0.00    -0.296 A  
HETATM   12  N   UNL     1     -11.502  11.719  68.613  1.00  0.00    -0.261 NA 
HETATM   13  C   UNL     1     -11.636  13.115  68.890  1.00  0.00    -0.311 A  
HETATM   14  C   UNL     1     -10.158   9.207  66.101  1.00  0.00    -0.278 A  
HETATM   15  C   UNL     1     -12.252  13.600  70.068  1.00  0.00    -0.395 A  
HETATM   16  C   UNL     1      -9.732  11.405  65.291  1.00  0.00    -0.276 A  
HETATM   17  C   UNL     1      -9.645  10.032  65.119  1.00  0.00    -0.356 A  
BRANCH  12  18
HETATM   18  C   UNL     1     -12.102  10.799  69.609  1.00  0.00    -0.289 C  
BRANCH  18  19
HETATM   19  C   UNL     1     -11.054  10.316  70.623  1.00  0.00    -0.358 C  
BRANCH  19  20
HETATM   20  C   UNL     1     -11.578   9.141  71.461  1.00  0.00    -0.368 C  
BRANCH  20  21
HETATM   21  N   UNL     1     -10.499   8.404  72.142  1.00  0.00    -0.299 NA 
HETATM   22  C   UNL     1     -11.014   7.356  73.042  1.00  0.00    -0.374 C  
HETATM   23  C   UNL     1     -11.625   6.156  72.296  1.00  0.00    -0.313 C  
HETATM   24  N   UNL     1     -10.658   5.474  71.413  1.00  0.00    -0.250 NA 
HETATM   25  C   UNL     1     -10.078   6.490  70.494  1.00  0.00    -0.185 C  
HETATM   26  C   UNL     1      -9.564   7.791  71.173  1.00  0.00    -0.158 C  
BRANCH  24  27
HETATM   27  C   UNL     1      -9.582   4.794  72.179  1.00  0.00    -0.153 C  
BRANCH  27  28
HETATM   28  C   UNL     1     -10.041   3.472  72.816  1.00  0.00    -0.160 C  
HETATM   29  O   UNL     1      -9.686   3.439  74.195  1.00  0.00    -0.098 OA 
HETATM   30  H   UNL     1      -9.969   2.621  74.589  1.00  0.00     0.000 HD 
ENDBRANCH  27  28
ENDBRANCH  24  27
ENDBRANCH  20  21
ENDBRANCH  19  20
ENDBRANCH  18  19
ENDBRANCH  12  18
ENDBRANCH   2   4
TORSDOF 7
ENDMDL
MODEL       26
REMARK 921   NORMALIZED FREE ENERGY PREDICTED BY IDOCK:   -6.10 KCAL/MOL
REMARK 922        TOTAL FREE ENERGY PREDICTED BY IDOCK:   -9.36 KCAL/MOL
REMARK 923 INTER-LIGAND FREE ENERGY PREDICTED BY IDOCK:   -8.62 KCAL/MOL
REMARK 924 INTRA-LIGAND FREE ENERGY PREDICTED BY IDOCK:   -0.73 KCAL/MOL
REMARK 927      BINDING AFFINITY PREDICTED BY RF-SCORE:    0.00 PKD
ROOT
HETATM    1  C   UNL     1      -6.997   9.898  64.645  1.00  0.00    -0.133 C  
HETATM    2  C   UNL     1      -8.437   9.466  64.715  1.00  0.00    -0.167 C  
HETATM    3  O   UNL     1      -9.277   9.913  63.934  1.00  0.00    -0.253 OA 
ENDROOT
BRANCH   2   4
HETATM    4  C   UNL     1      -8.836   8.474  65.753  1.00  0.00    -0.229 A  
HETATM    5  C   UNL     1      -8.833   7.108  65.504  1.00  0.00     0.017 A  
HETATM    6  C   UNL     1      -9.209   6.235  66.517  1.00  0.00    -0.169 A  
HETATM    7  C   UNL     1      -9.595   6.700  67.782  1.00  0.00    -0.123 A  
HETATM    8  S   UNL     1     -10.034   5.431  68.937  1.00  0.00    -0.192 SA 
HETATM    9  C   UNL     1     -10.460   6.353  70.388  1.00  0.00    -0.218 A  
HETATM   10  C   UNL     1     -10.416   7.764  70.471  1.00  0.00    -0.217 A  
HETATM   11  C   UNL     1     -10.791   8.304  71.722  1.00  0.00    -0.332 A  
HETATM   12  N   UNL     1     -10.025   8.568  69.355  1.00  0.00    -0.189 NA 
HETATM   13  C   UNL     1      -9.621   8.079  68.074  1.00  0.00    -0.152 A  
HETATM   14  C   UNL     1     -11.194   7.513  72.811  1.00  0.00    -0.403 A  
HETATM   15  C   UNL     1      -9.225   8.938  67.022  1.00  0.00    -0.171 A  
HETATM   16  C   UNL     1     -10.867   5.564  71.483  1.00  0.00    -0.263 A  
HETATM   17  C   UNL     1     -11.235   6.137  72.691  1.00  0.00    -0.312 A  
BRANCH  12  18
HETATM   18  C   UNL     1     -10.062  10.042  69.504  1.00  0.00    -0.227 C  
BRANCH  18  19
HETATM   19  C   UNL     1     -11.416  10.614  69.054  1.00  0.00    -0.342 C  
BRANCH  19  20
HETATM   20  C   UNL     1     -11.352  12.137  68.867  1.00  0.00    -0.283 C  
BRANCH  20  21
HETATM   21  N   UNL     1     -11.971  12.579  67.606  1.00  0.00    -0.452 NA 
HETATM   22  C   UNL     1     -11.940  14.045  67.447  1.00  0.00    -0.404 C  
HETATM   23  C   UNL     1     -10.530  14.599  67.175  1.00  0.00    -0.268 C  
HETATM   24  N   UNL     1      -9.927  14.059  65.940  1.00  0.00    -0.310 NA 
HETATM   25  C   UNL     1      -9.956  12.574  66.026  1.00  0.00    -0.257 C  
HETATM   26  C   UNL     1     -11.322  11.954  66.433  1.00  0.00    -0.339 C  
BRANCH  24  27
HETATM   27  C   UNL     1     -10.637  14.521  64.721  1.00  0.00    -0.377 C  
BRANCH  27  28
HETATM   28  C   UNL     1     -11.224  15.935  64.865  1.00  0.00    -0.337 C  
HETATM   29  O   UNL     1     -11.737  16.387  63.616  1.00  0.00    -1.520 OA 
HETATM   30  H   UNL     1     -12.099  17.261  63.706  1.00  0.00     0.000 HD 
ENDBRANCH  27  28
ENDBRANCH  24  27
ENDBRANCH  20  21
ENDBRANCH  19  20
ENDBRANCH  18  19
ENDBRANCH  12  18
ENDBRANCH   2   4
TORSDOF 7
ENDMDL
MODEL       27
REMARK 921   NORMALIZED FREE ENERGY PREDICTED BY IDOCK:   -6.10 KCAL/MOL
REMARK 922        TOTAL FREE ENERGY PREDICTED BY IDOCK:   -9.35 KCAL/MOL
REMARK 923 INTER-LIGAND FREE ENERGY PREDICTED BY IDOCK:   -8.97 KCAL/MOL
REMARK 924 INTRA-LIGAND FREE ENERGY PREDICTED BY IDOCK:   -0.38 KCAL/MOL
REMARK 927      BINDING AFFINITY PREDICTED BY RF-SCORE:    0.00 PKD
ROOT
HETATM    1  C   UNL     1     -11.852   9.253  71.995  1.00  0.00    -0.370 C  
HETATM    2  C   UNL     1     -10.505   9.328  71.329  1.00  0.00    -0.338 C  
HETATM    3  O   UNL     1      -9.466   9.168  71.969  1.00  0.00    -0.323 OA 
ENDROOT
BRANCH   2   4
HETATM    4  C   UNL     1     -10.446   9.600  69.865  1.00  0.00    -0.285 A  
HETATM    5  C   UNL     1      -9.811   8.737  68.982  1.00  0.00    -0.183 A  
HETATM    6  C   UNL     1      -9.798   9.044  67.627  1.00  0.00    -0.220 A  
HETATM    7  C   UNL     1     -10.407  10.207  67.132  1.00  0.00    -0.238 A  
HETATM    8  S   UNL     1     -10.285  10.417  65.377  1.00  0.00    -0.209 SA 
HETATM    9  C   UNL     1     -11.135  11.947  65.107  1.00  0.00    -0.305 A  
HETATM   10  C   UNL     1     -11.726  12.717  66.136  1.00  0.00    -0.406 A  
HETATM   11  C   UNL     1     -12.361  13.905  65.708  1.00  0.00    -0.518 A  
HETATM   12  N   UNL     1     -11.667  12.309  67.505  1.00  0.00    -0.459 NA 
HETATM   13  C   UNL     1     -11.054  11.114  67.994  1.00  0.00    -0.276 A  
HETATM   14  C   UNL     1     -12.401  14.313  64.364  1.00  0.00    -0.417 A  
HETATM   15  C   UNL     1     -11.054  10.766  69.366  1.00  0.00    -0.324 A  
HETATM   16  C   UNL     1     -11.177  12.362  63.760  1.00  0.00    -0.520 A  
HETATM   17  C   UNL     1     -11.805  13.541  63.386  1.00  0.00    -0.221 A  
BRANCH  12  18
HETATM   18  C   UNL     1     -12.258  13.202  68.530  1.00  0.00    -0.032 C  
BRANCH  18  19
HETATM   19  C   UNL     1     -11.173  14.010  69.258  1.00  0.00    -0.304 C  
BRANCH  19  20
HETATM   20  C   UNL     1     -10.219  14.695  68.269  1.00  0.00    -0.227 C  
BRANCH  20  21
HETATM   21  N   UNL     1      -9.871  16.067  68.676  1.00  0.00    -0.211 NA 
HETATM   22  C   UNL     1      -8.447  16.378  68.449  1.00  0.00    -0.204 C  
HETATM   23  C   UNL     1      -8.083  16.520  66.960  1.00  0.00    -0.201 C  
HETATM   24  N   UNL     1      -8.831  17.598  66.284  1.00  0.00    -0.441 NA 
HETATM   25  C   UNL     1     -10.283  17.357  66.502  1.00  0.00    -0.329 C  
HETATM   26  C   UNL     1     -10.700  17.070  67.972  1.00  0.00    -0.365 C  
BRANCH  24  27
HETATM   27  C   UNL     1      -8.449  18.944  66.783  1.00  0.00    -0.298 C  
BRANCH  27  28
HETATM   28  C   UNL     1      -7.120  19.447  66.197  1.00  0.00    -0.258 C  
HETATM   29  O   UNL     1      -7.359  20.463  65.229  1.00  0.00    -0.493 OA 
HETATM   30  H   UNL     1      -6.538  20.774  64.866  1.00  0.00     0.000 HD 
ENDBRANCH  27  28
ENDBRANCH  24  27
ENDBRANCH  20  21
ENDBRANCH  19  20
ENDBRANCH  18  19
ENDBRANCH  12  18
ENDBRANCH   2   4
TORSDOF 7
ENDMDL
MODEL       28
REMARK 921   NORMALIZED FREE ENERGY PREDICTED BY IDOCK:   -6.06 KCAL/MOL
REMARK 922        TOTAL FREE ENERGY PREDICTED BY IDOCK:   -9.30 KCAL/MOL
REMARK 923 INTER-LIGAND FREE ENERGY PREDICTED BY IDOCK:   -8.56 KCAL/MOL
REMARK 924 INTRA-LIGAND FREE ENERGY PREDICTED BY IDOCK:   -0.74 KCAL/MOL
REMARK 927      BINDING AFFINITY PREDICTED BY RF-SCORE:    0.00 PKD
ROOT
HETATM    1  C   UNL     1     -12.018  14.075  64.421  1.00  0.00    -0.480 C  
HETATM    2  C   UNL     1     -12.112  12.601  64.136  1.00  0.00    -0.439 C  
HETATM    3  O   UNL     1     -12.877  12.163  63.278  1.00  0.00    -0.735 OA 
ENDROOT
BRANCH   2   4
HETATM    4  C   UNL     1     -11.251  11.666  64.915  1.00  0.00    -0.287 A  
HETATM    5  C   UNL     1     -10.221  10.947  64.322  1.00  0.00    -0.430 A  
HETATM    6  C   UNL     1      -9.451  10.098  65.106  1.00  0.00    -0.319 A  
HETATM    7  C   UNL     1      -9.690   9.947  66.480  1.00  0.00    -0.204 A  
HETATM    8  S   UNL     1      -8.597   8.822  67.303  1.00  0.00    -0.121 SA 
HETATM    9  C   UNL     1      -9.175   8.871  68.977  1.00  0.00    -0.140 A  
HETATM   10  C   UNL     1     -10.260   9.664  69.417  1.00  0.00    -0.209 A  
HETATM   11  C   UNL     1     -10.557   9.563  70.795  1.00  0.00    -0.387 A  
HETATM   12  N   UNL     1     -10.995  10.495  68.515  1.00  0.00    -0.234 NA 
HETATM   13  C   UNL     1     -10.731  10.650  67.119  1.00  0.00    -0.272 A  
HETATM   14  C   UNL     1      -9.846   8.730  71.676  1.00  0.00    -0.378 A  
HETATM   15  C   UNL     1     -11.491  11.511  66.292  1.00  0.00    -0.124 A  
HETATM   16  C   UNL     1      -8.465   8.036  69.864  1.00  0.00    -0.126 A  
HETATM   17  C   UNL     1      -8.797   7.962  71.209  1.00  0.00    -0.152 A  
BRANCH  12  18
HETATM   18  C   UNL     1     -12.157  11.249  69.043  1.00  0.00    -0.257 C  
BRANCH  18  19
HETATM   19  C   UNL     1     -11.705  12.459  69.877  1.00  0.00    -0.339 C  
BRANCH  19  20
HETATM   20  C   UNL     1     -11.695  13.747  69.042  1.00  0.00    -0.331 C  
BRANCH  20  21
HETATM   21  N   UNL     1     -10.355  14.353  68.952  1.00  0.00    -0.239 NA 
HETATM   22  C   UNL     1     -10.029  14.799  67.584  1.00  0.00    -0.226 C  
HETATM   23  C   UNL     1     -10.831  16.034  67.137  1.00  0.00    -0.239 C  
HETATM   24  N   UNL     1     -10.600  17.212  67.997  1.00  0.00    -0.363 NA 
HETATM   25  C   UNL     1     -10.885  16.818  69.403  1.00  0.00    -0.250 C  
HETATM   26  C   UNL     1     -10.213  15.498  69.878  1.00  0.00    -0.295 C  
BRANCH  24  27
HETATM   27  C   UNL     1      -9.215  17.733  67.876  1.00  0.00    -0.265 C  
BRANCH  27  28
HETATM   28  C   UNL     1      -9.077  19.191  68.344  1.00  0.00    -0.359 C  
HETATM   29  O   UNL     1      -7.817  19.390  68.977  1.00  0.00    -0.357 OA 
HETATM   30  H   UNL     1      -7.732  20.292  69.267  1.00  0.00     0.000 HD 
ENDBRANCH  27  28
ENDBRANCH  24  27
ENDBRANCH  20  21
ENDBRANCH  19  20
ENDBRANCH  18  19
ENDBRANCH  12  18
ENDBRANCH   2   4
TORSDOF 7
ENDMDL
MODEL       29
REMARK 921   NORMALIZED FREE ENERGY PREDICTED BY IDOCK:   -6.00 KCAL/MOL
REMARK 922        TOTAL FREE ENERGY PREDICTED BY IDOCK:   -9.21 KCAL/MOL
REMARK 923 INTER-LIGAND FREE ENERGY PREDICTED BY IDOCK:   -8.76 KCAL/MOL
REMARK 924 INTRA-LIGAND FREE ENERGY PREDICTED BY IDOCK:   -0.45 KCAL/MOL
REMARK 927      BINDING AFFINITY PREDICTED BY RF-SCORE:    0.00 PKD
ROOT
HETATM    1  C   UNL     1      -8.291   8.633  63.472  1.00  0.00    -0.117 C  
HETATM    2  C   UNL     1      -9.149   9.827  63.795  1.00  0.00    -0.230 C  
HETATM    3  O   UNL     1      -9.412  10.674  62.942  1.00  0.00    -0.284 OA 
ENDROOT
BRANCH   2   4
HETATM    4  C   UNL     1      -9.684   9.969  65.178  1.00  0.00    -0.380 A  
HETATM    5  C   UNL     1      -9.737   8.898  66.060  1.00  0.00    -0.308 A  
HETATM    6  C   UNL     1     -10.241   9.098  67.339  1.00  0.00    -0.310 A  
HETATM    7  C   UNL     1     -10.702  10.355  67.758  1.00  0.00    -0.279 A  
HETATM    8  S   UNL     1     -11.303  10.407  69.424  1.00  0.00    -0.236 SA 
HETATM    9  C   UNL     1     -11.793  12.098  69.610  1.00  0.00    -0.322 A  
HETATM   10  C   UNL     1     -11.678  13.073  68.592  1.00  0.00    -0.323 A  
HETATM   11  C   UNL     1     -12.122  14.367  68.946  1.00  0.00    -0.288 A  
HETATM   12  N   UNL     1     -11.153  12.750  67.302  1.00  0.00    -0.265 NA 
HETATM   13  C   UNL     1     -10.675  11.467  66.892  1.00  0.00    -0.265 A  
HETATM   14  C   UNL     1     -12.655  14.677  70.209  1.00  0.00    -0.370 A  
HETATM   15  C   UNL     1     -10.149  11.228  65.600  1.00  0.00    -0.295 A  
HETATM   16  C   UNL     1     -12.330  12.415  70.875  1.00  0.00    -0.358 A  
HETATM   17  C   UNL     1     -12.762  13.697  71.177  1.00  0.00    -0.432 A  
BRANCH  12  18
HETATM   18  C   UNL     1     -11.122  13.813  66.270  1.00  0.00    -0.302 C  
BRANCH  18  19
HETATM   19  C   UNL     1      -9.679  14.168  65.878  1.00  0.00    -0.267 C  
BRANCH  19  20
HETATM   20  C   UNL     1      -8.973  14.967  66.983  1.00  0.00    -0.236 C  
BRANCH  20  21
HETATM   21  N   UNL     1      -8.482  16.273  66.512  1.00  0.00    -0.273 NA 
HETATM   22  C   UNL     1      -9.578  17.218  66.228  1.00  0.00    -0.248 C  
HETATM   23  C   UNL     1     -10.290  17.725  67.495  1.00  0.00    -0.369 C  
HETATM   24  N   UNL     1      -9.387  18.440  68.417  1.00  0.00    -0.319 NA 
HETATM   25  C   UNL     1      -8.238  17.545  68.722  1.00  0.00    -0.222 C  
HETATM   26  C   UNL     1      -7.556  16.889  67.488  1.00  0.00    -0.165 C  
BRANCH  24  27
HETATM   27  C   UNL     1      -8.906  19.725  67.848  1.00  0.00    -0.321 C  
BRANCH  27  28
HETATM   28  C   UNL     1     -10.025  20.546  67.185  1.00  0.00    -0.372 C  
HETATM   29  O   UNL     1      -9.783  20.674  65.788  1.00  0.00    -0.603 OA 
HETATM   30  H   UNL     1     -10.474  21.181  65.379  1.00  0.00     0.000 HD 
ENDBRANCH  27  28
ENDBRANCH  24  27
ENDBRANCH  20  21
ENDBRANCH  19  20
ENDBRANCH  18  19
ENDBRANCH  12  18
ENDBRANCH   2   4
TORSDOF 7
ENDMDL
MODEL       30
REMARK 921   NORMALIZED FREE ENERGY PREDICTED BY IDOCK:   -5.95 KCAL/MOL
REMARK 922        TOTAL FREE ENERGY PREDICTED BY IDOCK:   -9.14 KCAL/MOL
REMARK 923 INTER-LIGAND FREE ENERGY PREDICTED BY IDOCK:   -8.81 KCAL/MOL
REMARK 924 INTRA-LIGAND FREE ENERGY PREDICTED BY IDOCK:   -0.33 KCAL/MOL
REMARK 927      BINDING AFFINITY PREDICTED BY RF-SCORE:    0.00 PKD
ROOT
HETATM    1  C   UNL     1      -9.556   4.400  69.176  1.00  0.00    -0.252 C  
HETATM    2  C   UNL     1      -9.752   5.817  68.709  1.00  0.00    -0.132 C  
HETATM    3  O   UNL     1      -9.245   6.222  67.664  1.00  0.00    -0.115 OA 
ENDROOT
BRANCH   2   4
HETATM    4  C   UNL     1     -10.583   6.735  69.540  1.00  0.00    -0.265 A  
HETATM    5  C   UNL     1     -11.415   6.264  70.547  1.00  0.00    -0.407 A  
HETATM    6  C   UNL     1     -12.159   7.173  71.289  1.00  0.00    -0.386 A  
HETATM    7  C   UNL     1     -12.092   8.552  71.044  1.00  0.00    -0.205 A  
HETATM    8  S   UNL     1     -13.111   9.544  72.100  1.00  0.00    -0.425 SA 
HETATM    9  C   UNL     1     -12.790  11.187  71.522  1.00  0.00    -0.437 A  
HETATM   10  C   UNL     1     -11.906  11.495  70.462  1.00  0.00    -0.267 A  
HETATM   11  C   UNL     1     -11.787  12.870  70.160  1.00  0.00    -0.319 A  
HETATM   12  N   UNL     1     -11.199  10.473  69.755  1.00  0.00    -0.276 NA 
HETATM   13  C   UNL     1     -11.267   9.071  70.025  1.00  0.00    -0.128 A  
HETATM   14  C   UNL     1     -12.497  13.872  70.844  1.00  0.00    -0.447 A  
HETATM   15  C   UNL     1     -10.519   8.118  69.294  1.00  0.00    -0.221 A  
HETATM   16  C   UNL     1     -13.501  12.195  72.204  1.00  0.00    -0.383 A  
HETATM   17  C   UNL     1     -13.360  13.533  71.869  1.00  0.00    -0.529 A  
BRANCH  12  18
HETATM   18  C   UNL     1     -10.338  10.873  68.617  1.00  0.00    -0.191 C  
BRANCH  18  19
HETATM   19  C   UNL     1     -11.116  10.846  67.292  1.00  0.00    -0.350 C  
BRANCH  19  20
HETATM   20  C   UNL     1     -11.378  12.263  66.762  1.00  0.00    -0.339 C  
BRANCH  20  21
HETATM   21  N   UNL     1     -10.197  12.848  66.103  1.00  0.00    -0.272 NA 
HETATM   22  C   UNL     1     -10.549  13.958  65.198  1.00  0.00    -0.379 C  
HETATM   23  C   UNL     1     -11.006  15.228  65.939  1.00  0.00    -0.325 C  
HETATM   24  N   UNL     1      -9.973  15.772  66.841  1.00  0.00    -0.238 NA 
HETATM   25  C   UNL     1      -9.552  14.686  67.767  1.00  0.00    -0.213 C  
HETATM   26  C   UNL     1      -9.206  13.329  67.091  1.00  0.00    -0.235 C  
BRANCH  24  27
HETATM   27  C   UNL     1      -8.802  16.302  66.098  1.00  0.00    -0.327 C  
BRANCH  27  28
HETATM   28  C   UNL     1      -8.358  17.692  66.586  1.00  0.00    -0.260 C  
HETATM   29  O   UNL     1      -9.173  18.703  66.003  1.00  0.00    -0.484 OA 
HETATM   30  H   UNL     1      -8.898  19.562  66.304  1.00  0.00     0.000 HD 
ENDBRANCH  27  28
ENDBRANCH  24  27
ENDBRANCH  20  21
ENDBRANCH  19  20
ENDBRANCH  18  19
ENDBRANCH  12  18
ENDBRANCH   2   4
TORSDOF 7
ENDMDL
MODEL       31
REMARK 921   NORMALIZED FREE ENERGY PREDICTED BY IDOCK:   -5.93 KCAL/MOL
REMARK 922        TOTAL FREE ENERGY PREDICTED BY IDOCK:   -9.12 KCAL/MOL
REMARK 923 INTER-LIGAND FREE ENERGY PREDICTED BY IDOCK:   -8.19 KCAL/MOL
REMARK 924 INTRA-LIGAND FREE ENERGY PREDICTED BY IDOCK:   -0.92 KCAL/MOL
REMARK 927      BINDING AFFINITY PREDICTED BY RF-SCORE:    0.00 PKD
ROOT
HETATM    1  C   UNL     1     -14.372   8.790  72.007  1.00  0.00    -0.466 C  
HETATM    2  C   UNL     1     -12.958   9.302  71.954  1.00  0.00    -0.411 C  
HETATM    3  O   UNL     1     -12.016   8.623  72.360  1.00  0.00    -0.375 OA 
ENDROOT
BRANCH   2   4
HETATM    4  C   UNL     1     -12.711  10.660  71.391  1.00  0.00    -0.545 A  
HETATM    5  C   UNL     1     -13.062  11.816  72.076  1.00  0.00    -0.436 A  
HETATM    6  C   UNL     1     -12.798  13.051  71.499  1.00  0.00    -0.386 A  
HETATM    7  C   UNL     1     -12.188  13.159  70.241  1.00  0.00    -0.306 A  
HETATM    8  S   UNL     1     -11.933  14.820  69.680  1.00  0.00    -0.314 SA 
HETATM    9  C   UNL     1     -11.168  14.586  68.100  1.00  0.00    -0.284 A  
HETATM   10  C   UNL     1     -10.885  13.320  67.537  1.00  0.00    -0.263 A  
HETATM   11  C   UNL     1     -10.266  13.352  66.267  1.00  0.00    -0.298 A  
HETATM   12  N   UNL     1     -11.215  12.107  68.218  1.00  0.00    -0.245 NA 
HETATM   13  C   UNL     1     -11.824  12.012  69.507  1.00  0.00    -0.326 A  
HETATM   14  C   UNL     1      -9.961  14.546  65.591  1.00  0.00    -0.376 A  
HETATM   15  C   UNL     1     -12.102  10.771  70.128  1.00  0.00    -0.427 A  
HETATM   16  C   UNL     1     -10.861  15.781  67.417  1.00  0.00    -0.306 A  
HETATM   17  C   UNL     1     -10.261  15.765  66.167  1.00  0.00    -0.332 A  
BRANCH  12  18
HETATM   18  C   UNL     1     -10.940  10.821  67.534  1.00  0.00    -0.312 C  
BRANCH  18  19
HETATM   19  C   UNL     1      -9.505  10.341  67.804  1.00  0.00    -0.163 C  
BRANCH  19  20
HETATM   20  C   UNL     1      -9.310   8.878  67.381  1.00  0.00    -0.136 C  
BRANCH  20  21
HETATM   21  N   UNL     1      -8.670   8.065  68.430  1.00  0.00    -0.131 NA 
HETATM   22  C   UNL     1      -9.457   8.035  69.678  1.00  0.00    -0.163 C  
HETATM   23  C   UNL     1     -10.754   7.215  69.561  1.00  0.00    -0.239 C  
HETATM   24  N   UNL     1     -10.513   5.800  69.218  1.00  0.00    -0.258 NA 
HETATM   25  C   UNL     1      -9.694   5.762  67.976  1.00  0.00    -0.124 C  
HETATM   26  C   UNL     1      -8.436   6.677  67.975  1.00  0.00    -0.116 C  
BRANCH  24  27
HETATM   27  C   UNL     1      -9.828   5.066  70.312  1.00  0.00    -0.234 C  
BRANCH  27  28
HETATM   28  C   UNL     1      -9.545   3.595  69.965  1.00  0.00    -0.173 C  
HETATM   29  O   UNL     1      -8.146   3.388  69.794  1.00  0.00    -0.049 OA 
HETATM   30  H   UNL     1      -7.971   2.479  69.579  1.00  0.00     0.000 HD 
ENDBRANCH  27  28
ENDBRANCH  24  27
ENDBRANCH  20  21
ENDBRANCH  19  20
ENDBRANCH  18  19
ENDBRANCH  12  18
ENDBRANCH   2   4
TORSDOF 7
ENDMDL
MODEL       32
REMARK 921   NORMALIZED FREE ENERGY PREDICTED BY IDOCK:   -5.89 KCAL/MOL
REMARK 922        TOTAL FREE ENERGY PREDICTED BY IDOCK:   -9.06 KCAL/MOL
REMARK 923 INTER-LIGAND FREE ENERGY PREDICTED BY IDOCK:   -8.30 KCAL/MOL
REMARK 924 INTRA-LIGAND FREE ENERGY PREDICTED BY IDOCK:   -0.76 KCAL/MOL
REMARK 927      BINDING AFFINITY PREDICTED BY RF-SCORE:    0.00 PKD
ROOT
HETATM    1  C   UNL     1     -11.462   8.117  72.743  1.00  0.00    -0.397 C  
HETATM    2  C   UNL     1     -11.822   9.202  71.765  1.00  0.00    -0.383 C  
HETATM    3  O   UNL     1     -12.544  10.143  72.092  1.00  0.00    -0.328 OA 
ENDROOT
BRANCH   2   4
HETATM    4  C   UNL     1     -11.284   9.121  70.378  1.00  0.00    -0.279 A  
HETATM    5  C   UNL     1     -10.578   8.014  69.926  1.00  0.00    -0.242 A  
HETATM    6  C   UNL     1     -10.108   7.998  68.619  1.00  0.00    -0.212 A  
HETATM    7  C   UNL     1     -10.326   9.074  67.746  1.00  0.00    -0.246 A  
HETATM    8  S   UNL     1      -9.653   8.861  66.122  1.00  0.00    -0.253 SA 
HETATM    9  C   UNL     1     -10.099  10.372  65.312  1.00  0.00    -0.300 A  
HETATM   10  C   UNL     1     -10.823  11.417  65.931  1.00  0.00    -0.234 A  
HETATM   11  C   UNL     1     -11.082  12.537  65.108  1.00  0.00    -0.335 A  
HETATM   12  N   UNL     1     -11.247  11.331  67.293  1.00  0.00    -0.355 NA 
HETATM   13  C   UNL     1     -11.029  10.222  68.167  1.00  0.00    -0.274 A  
HETATM   14  C   UNL     1     -10.647  12.627  63.774  1.00  0.00    -0.432 A  
HETATM   15  C   UNL     1     -11.499  10.200  69.502  1.00  0.00    -0.227 A  
HETATM   16  C   UNL     1      -9.664  10.468  63.975  1.00  0.00    -0.383 A  
HETATM   17  C   UNL     1      -9.934  11.590  63.206  1.00  0.00    -0.435 A  
BRANCH  12  18
HETATM   18  C   UNL     1     -11.948  12.495  67.886  1.00  0.00    -0.223 C  
BRANCH  18  19
HETATM   19  C   UNL     1     -10.952  13.517  68.454  1.00  0.00    -0.289 C  
BRANCH  19  20
HETATM   20  C   UNL     1     -11.307  14.949  68.029  1.00  0.00    -0.324 C  
BRANCH  20  21
HETATM   21  N   UNL     1     -10.675  15.968  68.886  1.00  0.00    -0.257 NA 
HETATM   22  C   UNL     1      -9.213  15.801  68.975  1.00  0.00    -0.243 C  
HETATM   23  C   UNL     1      -8.477  16.161  67.672  1.00  0.00    -0.168 C  
HETATM   24  N   UNL     1      -8.686  17.563  67.261  1.00  0.00    -0.226 NA 
HETATM   25  C   UNL     1     -10.151  17.805  67.180  1.00  0.00    -0.338 C  
HETATM   26  C   UNL     1     -10.976  17.337  68.413  1.00  0.00    -0.171 C  
BRANCH  24  27
HETATM   27  C   UNL     1      -8.053  18.523  68.201  1.00  0.00    -0.290 C  
BRANCH  27  28
HETATM   28  C   UNL     1      -6.519  18.418  68.227  1.00  0.00    -0.204 C  
HETATM   29  O   UNL     1      -6.040  18.515  69.564  1.00  0.00    -0.253 OA 
HETATM   30  H   UNL     1      -5.092  18.450  69.580  1.00  0.00     0.000 HD 
ENDBRANCH  27  28
ENDBRANCH  24  27
ENDBRANCH  20  21
ENDBRANCH  19  20
ENDBRANCH  18  19
ENDBRANCH  12  18
ENDBRANCH   2   4
TORSDOF 7
ENDMDL
MODEL       33
REMARK 921   NORMALIZED FREE ENERGY PREDICTED BY IDOCK:   -5.84 KCAL/MOL
REMARK 922        TOTAL FREE ENERGY PREDICTED BY IDOCK:   -8.98 KCAL/MOL
REMARK 923 INTER-LIGAND FREE ENERGY PREDICTED BY IDOCK:   -8.36 KCAL/MOL
REMARK 924 INTRA-LIGAND FREE ENERGY PREDICTED BY IDOCK:   -0.62 KCAL/MOL
REMARK 927      BINDING AFFINITY PREDICTED BY RF-SCORE:    0.00 PKD
ROOT
HETATM    1  C   UNL     1      -5.259  13.121  71.509  1.00  0.00    -0.166 C  
HETATM    2  C   UNL     1      -6.063  13.023  70.241  1.00  0.00    -0.071 C  
HETATM    3  O   UNL     1      -6.590  11.966  69.897  1.00  0.00    -0.090 OA 
ENDROOT
BRANCH   2   4
HETATM    4  C   UNL     1      -6.219  14.242  69.398  1.00  0.00    -0.111 A  
HETATM    5  C   UNL     1      -5.158  14.782  68.682  1.00  0.00    -0.096 A  
HETATM    6  C   UNL     1      -5.371  15.916  67.909  1.00  0.00    -0.143 A  
HETATM    7  C   UNL     1      -6.629  16.532  67.838  1.00  0.00    -0.141 A  
HETATM    8  S   UNL     1      -6.698  17.963  66.796  1.00  0.00    -0.200 SA 
HETATM    9  C   UNL     1      -8.388  18.471  66.941  1.00  0.00    -0.263 A  
HETATM   10  C   UNL     1      -9.350  17.804  67.733  1.00  0.00    -0.257 A  
HETATM   11  C   UNL     1     -10.646  18.369  67.707  1.00  0.00    -0.419 A  
HETATM   12  N   UNL     1      -9.015  16.647  68.503  1.00  0.00    -0.226 NA 
HETATM   13  C   UNL     1      -7.731  16.022  68.555  1.00  0.00    -0.158 A  
HETATM   14  C   UNL     1     -10.968  19.518  66.965  1.00  0.00    -0.443 A  
HETATM   15  C   UNL     1      -7.479  14.862  69.327  1.00  0.00    -0.177 A  
HETATM   16  C   UNL     1      -8.716  19.625  66.199  1.00  0.00    -0.361 A  
HETATM   17  C   UNL     1      -9.999  20.150  66.210  1.00  0.00    -0.557 A  
BRANCH  12  18
HETATM   18  C   UNL     1     -10.066  16.040  69.354  1.00  0.00    -0.271 C  
BRANCH  18  19
HETATM   19  C   UNL     1     -10.574  14.719  68.757  1.00  0.00    -0.251 C  
BRANCH  19  20
HETATM   20  C   UNL     1     -11.620  14.960  67.659  1.00  0.00    -0.339 C  
BRANCH  20  21
HETATM   21  N   UNL     1     -11.970  13.729  66.930  1.00  0.00    -0.411 NA 
HETATM   22  C   UNL     1     -12.607  14.006  65.629  1.00  0.00    -0.512 C  
HETATM   23  C   UNL     1     -11.634  14.581  64.584  1.00  0.00    -0.408 C  
HETATM   24  N   UNL     1     -10.510  13.673  64.282  1.00  0.00    -0.312 NA 
HETATM   25  C   UNL     1      -9.839  13.330  65.566  1.00  0.00    -0.136 C  
HETATM   26  C   UNL     1     -10.784  12.871  66.712  1.00  0.00    -0.261 C  
BRANCH  24  27
HETATM   27  C   UNL     1     -10.955  12.440  63.585  1.00  0.00    -0.470 C  
BRANCH  27  28
HETATM   28  C   UNL     1      -9.786  11.578  63.080  1.00  0.00    -0.390 C  
HETATM   29  O   UNL     1     -10.277  10.402  62.445  1.00  0.00    -0.722 OA 
HETATM   30  H   UNL     1      -9.554   9.869  62.133  1.00  0.00     0.000 HD 
ENDBRANCH  27  28
ENDBRANCH  24  27
ENDBRANCH  20  21
ENDBRANCH  19  20
ENDBRANCH  18  19
ENDBRANCH  12  18
ENDBRANCH   2   4
TORSDOF 7
ENDMDL
MODEL       34
REMARK 921   NORMALIZED FREE ENERGY PREDICTED BY IDOCK:   -5.82 KCAL/MOL
REMARK 922        TOTAL FREE ENERGY PREDICTED BY IDOCK:   -8.96 KCAL/MOL
REMARK 923 INTER-LIGAND FREE ENERGY PREDICTED BY IDOCK:   -8.08 KCAL/MOL
REMARK 924 INTRA-LIGAND FREE ENERGY PREDICTED BY IDOCK:   -0.88 KCAL/MOL
REMARK 927      BINDING AFFINITY PREDICTED BY RF-SCORE:    0.00 PKD
ROOT
HETATM    1  C   UNL     1     -11.861  13.789  68.897  1.00  0.00    -0.396 C  
HETATM    2  C   UNL     1     -11.920  12.367  68.411  1.00  0.00    -0.216 C  
HETATM    3  O   UNL     1     -12.021  12.104  67.213  1.00  0.00    -0.573 OA 
ENDROOT
BRANCH   2   4
HETATM    4  C   UNL     1     -11.851  11.266  69.413  1.00  0.00    -0.424 A  
HETATM    5  C   UNL     1     -12.384  11.397  70.689  1.00  0.00    -0.466 A  
HETATM    6  C   UNL     1     -12.292  10.330  71.573  1.00  0.00    -0.488 A  
HETATM    7  C   UNL     1     -11.672   9.126  71.211  1.00  0.00    -0.326 A  
HETATM    8  S   UNL     1     -11.661   7.886  72.476  1.00  0.00    -0.371 SA 
HETATM    9  C   UNL     1     -10.819   6.538  71.695  1.00  0.00    -0.240 A  
HETATM   10  C   UNL     1     -10.325   6.574  70.371  1.00  0.00    -0.198 A  
HETATM   11  C   UNL     1      -9.687   5.389  69.936  1.00  0.00    -0.249 A  
HETATM   12  N   UNL     1     -10.463   7.736  69.550  1.00  0.00    -0.223 NA 
HETATM   13  C   UNL     1     -11.110   8.953  69.929  1.00  0.00    -0.136 A  
HETATM   14  C   UNL     1      -9.535   4.255  70.750  1.00  0.00    -0.241 A  
HETATM   15  C   UNL     1     -11.227  10.057  69.052  1.00  0.00    -0.180 A  
HETATM   16  C   UNL     1     -10.662   5.397  72.509  1.00  0.00    -0.288 A  
HETATM   17  C   UNL     1     -10.022   4.259  72.043  1.00  0.00    -0.249 A  
BRANCH  12  18
HETATM   18  C   UNL     1      -9.865   7.715  68.195  1.00  0.00    -0.164 C  
BRANCH  18  19
HETATM   19  C   UNL     1      -8.432   8.272  68.208  1.00  0.00    -0.136 C  
BRANCH  19  20
HETATM   20  C   UNL     1      -7.802   8.242  66.809  1.00  0.00    -0.095 C  
BRANCH  20  21
HETATM   21  N   UNL     1      -7.647   9.588  66.228  1.00  0.00    -0.097 NA 
HETATM   22  C   UNL     1      -7.220   9.547  64.817  1.00  0.00    -0.112 C  
HETATM   23  C   UNL     1      -8.318   9.049  63.861  1.00  0.00    -0.176 C  
HETATM   24  N   UNL     1      -9.526   9.897  63.879  1.00  0.00    -0.229 NA 
HETATM   25  C   UNL     1      -9.993  10.002  65.288  1.00  0.00    -0.298 C  
HETATM   26  C   UNL     1      -8.899  10.370  66.330  1.00  0.00    -0.152 C  
BRANCH  24  27
HETATM   27  C   UNL     1      -9.272  11.247  63.316  1.00  0.00    -0.225 C  
BRANCH  27  28
HETATM   28  C   UNL     1     -10.499  12.171  63.391  1.00  0.00    -0.412 C  
HETATM   29  O   UNL     1     -10.168  13.380  64.066  1.00  0.00    -0.718 OA 
HETATM   30  H   UNL     1     -10.927  13.950  64.113  1.00  0.00     0.000 HD 
ENDBRANCH  27  28
ENDBRANCH  24  27
ENDBRANCH  20  21
ENDBRANCH  19  20
ENDBRANCH  18  19
ENDBRANCH  12  18
ENDBRANCH   2   4
TORSDOF 7
ENDMDL
MODEL       35
REMARK 921   NORMALIZED FREE ENERGY PREDICTED BY IDOCK:   -5.81 KCAL/MOL
REMARK 922        TOTAL FREE ENERGY PREDICTED BY IDOCK:   -8.94 KCAL/MOL
REMARK 923 INTER-LIGAND FREE ENERGY PREDICTED BY IDOCK:   -8.02 KCAL/MOL
REMARK 924 INTRA-LIGAND FREE ENERGY PREDICTED BY IDOCK:   -0.93 KCAL/MOL
REMARK 927      BINDING AFFINITY PREDICTED BY RF-SCORE:    0.00 PKD
ROOT
HETATM    1  C   UNL     1     -11.447  14.810  64.740  1.00  0.00    -0.410 C  
HETATM    2  C   UNL     1     -11.756  13.571  63.943  1.00  0.00    -0.368 C  
HETATM    3  O   UNL     1     -12.643  13.564  63.091  1.00  0.00    -0.762 OA 
ENDROOT
BRANCH   2   4
HETATM    4  C   UNL     1     -10.959  12.339  64.202  1.00  0.00    -0.415 A  
HETATM    5  C   UNL     1     -10.132  11.781  63.235  1.00  0.00    -0.448 A  
HETATM    6  C   UNL     1      -9.410  10.635  63.542  1.00  0.00    -0.319 A  
HETATM    7  C   UNL     1      -9.499  10.025  64.802  1.00  0.00    -0.304 A  
HETATM    8  S   UNL     1      -8.499   8.577  64.998  1.00  0.00    -0.132 SA 
HETATM    9  C   UNL     1      -8.852   8.080  66.661  1.00  0.00    -0.145 A  
HETATM   10  C   UNL     1      -9.740   8.766  67.521  1.00  0.00    -0.167 A  
HETATM   11  C   UNL     1      -9.878   8.208  68.812  1.00  0.00    -0.181 A  
HETATM   12  N   UNL     1     -10.444   9.935  67.093  1.00  0.00    -0.243 NA 
HETATM   13  C   UNL     1     -10.333  10.553  65.809  1.00  0.00    -0.200 A  
HETATM   14  C   UNL     1      -9.200   7.048  69.224  1.00  0.00    -0.139 A  
HETATM   15  C   UNL     1     -11.048  11.724  65.464  1.00  0.00    -0.336 A  
HETATM   16  C   UNL     1      -8.175   6.916  67.079  1.00  0.00    -0.120 A  
HETATM   17  C   UNL     1      -8.347   6.398  68.354  1.00  0.00    -0.116 A  
BRANCH  12  18
HETATM   18  C   UNL     1     -11.403  10.561  68.033  1.00  0.00    -0.246 C  
BRANCH  18  19
HETATM   19  C   UNL     1     -10.680  11.443  69.063  1.00  0.00    -0.245 C  
BRANCH  19  20
HETATM   20  C   UNL     1     -11.419  12.770  69.288  1.00  0.00    -0.289 C  
BRANCH  20  21
HETATM   21  N   UNL     1     -11.256  13.708  68.163  1.00  0.00    -0.262 NA 
HETATM   22  C   UNL     1     -12.104  14.906  68.301  1.00  0.00    -0.111 C  
HETATM   23  C   UNL     1     -11.636  15.859  69.416  1.00  0.00    -0.349 C  
HETATM   24  N   UNL     1     -10.269  16.371  69.200  1.00  0.00    -0.263 NA 
HETATM   25  C   UNL     1      -9.364  15.203  69.023  1.00  0.00    -0.219 C  
HETATM   26  C   UNL     1      -9.847  14.130  68.007  1.00  0.00    -0.223 C  
BRANCH  24  27
HETATM   27  C   UNL     1     -10.186  17.273  68.024  1.00  0.00    -0.332 C  
BRANCH  27  28
HETATM   28  C   UNL     1      -8.743  17.511  67.549  1.00  0.00    -0.225 C  
HETATM   29  O   UNL     1      -8.718  17.756  66.146  1.00  0.00    -0.447 OA 
HETATM   30  H   UNL     1      -7.826  17.903  65.853  1.00  0.00     0.000 HD 
ENDBRANCH  27  28
ENDBRANCH  24  27
ENDBRANCH  20  21
ENDBRANCH  19  20
ENDBRANCH  18  19
ENDBRANCH  12  18
ENDBRANCH   2   4
TORSDOF 7
ENDMDL
MODEL       36
REMARK 921   NORMALIZED FREE ENERGY PREDICTED BY IDOCK:   -5.80 KCAL/MOL
REMARK 922        TOTAL FREE ENERGY PREDICTED BY IDOCK:   -8.94 KCAL/MOL
REMARK 923 INTER-LIGAND FREE ENERGY PREDICTED BY IDOCK:   -8.31 KCAL/MOL
REMARK 924 INTRA-LIGAND FREE ENERGY PREDICTED BY IDOCK:   -0.63 KCAL/MOL
REMARK 927      BINDING AFFINITY PREDICTED BY RF-SCORE:    0.00 PKD
ROOT
HETATM    1  C   UNL     1     -12.974  10.958  71.822  1.00  0.00    -0.557 C  
HETATM    2  C   UNL     1     -13.178   9.469  71.881  1.00  0.00    -0.439 C  
HETATM    3  O   UNL     1     -14.299   8.981  72.014  1.00  0.00    -0.345 OA 
ENDROOT
BRANCH   2   4
HETATM    4  C   UNL     1     -11.986   8.580  71.771  1.00  0.00    -0.393 A  
HETATM    5  C   UNL     1     -11.359   8.048  72.890  1.00  0.00    -0.364 A  
HETATM    6  C   UNL     1     -10.257   7.220  72.719  1.00  0.00    -0.266 A  
HETATM    7  C   UNL     1      -9.760   6.912  71.444  1.00  0.00    -0.174 A  
HETATM    8  S   UNL     1      -8.352   5.838  71.436  1.00  0.00    -0.128 SA 
HETATM    9  C   UNL     1      -7.999   5.670  69.709  1.00  0.00    -0.098 A  
HETATM   10  C   UNL     1      -8.744   6.297  68.684  1.00  0.00    -0.120 A  
HETATM   11  C   UNL     1      -8.299   6.028  67.369  1.00  0.00    -0.105 A  
HETATM   12  N   UNL     1      -9.857   7.144  68.977  1.00  0.00    -0.154 NA 
HETATM   13  C   UNL     1     -10.361   7.438  70.282  1.00  0.00    -0.212 A  
HETATM   14  C   UNL     1      -7.192   5.212  67.083  1.00  0.00    -0.081 A  
HETATM   15  C   UNL     1     -11.485   8.271  70.494  1.00  0.00    -0.180 A  
HETATM   16  C   UNL     1      -6.888   4.852  69.417  1.00  0.00    -0.053 A  
HETATM   17  C   UNL     1      -6.482   4.622  68.111  1.00  0.00    -0.041 A  
BRANCH  12  18
HETATM   18  C   UNL     1     -10.549   7.812  67.849  1.00  0.00    -0.156 C  
BRANCH  18  19
HETATM   19  C   UNL     1      -9.743   9.016  67.336  1.00  0.00    -0.217 C  
BRANCH  19  20
HETATM   20  C   UNL     1     -10.604  10.286  67.273  1.00  0.00    -0.267 C  
BRANCH  20  21
HETATM   21  N   UNL     1      -9.983  11.352  66.469  1.00  0.00    -0.206 NA 
HETATM   22  C   UNL     1     -10.801  11.726  65.300  1.00  0.00    -0.290 C  
HETATM   23  C   UNL     1     -12.085  12.488  65.673  1.00  0.00    -0.400 C  
HETATM   24  N   UNL     1     -11.818  13.754  66.384  1.00  0.00    -0.381 NA 
HETATM   25  C   UNL     1     -10.967  13.447  67.565  1.00  0.00    -0.267 C  
HETATM   26  C   UNL     1      -9.721  12.562  67.280  1.00  0.00    -0.202 C  
BRANCH  24  27
HETATM   27  C   UNL     1     -11.153  14.757  65.513  1.00  0.00    -0.346 C  
BRANCH  27  28
HETATM   28  C   UNL     1     -12.007  15.160  64.300  1.00  0.00    -0.262 C  
HETATM   29  O   UNL     1     -11.584  16.423  63.795  1.00  0.00    -1.605 OA 
HETATM   30  H   UNL     1     -12.113  16.672  63.046  1.00  0.00     0.000 HD 
ENDBRANCH  27  28
ENDBRANCH  24  27
ENDBRANCH  20  21
ENDBRANCH  19  20
ENDBRANCH  18  19
ENDBRANCH  12  18
ENDBRANCH   2   4
TORSDOF 7
ENDMDL
MODEL       37
REMARK 921   NORMALIZED FREE ENERGY PREDICTED BY IDOCK:   -5.80 KCAL/MOL
REMARK 922        TOTAL FREE ENERGY PREDICTED BY IDOCK:   -8.93 KCAL/MOL
REMARK 923 INTER-LIGAND FREE ENERGY PREDICTED BY IDOCK:   -8.13 KCAL/MOL
REMARK 924 INTRA-LIGAND FREE ENERGY PREDICTED BY IDOCK:   -0.80 KCAL/MOL
REMARK 927      BINDING AFFINITY PREDICTED BY RF-SCORE:    0.00 PKD
ROOT
HETATM    1  C   UNL     1     -12.748  12.146  63.610  1.00  0.00    -0.549 C  
HETATM    2  C   UNL     1     -11.378  12.446  64.155  1.00  0.00    -0.379 C  
HETATM    3  O   UNL     1     -10.505  11.580  64.200  1.00  0.00    -0.293 OA 
ENDROOT
BRANCH   2   4
HETATM    4  C   UNL     1     -11.089  13.824  64.642  1.00  0.00    -0.391 A  
HETATM    5  C   UNL     1     -11.814  14.925  64.207  1.00  0.00    -0.312 A  
HETATM    6  C   UNL     1     -11.499  16.183  64.706  1.00  0.00    -0.168 A  
HETATM    7  C   UNL     1     -10.464  16.367  65.634  1.00  0.00    -0.347 A  
HETATM    8  S   UNL     1     -10.220  18.044  66.151  1.00  0.00    -0.311 SA 
HETATM    9  C   UNL     1      -8.870  17.910  67.289  1.00  0.00    -0.243 A  
HETATM   10  C   UNL     1      -8.229  16.693  67.618  1.00  0.00    -0.172 A  
HETATM   11  C   UNL     1      -7.174  16.803  68.552  1.00  0.00    -0.194 A  
HETATM   12  N   UNL     1      -8.630  15.452  67.030  1.00  0.00    -0.215 NA 
HETATM   13  C   UNL     1      -9.697  15.278  66.095  1.00  0.00    -0.314 A  
HETATM   14  C   UNL     1      -6.769  18.026  69.113  1.00  0.00    -0.249 A  
HETATM   15  C   UNL     1     -10.050  14.011  65.572  1.00  0.00    -0.343 A  
HETATM   16  C   UNL     1      -8.458  19.135  67.854  1.00  0.00    -0.335 A  
HETATM   17  C   UNL     1      -7.412  19.197  68.761  1.00  0.00    -0.379 A  
BRANCH  12  18
HETATM   18  C   UNL     1      -7.868  14.230  67.381  1.00  0.00    -0.187 C  
BRANCH  18  19
HETATM   19  C   UNL     1      -8.621  13.383  68.419  1.00  0.00    -0.134 C  
BRANCH  19  20
HETATM   20  C   UNL     1      -8.257  11.895  68.304  1.00  0.00    -0.157 C  
BRANCH  20  21
HETATM   21  N   UNL     1      -9.029  11.202  67.258  1.00  0.00    -0.146 NA 
HETATM   22  C   UNL     1      -8.416   9.921  66.861  1.00  0.00    -0.125 C  
HETATM   23  C   UNL     1      -8.530   8.830  67.941  1.00  0.00    -0.126 C  
HETATM   24  N   UNL     1      -9.928   8.504  68.285  1.00  0.00    -0.177 NA 
HETATM   25  C   UNL     1     -10.614   9.768  68.669  1.00  0.00    -0.221 C  
HETATM   26  C   UNL     1     -10.424  10.957  67.685  1.00  0.00    -0.209 C  
BRANCH  24  27
HETATM   27  C   UNL     1     -10.644   7.847  67.162  1.00  0.00    -0.313 C  
BRANCH  27  28
HETATM   28  C   UNL     1     -10.882   6.346  67.397  1.00  0.00    -0.375 C  
HETATM   29  O   UNL     1     -11.220   5.702  66.173  1.00  0.00    -0.763 OA 
HETATM   30  H   UNL     1     -11.367   4.774  66.318  1.00  0.00     0.000 HD 
ENDBRANCH  27  28
ENDBRANCH  24  27
ENDBRANCH  20  21
ENDBRANCH  19  20
ENDBRANCH  18  19
ENDBRANCH  12  18
ENDBRANCH   2   4
TORSDOF 7
ENDMDL
MODEL       38
REMARK 921   NORMALIZED FREE ENERGY PREDICTED BY IDOCK:   -5.79 KCAL/MOL
REMARK 922        TOTAL FREE ENERGY PREDICTED BY IDOCK:   -8.92 KCAL/MOL
REMARK 923 INTER-LIGAND FREE ENERGY PREDICTED BY IDOCK:   -8.21 KCAL/MOL
REMARK 924 INTRA-LIGAND FREE ENERGY PREDICTED BY IDOCK:   -0.71 KCAL/MOL
REMARK 927      BINDING AFFINITY PREDICTED BY RF-SCORE:    0.00 PKD
ROOT
HETATM    1  C   UNL     1      -7.909  10.390  63.312  1.00  0.00    -0.102 C  
HETATM    2  C   UNL     1      -9.283  10.563  63.902  1.00  0.00    -0.256 C  
HETATM    3  O   UNL     1     -10.141  11.238  63.336  1.00  0.00    -0.330 OA 
ENDROOT
BRANCH   2   4
HETATM    4  C   UNL     1      -9.593   9.893  65.196  1.00  0.00    -0.367 A  
HETATM    5  C   UNL     1      -9.186   8.593  65.469  1.00  0.00    -0.158 A  
HETATM    6  C   UNL     1      -9.502   8.029  66.698  1.00  0.00    -0.273 A  
HETATM    7  C   UNL     1     -10.225   8.738  67.668  1.00  0.00    -0.239 A  
HETATM    8  S   UNL     1     -10.524   7.847  69.170  1.00  0.00    -0.180 SA 
HETATM    9  C   UNL     1     -11.440   9.011  70.140  1.00  0.00    -0.062 A  
HETATM   10  C   UNL     1     -11.784  10.311  69.701  1.00  0.00    -0.160 A  
HETATM   11  C   UNL     1     -12.514  11.085  70.631  1.00  0.00    -0.465 A  
HETATM   12  N   UNL     1     -11.416  10.785  68.403  1.00  0.00    -0.342 NA 
HETATM   13  C   UNL     1     -10.666  10.055  67.429  1.00  0.00    -0.274 A  
HETATM   14  C   UNL     1     -12.891  10.610  71.898  1.00  0.00    -0.487 A  
HETATM   15  C   UNL     1     -10.321  10.601  66.170  1.00  0.00    -0.291 A  
HETATM   16  C   UNL     1     -11.822   8.539  71.412  1.00  0.00    -0.345 A  
HETATM   17  C   UNL     1     -12.546   9.331  72.290  1.00  0.00    -0.402 A  
BRANCH  12  18
HETATM   18  C   UNL     1     -11.867  12.137  67.995  1.00  0.00    -0.285 C  
BRANCH  18  19
HETATM   19  C   UNL     1     -10.891  13.220  68.480  1.00  0.00    -0.286 C  
BRANCH  19  20
HETATM   20  C   UNL     1     -11.235  14.595  67.891  1.00  0.00    -0.304 C  
BRANCH  20  21
HETATM   21  N   UNL     1     -10.309  15.651  68.337  1.00  0.00    -0.228 NA 
HETATM   22  C   UNL     1      -8.902  15.335  68.027  1.00  0.00    -0.169 C  
HETATM   23  C   UNL     1      -8.577  15.414  66.524  1.00  0.00    -0.259 C  
HETATM   24  N   UNL     1      -8.811  16.755  65.954  1.00  0.00    -0.513 NA 
HETATM   25  C   UNL     1     -10.213  17.147  66.261  1.00  0.00    -0.334 C  
HETATM   26  C   UNL     1     -10.651  16.961  67.741  1.00  0.00    -0.340 C  
BRANCH  24  27
HETATM   27  C   UNL     1      -7.863  17.766  66.488  1.00  0.00    -0.266 C  
BRANCH  27  28
HETATM   28  C   UNL     1      -6.554  17.846  65.685  1.00  0.00    -0.159 C  
HETATM   29  O   UNL     1      -5.554  17.030  66.286  1.00  0.00    -0.334 OA 
HETATM   30  H   UNL     1      -4.745  17.081  65.790  1.00  0.00     0.000 HD 
ENDBRANCH  27  28
ENDBRANCH  24  27
ENDBRANCH  20  21
ENDBRANCH  19  20
ENDBRANCH  18  19
ENDBRANCH  12  18
ENDBRANCH   2   4
TORSDOF 7
ENDMDL
MODEL       39
REMARK 921   NORMALIZED FREE ENERGY PREDICTED BY IDOCK:   -5.79 KCAL/MOL
REMARK 922        TOTAL FREE ENERGY PREDICTED BY IDOCK:   -8.91 KCAL/MOL
REMARK 923 INTER-LIGAND FREE ENERGY PREDICTED BY IDOCK:   -8.29 KCAL/MOL
REMARK 924 INTRA-LIGAND FREE ENERGY PREDICTED BY IDOCK:   -0.62 KCAL/MOL
REMARK 927      BINDING AFFINITY PREDICTED BY RF-SCORE:    0.00 PKD
ROOT
HETATM    1  C   UNL     1     -11.218   8.557  72.296  1.00  0.00    -0.432 C  
HETATM    2  C   UNL     1     -11.459   9.449  71.109  1.00  0.00    -0.352 C  
HETATM    3  O   UNL     1     -12.179  10.443  71.192  1.00  0.00    -0.336 OA 
ENDROOT
BRANCH   2   4
HETATM    4  C   UNL     1     -10.802   9.110  69.815  1.00  0.00    -0.224 A  
HETATM    5  C   UNL     1     -10.048   7.956  69.653  1.00  0.00    -0.197 A  
HETATM    6  C   UNL     1      -9.467   7.694  68.418  1.00  0.00    -0.150 A  
HETATM    7  C   UNL     1      -9.621   8.570  67.334  1.00  0.00    -0.160 A  
HETATM    8  S   UNL     1      -8.808   8.058  65.845  1.00  0.00    -0.124 SA 
HETATM    9  C   UNL     1      -9.200   9.365  64.716  1.00  0.00    -0.156 A  
HETATM   10  C   UNL     1      -9.986  10.492  65.052  1.00  0.00    -0.322 A  
HETATM   11  C   UNL     1     -10.185  11.418  64.003  1.00  0.00    -0.398 A  
HETATM   12  N   UNL     1     -10.524  10.666  66.364  1.00  0.00    -0.235 NA 
HETATM   13  C   UNL     1     -10.371   9.758  67.457  1.00  0.00    -0.237 A  
HETATM   14  C   UNL     1      -9.638  11.255  62.719  1.00  0.00    -0.327 A  
HETATM   15  C   UNL     1     -10.953   9.988  68.726  1.00  0.00    -0.242 A  
HETATM   16  C   UNL     1      -8.652   9.206  63.427  1.00  0.00    -0.178 A  
HETATM   17  C   UNL     1      -8.867  10.145  62.430  1.00  0.00    -0.261 A  
BRANCH  12  18
HETATM   18  C   UNL     1     -11.287  11.904  66.652  1.00  0.00    -0.337 C  
BRANCH  18  19
HETATM   19  C   UNL     1     -10.358  13.125  66.731  1.00  0.00    -0.252 C  
BRANCH  19  20
HETATM   20  C   UNL     1     -10.420  13.794  68.111  1.00  0.00    -0.249 C  
BRANCH  20  21
HETATM   21  N   UNL     1     -11.732  14.404  68.388  1.00  0.00    -0.319 NA 
HETATM   22  C   UNL     1     -12.506  13.648  69.390  1.00  0.00     0.008 C  
HETATM   23  C   UNL     1     -11.935  13.762  70.815  1.00  0.00    -0.240 C  
HETATM   24  N   UNL     1     -11.904  15.152  71.313  1.00  0.00    -0.321 NA 
HETATM   25  C   UNL     1     -11.157  15.977  70.325  1.00  0.00    -0.374 C  
HETATM   26  C   UNL     1     -11.594  15.805  68.843  1.00  0.00    -0.394 C  
BRANCH  24  27
HETATM   27  C   UNL     1     -13.266  15.703  71.524  1.00  0.00    -0.475 C  
BRANCH  27  28
HETATM   28  C   UNL     1     -13.699  15.688  72.999  1.00  0.00    -0.476 C  
HETATM   29  O   UNL     1     -12.669  15.136  73.812  1.00  0.00    -0.531 OA 
HETATM   30  H   UNL     1     -12.937  15.126  74.723  1.00  0.00     0.000 HD 
ENDBRANCH  27  28
ENDBRANCH  24  27
ENDBRANCH  20  21
ENDBRANCH  19  20
ENDBRANCH  18  19
ENDBRANCH  12  18
ENDBRANCH   2   4
TORSDOF 7
ENDMDL
MODEL       40
REMARK 921   NORMALIZED FREE ENERGY PREDICTED BY IDOCK:   -5.78 KCAL/MOL
REMARK 922        TOTAL FREE ENERGY PREDICTED BY IDOCK:   -8.91 KCAL/MOL
REMARK 923 INTER-LIGAND FREE ENERGY PREDICTED BY IDOCK:   -8.05 KCAL/MOL
REMARK 924 INTRA-LIGAND FREE ENERGY PREDICTED BY IDOCK:   -0.85 KCAL/MOL
REMARK 927      BINDING AFFINITY PREDICTED BY RF-SCORE:    0.00 PKD
ROOT
HETATM    1  C   UNL     1     -12.641  13.971  65.655  1.00  0.00    -0.542 C  
HETATM    2  C   UNL     1     -12.066  13.469  64.358  1.00  0.00    -0.420 C  
HETATM    3  O   UNL     1     -12.461  13.898  63.275  1.00  0.00    -0.817 OA 
ENDROOT
BRANCH   2   4
HETATM    4  C   UNL     1     -10.994  12.435  64.405  1.00  0.00    -0.377 A  
HETATM    5  C   UNL     1     -10.750  11.579  63.339  1.00  0.00    -0.444 A  
HETATM    6  C   UNL     1      -9.731  10.641  63.444  1.00  0.00    -0.387 A  
HETATM    7  C   UNL     1      -8.945  10.535  64.601  1.00  0.00    -0.207 A  
HETATM    8  S   UNL     1      -7.696   9.281  64.537  1.00  0.00    -0.120 SA 
HETATM    9  C   UNL     1      -6.919   9.423  66.122  1.00  0.00    -0.090 A  
HETATM   10  C   UNL     1      -7.302  10.358  67.111  1.00  0.00    -0.092 A  
HETATM   11  C   UNL     1      -6.550  10.310  68.307  1.00  0.00    -0.057 A  
HETATM   12  N   UNL     1      -8.381  11.272  66.900  1.00  0.00    -0.149 NA 
HETATM   13  C   UNL     1      -9.165  11.378  65.709  1.00  0.00    -0.208 A  
HETATM   14  C   UNL     1      -5.503   9.397  68.520  1.00  0.00    -0.037 A  
HETATM   15  C   UNL     1     -10.206  12.326  65.565  1.00  0.00    -0.296 A  
HETATM   16  C   UNL     1      -5.868   8.508  66.342  1.00  0.00    -0.047 A  
HETATM   17  C   UNL     1      -5.162   8.491  67.534  1.00  0.00    -0.034 A  
BRANCH  12  18
HETATM   18  C   UNL     1      -8.760  12.180  68.008  1.00  0.00    -0.180 C  
BRANCH  18  19
HETATM   19  C   UNL     1      -8.142  13.575  67.823  1.00  0.00    -0.177 C  
BRANCH  19  20
HETATM   20  C   UNL     1      -8.934  14.649  68.584  1.00  0.00    -0.184 C  
BRANCH  20  21
HETATM   21  N   UNL     1      -9.928  15.327  67.734  1.00  0.00    -0.224 NA 
HETATM   22  C   UNL     1     -10.845  16.181  68.512  1.00  0.00    -0.313 C  
HETATM   23  C   UNL     1     -10.173  17.447  69.073  1.00  0.00    -0.317 C  
HETATM   24  N   UNL     1      -9.625  18.323  68.019  1.00  0.00    -0.293 NA 
HETATM   25  C   UNL     1      -8.708  17.509  67.176  1.00  0.00    -0.237 C  
HETATM   26  C   UNL     1      -9.279  16.147  66.688  1.00  0.00    -0.246 C  
BRANCH  24  27
HETATM   27  C   UNL     1     -10.691  18.932  67.184  1.00  0.00    -0.432 C  
BRANCH  27  28
HETATM   28  C   UNL     1     -10.157  19.985  66.199  1.00  0.00    -0.475 C  
HETATM   29  O   UNL     1      -9.370  20.952  66.888  1.00  0.00    -0.652 OA 
HETATM   30  H   UNL     1      -9.041  21.603  66.280  1.00  0.00     0.000 HD 
ENDBRANCH  27  28
ENDBRANCH  24  27
ENDBRANCH  20  21
ENDBRANCH  19  20
ENDBRANCH  18  19
ENDBRANCH  12  18
ENDBRANCH   2   4
TORSDOF 7
ENDMDL
MODEL       41
REMARK 921   NORMALIZED FREE ENERGY PREDICTED BY IDOCK:   -5.77 KCAL/MOL
REMARK 922        TOTAL FREE ENERGY PREDICTED BY IDOCK:   -8.89 KCAL/MOL
REMARK 923 INTER-LIGAND FREE ENERGY PREDICTED BY IDOCK:   -8.10 KCAL/MOL
REMARK 924 INTRA-LIGAND FREE ENERGY PREDICTED BY IDOCK:   -0.78 KCAL/MOL
REMARK 927      BINDING AFFINITY PREDICTED BY RF-SCORE:    0.00 PKD
ROOT
HETATM    1  C   UNL     1      -7.796  19.582  68.617  1.00  0.00    -0.383 C  
HETATM    2  C   UNL     1      -7.899  18.086  68.496  1.00  0.00    -0.303 C  
HETATM    3  O   UNL     1      -7.235  17.339  69.213  1.00  0.00    -0.221 OA 
ENDROOT
BRANCH   2   4
HETATM    4  C   UNL     1      -8.832  17.513  67.484  1.00  0.00    -0.229 A  
HETATM    5  C   UNL     1      -9.694  18.312  66.743  1.00  0.00    -0.322 A  
HETATM    6  C   UNL     1     -10.533  17.716  65.811  1.00  0.00    -0.208 A  
HETATM    7  C   UNL     1     -10.535  16.329  65.602  1.00  0.00    -0.368 A  
HETATM    8  S   UNL     1     -11.674  15.766  64.368  1.00  0.00    -0.039 SA 
HETATM    9  C   UNL     1     -11.418  14.013  64.372  1.00  0.00    -0.344 A  
HETATM   10  C   UNL     1     -10.492  13.350  65.210  1.00  0.00    -0.324 A  
HETATM   11  C   UNL     1     -10.438  11.946  65.052  1.00  0.00    -0.333 A  
HETATM   12  N   UNL     1      -9.684  14.065  66.148  1.00  0.00    -0.295 NA 
HETATM   13  C   UNL     1      -9.683  15.481  66.339  1.00  0.00    -0.283 A  
HETATM   14  C   UNL     1     -11.247  11.243  64.144  1.00  0.00    -0.222 A  
HETATM   15  C   UNL     1      -8.837  16.122  67.275  1.00  0.00    -0.202 A  
HETATM   16  C   UNL     1     -12.228  13.303  63.463  1.00  0.00    -0.513 A  
HETATM   17  C   UNL     1     -12.148  11.923  63.347  1.00  0.00    -0.539 A  
BRANCH  12  18
HETATM   18  C   UNL     1      -8.782  13.291  67.032  1.00  0.00    -0.186 C  
BRANCH  18  19
HETATM   19  C   UNL     1      -9.503  12.847  68.314  1.00  0.00    -0.206 C  
BRANCH  19  20
HETATM   20  C   UNL     1      -9.277  11.356  68.602  1.00  0.00    -0.146 C  
BRANCH  20  21
HETATM   21  N   UNL     1     -10.518  10.566  68.509  1.00  0.00    -0.177 NA 
HETATM   22  C   UNL     1     -10.280   9.199  68.011  1.00  0.00    -0.211 C  
HETATM   23  C   UNL     1      -9.553   8.298  69.025  1.00  0.00    -0.156 C  
HETATM   24  N   UNL     1     -10.302   8.129  70.286  1.00  0.00    -0.205 NA 
HETATM   25  C   UNL     1     -10.600   9.483  70.828  1.00  0.00    -0.317 C  
HETATM   26  C   UNL     1     -11.212  10.490  69.813  1.00  0.00    -0.298 C  
BRANCH  24  27
HETATM   27  C   UNL     1     -11.557   7.360  70.095  1.00  0.00    -0.066 C  
BRANCH  27  28
HETATM   28  C   UNL     1     -12.441   7.328  71.353  1.00  0.00    -0.383 C  
HETATM   29  O   UNL     1     -13.815   7.422  70.995  1.00  0.00    -0.625 OA 
HETATM   30  H   UNL     1     -14.361   7.403  71.772  1.00  0.00     0.000 HD 
ENDBRANCH  27  28
ENDBRANCH  24  27
ENDBRANCH  20  21
ENDBRANCH  19  20
ENDBRANCH  18  19
ENDBRANCH  12  18
ENDBRANCH   2   4
TORSDOF 7
ENDMDL
MODEL       42
REMARK 921   NORMALIZED FREE ENERGY PREDICTED BY IDOCK:   -5.76 KCAL/MOL
REMARK 922        TOTAL FREE ENERGY PREDICTED BY IDOCK:   -8.88 KCAL/MOL
REMARK 923 INTER-LIGAND FREE ENERGY PREDICTED BY IDOCK:   -8.69 KCAL/MOL
REMARK 924 INTRA-LIGAND FREE ENERGY PREDICTED BY IDOCK:   -0.19 KCAL/MOL
REMARK 927      BINDING AFFINITY PREDICTED BY RF-SCORE:    0.00 PKD
ROOT
HETATM    1  C   UNL     1     -13.960  14.257  72.052  1.00  0.00    -0.595 C  
HETATM    2  C   UNL     1     -12.960  14.307  70.929  1.00  0.00    -0.329 C  
HETATM    3  O   UNL     1     -12.590  15.379  70.450  1.00  0.00    -0.394 OA 
ENDROOT
BRANCH   2   4
HETATM    4  C   UNL     1     -12.413  13.026  70.401  1.00  0.00    -0.266 A  
HETATM    5  C   UNL     1     -12.507  11.837  71.112  1.00  0.00    -0.390 A  
HETATM    6  C   UNL     1     -11.984  10.675  70.560  1.00  0.00    -0.446 A  
HETATM    7  C   UNL     1     -11.359  10.674  69.305  1.00  0.00    -0.282 A  
HETATM    8  S   UNL     1     -10.761   9.093  68.774  1.00  0.00    -0.071 SA 
HETATM    9  C   UNL     1     -10.048   9.455  67.194  1.00  0.00    -0.231 A  
HETATM   10  C   UNL     1     -10.028  10.743  66.611  1.00  0.00    -0.206 A  
HETATM   11  C   UNL     1      -9.414  10.817  65.340  1.00  0.00    -0.258 A  
HETATM   12  N   UNL     1     -10.588  11.877  67.278  1.00  0.00    -0.221 NA 
HETATM   13  C   UNL     1     -11.234  11.860  68.553  1.00  0.00    -0.256 A  
HETATM   14  C   UNL     1      -8.848   9.706  64.694  1.00  0.00    -0.253 A  
HETATM   15  C   UNL     1     -11.785  13.023  69.142  1.00  0.00    -0.378 A  
HETATM   16  C   UNL     1      -9.476   8.343  66.543  1.00  0.00    -0.284 A  
HETATM   17  C   UNL     1      -8.876   8.463  65.298  1.00  0.00    -0.113 A  
BRANCH  12  18
HETATM   18  C   UNL     1     -10.474  13.203  66.626  1.00  0.00    -0.277 C  
BRANCH  18  19
HETATM   19  C   UNL     1      -9.146  13.888  66.984  1.00  0.00    -0.259 C  
BRANCH  19  20
HETATM   20  C   UNL     1      -9.372  15.295  67.556  1.00  0.00    -0.204 C  
BRANCH  20  21
HETATM   21  N   UNL     1      -9.134  16.356  66.562  1.00  0.00    -0.252 NA 
HETATM   22  C   UNL     1     -10.277  17.280  66.440  1.00  0.00    -0.331 C  
HETATM   23  C   UNL     1     -10.453  18.197  67.663  1.00  0.00    -0.416 C  
HETATM   24  N   UNL     1      -9.280  19.058  67.911  1.00  0.00    -0.295 NA 
HETATM   25  C   UNL     1      -8.081  18.182  68.016  1.00  0.00    -0.258 C  
HETATM   26  C   UNL     1      -7.917  17.134  66.878  1.00  0.00    -0.217 C  
BRANCH  24  27
HETATM   27  C   UNL     1      -9.089  20.070  66.842  1.00  0.00    -0.361 C  
BRANCH  27  28
HETATM   28  C   UNL     1      -7.697  20.004  66.192  1.00  0.00    -0.299 C  
HETATM   29  O   UNL     1      -7.063  21.278  66.252  1.00  0.00    -0.551 OA 
HETATM   30  H   UNL     1      -6.203  21.237  65.850  1.00  0.00     0.000 HD 
ENDBRANCH  27  28
ENDBRANCH  24  27
ENDBRANCH  20  21
ENDBRANCH  19  20
ENDBRANCH  18  19
ENDBRANCH  12  18
ENDBRANCH   2   4
TORSDOF 7
ENDMDL
MODEL       43
REMARK 921   NORMALIZED FREE ENERGY PREDICTED BY IDOCK:   -5.73 KCAL/MOL
REMARK 922        TOTAL FREE ENERGY PREDICTED BY IDOCK:   -8.84 KCAL/MOL
REMARK 923 INTER-LIGAND FREE ENERGY PREDICTED BY IDOCK:   -8.23 KCAL/MOL
REMARK 924 INTRA-LIGAND FREE ENERGY PREDICTED BY IDOCK:   -0.61 KCAL/MOL
REMARK 927      BINDING AFFINITY PREDICTED BY RF-SCORE:    0.00 PKD
ROOT
HETATM    1  C   UNL     1     -12.152  12.884  70.345  1.00  0.00    -0.385 C  
HETATM    2  C   UNL     1     -12.062  13.947  69.284  1.00  0.00    -0.339 C  
HETATM    3  O   UNL     1     -12.218  15.137  69.557  1.00  0.00    -0.292 OA 
ENDROOT
BRANCH   2   4
HETATM    4  C   UNL     1     -11.773  13.535  67.882  1.00  0.00    -0.392 A  
HETATM    5  C   UNL     1     -12.272  14.235  66.791  1.00  0.00    -0.384 A  
HETATM    6  C   UNL     1     -11.959  13.803  65.509  1.00  0.00    -0.404 A  
HETATM    7  C   UNL     1     -11.157  12.673  65.289  1.00  0.00    -0.295 A  
HETATM    8  S   UNL     1     -10.871  12.287  63.584  1.00  0.00    -0.472 SA 
HETATM    9  C   UNL     1      -9.851  10.842  63.677  1.00  0.00    -0.350 A  
HETATM   10  C   UNL     1      -9.436  10.242  64.889  1.00  0.00    -0.279 A  
HETATM   11  C   UNL     1      -8.620   9.097  64.743  1.00  0.00    -0.209 A  
HETATM   12  N   UNL     1      -9.830  10.768  66.159  1.00  0.00    -0.212 NA 
HETATM   13  C   UNL     1     -10.638  11.928  66.367  1.00  0.00    -0.248 A  
HETATM   14  C   UNL     1      -8.249   8.571  63.494  1.00  0.00    -0.133 A  
HETATM   15  C   UNL     1     -10.970  12.401  67.659  1.00  0.00    -0.276 A  
HETATM   16  C   UNL     1      -9.477  10.309  62.426  1.00  0.00    -0.252 A  
HETATM   17  C   UNL     1      -8.681   9.178  62.330  1.00  0.00    -0.226 A  
BRANCH  12  18
HETATM   18  C   UNL     1      -9.403  10.046  67.381  1.00  0.00    -0.148 C  
BRANCH  18  19
HETATM   19  C   UNL     1     -10.498   9.087  67.873  1.00  0.00    -0.291 C  
BRANCH  19  20
HETATM   20  C   UNL     1     -10.831   9.322  69.354  1.00  0.00    -0.169 C  
BRANCH  20  21
HETATM   21  N   UNL     1      -9.949   8.567  70.260  1.00  0.00    -0.181 NA 
HETATM   22  C   UNL     1     -10.164   8.916  71.677  1.00  0.00    -0.345 C  
HETATM   23  C   UNL     1     -11.503   8.401  72.235  1.00  0.00    -0.384 C  
HETATM   24  N   UNL     1     -11.625   6.931  72.172  1.00  0.00    -0.276 NA 
HETATM   25  C   UNL     1     -11.387   6.510  70.765  1.00  0.00    -0.342 C  
HETATM   26  C   UNL     1     -10.119   7.107  70.093  1.00  0.00    -0.188 C  
BRANCH  24  27
HETATM   27  C   UNL     1     -10.672   6.249  73.084  1.00  0.00    -0.261 C  
BRANCH  27  28
HETATM   28  C   UNL     1     -11.143   4.848  73.508  1.00  0.00    -0.332 C  
HETATM   29  O   UNL     1     -10.569   3.856  72.663  1.00  0.00    -0.164 OA 
HETATM   30  H   UNL     1     -10.861   2.990  72.925  1.00  0.00     0.000 HD 
ENDBRANCH  27  28
ENDBRANCH  24  27
ENDBRANCH  20  21
ENDBRANCH  19  20
ENDBRANCH  18  19
ENDBRANCH  12  18
ENDBRANCH   2   4
TORSDOF 7
ENDMDL
MODEL       44
REMARK 921   NORMALIZED FREE ENERGY PREDICTED BY IDOCK:   -5.69 KCAL/MOL
REMARK 922        TOTAL FREE ENERGY PREDICTED BY IDOCK:   -8.77 KCAL/MOL
REMARK 923 INTER-LIGAND FREE ENERGY PREDICTED BY IDOCK:   -8.17 KCAL/MOL
REMARK 924 INTRA-LIGAND FREE ENERGY PREDICTED BY IDOCK:   -0.61 KCAL/MOL
REMARK 927      BINDING AFFINITY PREDICTED BY RF-SCORE:    0.00 PKD
ROOT
HETATM    1  C   UNL     1     -12.243  14.036  69.984  1.00  0.00    -0.414 C  
HETATM    2  C   UNL     1     -11.820  14.705  68.704  1.00  0.00    -0.311 C  
HETATM    3  O   UNL     1     -11.643  15.921  68.647  1.00  0.00    -0.382 OA 
ENDROOT
BRANCH   2   4
HETATM    4  C   UNL     1     -11.613  13.862  67.493  1.00  0.00    -0.392 A  
HETATM    5  C   UNL     1     -12.532  13.831  66.452  1.00  0.00    -0.404 A  
HETATM    6  C   UNL     1     -12.276  13.030  65.347  1.00  0.00    -0.520 A  
HETATM    7  C   UNL     1     -11.114  12.249  65.258  1.00  0.00    -0.316 A  
HETATM    8  S   UNL     1     -10.969  11.301  63.769  1.00  0.00    -0.177 SA 
HETATM    9  C   UNL     1      -9.429  10.456  63.992  1.00  0.00    -0.299 A  
HETATM   10  C   UNL     1      -8.607  10.596  65.135  1.00  0.00    -0.167 A  
HETATM   11  C   UNL     1      -7.415   9.838  65.113  1.00  0.00    -0.122 A  
HETATM   12  N   UNL     1      -8.978  11.443  66.225  1.00  0.00    -0.197 NA 
HETATM   13  C   UNL     1     -10.160  12.244  66.296  1.00  0.00    -0.234 A  
HETATM   14  C   UNL     1      -7.062   8.991  64.049  1.00  0.00    -0.095 A  
HETATM   15  C   UNL     1     -10.450  13.077  67.403  1.00  0.00    -0.235 A  
HETATM   16  C   UNL     1      -9.070   9.604  62.927  1.00  0.00    -0.241 A  
HETATM   17  C   UNL     1      -7.893   8.871  62.952  1.00  0.00    -0.132 A  
BRANCH  12  18
HETATM   18  C   UNL     1      -8.092  11.489  67.412  1.00  0.00    -0.146 C  
BRANCH  18  19
HETATM   19  C   UNL     1      -8.803  10.943  68.660  1.00  0.00    -0.158 C  
BRANCH  19  20
HETATM   20  C   UNL     1      -9.010   9.424  68.574  1.00  0.00    -0.128 C  
BRANCH  20  21
HETATM   21  N   UNL     1     -10.434   9.045  68.579  1.00  0.00    -0.211 NA 
HETATM   22  C   UNL     1     -10.650   7.675  69.080  1.00  0.00    -0.174 C  
HETATM   23  C   UNL     1     -10.407   7.532  70.593  1.00  0.00    -0.208 C  
HETATM   24  N   UNL     1     -11.295   8.388  71.402  1.00  0.00    -0.252 NA 
HETATM   25  C   UNL     1     -11.145   9.789  70.925  1.00  0.00    -0.357 C  
HETATM   26  C   UNL     1     -11.244   9.985  69.385  1.00  0.00    -0.188 C  
BRANCH  24  27
HETATM   27  C   UNL     1     -12.715   7.962  71.317  1.00  0.00    -0.229 C  
BRANCH  27  28
HETATM   28  C   UNL     1     -13.697   9.038  71.812  1.00  0.00    -0.419 C  
HETATM   29  O   UNL     1     -14.230   8.675  73.081  1.00  0.00    -1.059 OA 
HETATM   30  H   UNL     1     -14.837   9.340  73.386  1.00  0.00     0.000 HD 
ENDBRANCH  27  28
ENDBRANCH  24  27
ENDBRANCH  20  21
ENDBRANCH  19  20
ENDBRANCH  18  19
ENDBRANCH  12  18
ENDBRANCH   2   4
TORSDOF 7
ENDMDL
MODEL       45
REMARK 921   NORMALIZED FREE ENERGY PREDICTED BY IDOCK:   -5.68 KCAL/MOL
REMARK 922        TOTAL FREE ENERGY PREDICTED BY IDOCK:   -8.75 KCAL/MOL
REMARK 923 INTER-LIGAND FREE ENERGY PREDICTED BY IDOCK:   -8.11 KCAL/MOL
REMARK 924 INTRA-LIGAND FREE ENERGY PREDICTED BY IDOCK:   -0.65 KCAL/MOL
REMARK 927      BINDING AFFINITY PREDICTED BY RF-SCORE:    0.00 PKD
ROOT
HETATM    1  C   UNL     1     -11.829   9.753  71.512  1.00  0.00    -0.476 C  
HETATM    2  C   UNL     1     -12.463   8.389  71.563  1.00  0.00    -0.312 C  
HETATM    3  O   UNL     1     -13.609   8.232  71.982  1.00  0.00    -0.341 OA 
ENDROOT
BRANCH   2   4
HETATM    4  C   UNL     1     -11.674   7.217  71.089  1.00  0.00    -0.350 A  
HETATM    5  C   UNL     1     -11.170   6.266  71.966  1.00  0.00    -0.327 A  
HETATM    6  C   UNL     1     -10.449   5.192  71.459  1.00  0.00    -0.256 A  
HETATM    7  C   UNL     1     -10.215   5.048  70.084  1.00  0.00    -0.259 A  
HETATM    8  S   UNL     1      -9.279   3.612  69.637  1.00  0.00    -0.165 SA 
HETATM    9  C   UNL     1      -9.173   3.748  67.874  1.00  0.00    -0.172 A  
HETATM   10  C   UNL     1      -9.744   4.803  67.125  1.00  0.00    -0.184 A  
HETATM   11  C   UNL     1      -9.549   4.721  65.728  1.00  0.00    -0.187 A  
HETATM   12  N   UNL     1     -10.458   5.869  67.756  1.00  0.00    -0.214 NA 
HETATM   13  C   UNL     1     -10.701   5.995  69.159  1.00  0.00    -0.331 A  
HETATM   14  C   UNL     1      -8.830   3.683  65.111  1.00  0.00    -0.120 A  
HETATM   15  C   UNL     1     -11.436   7.071  69.710  1.00  0.00    -0.177 A  
HETATM   16  C   UNL     1      -8.451   2.709  67.251  1.00  0.00    -0.107 A  
HETATM   17  C   UNL     1      -8.277   2.674  65.876  1.00  0.00    -0.087 A  
BRANCH  12  18
HETATM   18  C   UNL     1     -10.975   6.968  66.907  1.00  0.00    -0.201 C  
BRANCH  18  19
HETATM   19  C   UNL     1      -9.950   8.106  66.782  1.00  0.00    -0.349 C  
BRANCH  19  20
HETATM   20  C   UNL     1     -10.551   9.455  67.201  1.00  0.00    -0.224 C  
BRANCH  20  21
HETATM   21  N   UNL     1      -9.740  10.600  66.752  1.00  0.00    -0.180 NA 
HETATM   22  C   UNL     1      -9.843  10.829  65.299  1.00  0.00    -0.272 C  
HETATM   23  C   UNL     1     -11.213  11.380  64.864  1.00  0.00    -0.110 C  
HETATM   24  N   UNL     1     -11.536  12.678  65.487  1.00  0.00    -0.351 NA 
HETATM   25  C   UNL     1     -11.421  12.521  66.962  1.00  0.00    -0.356 C  
HETATM   26  C   UNL     1     -10.114  11.843  67.463  1.00  0.00    -0.193 C  
BRANCH  24  27
HETATM   27  C   UNL     1     -10.646  13.767  65.012  1.00  0.00    -0.389 C  
BRANCH  27  28
HETATM   28  C   UNL     1     -11.407  15.054  64.654  1.00  0.00    -0.352 C  
HETATM   29  O   UNL     1     -12.427  14.777  63.700  1.00  0.00    -1.064 OA 
HETATM   30  H   UNL     1     -12.897  15.572  63.479  1.00  0.00     0.000 HD 
ENDBRANCH  27  28
ENDBRANCH  24  27
ENDBRANCH  20  21
ENDBRANCH  19  20
ENDBRANCH  18  19
ENDBRANCH  12  18
ENDBRANCH   2   4
TORSDOF 7
ENDMDL
MODEL       46
REMARK 921   NORMALIZED FREE ENERGY PREDICTED BY IDOCK:   -5.65 KCAL/MOL
REMARK 922        TOTAL FREE ENERGY PREDICTED BY IDOCK:   -8.72 KCAL/MOL
REMARK 923 INTER-LIGAND FREE ENERGY PREDICTED BY IDOCK:   -8.18 KCAL/MOL
REMARK 924 INTRA-LIGAND FREE ENERGY PREDICTED BY IDOCK:   -0.54 KCAL/MOL
REMARK 927      BINDING AFFINITY PREDICTED BY RF-SCORE:    0.00 PKD
ROOT
HETATM    1  C   UNL     1      -8.489   8.172  65.830  1.00  0.00    -0.153 C  
HETATM    2  C   UNL     1      -8.663   7.392  67.105  1.00  0.00    -0.121 C  
HETATM    3  O   UNL     1      -8.121   6.299  67.264  1.00  0.00    -0.108 OA 
ENDROOT
BRANCH   2   4
HETATM    4  C   UNL     1      -9.508   7.970  68.187  1.00  0.00    -0.152 A  
HETATM    5  C   UNL     1      -9.951   7.209  69.261  1.00  0.00    -0.168 A  
HETATM    6  C   UNL     1     -10.730   7.811  70.241  1.00  0.00    -0.237 A  
HETATM    7  C   UNL     1     -11.083   9.166  70.170  1.00  0.00    -0.222 A  
HETATM    8  S   UNL     1     -12.077   9.746  71.517  1.00  0.00    -0.406 SA 
HETATM    9  C   UNL     1     -12.331  11.451  71.110  1.00  0.00    -0.299 A  
HETATM   10  C   UNL     1     -11.808  12.075  69.954  1.00  0.00    -0.331 A  
HETATM   11  C   UNL     1     -12.123  13.446  69.818  1.00  0.00    -0.374 A  
HETATM   12  N   UNL     1     -11.026  11.352  69.001  1.00  0.00    -0.223 NA 
HETATM   13  C   UNL     1     -10.662   9.973  69.093  1.00  0.00    -0.220 A  
HETATM   14  C   UNL     1     -12.908  14.150  70.747  1.00  0.00    -0.378 A  
HETATM   15  C   UNL     1      -9.865   9.329  68.117  1.00  0.00    -0.185 A  
HETATM   16  C   UNL     1     -13.119  12.161  72.038  1.00  0.00    -0.462 A  
HETATM   17  C   UNL     1     -13.411  13.505  71.860  1.00  0.00    -0.529 A  
BRANCH  12  18
HETATM   18  C   UNL     1     -10.565  12.064  67.785  1.00  0.00    -0.207 C  
BRANCH  18  19
HETATM   19  C   UNL     1      -9.102  12.515  67.924  1.00  0.00    -0.199 C  
BRANCH  19  20
HETATM   20  C   UNL     1      -8.852  13.848  67.204  1.00  0.00    -0.226 C  
BRANCH  20  21
HETATM   21  N   UNL     1      -9.782  14.907  67.633  1.00  0.00    -0.211 NA 
HETATM   22  C   UNL     1      -9.083  16.135  68.056  1.00  0.00    -0.190 C  
HETATM   23  C   UNL     1      -8.440  16.903  66.888  1.00  0.00    -0.214 C  
HETATM   24  N   UNL     1      -9.422  17.342  65.877  1.00  0.00    -0.529 NA 
HETATM   25  C   UNL     1     -10.185  16.146  65.428  1.00  0.00    -0.264 C  
HETATM   26  C   UNL     1     -10.748  15.247  66.565  1.00  0.00    -0.311 C  
BRANCH  24  27
HETATM   27  C   UNL     1     -10.345  18.378  66.404  1.00  0.00    -0.405 C  
BRANCH  27  28
HETATM   28  C   UNL     1      -9.663  19.739  66.619  1.00  0.00    -0.407 C  
HETATM   29  O   UNL     1      -9.622  20.470  65.398  1.00  0.00    -0.451 OA 
HETATM   30  H   UNL     1      -9.200  21.311  65.531  1.00  0.00     0.000 HD 
ENDBRANCH  27  28
ENDBRANCH  24  27
ENDBRANCH  20  21
ENDBRANCH  19  20
ENDBRANCH  18  19
ENDBRANCH  12  18
ENDBRANCH   2   4
TORSDOF 7
ENDMDL
MODEL       47
REMARK 921   NORMALIZED FREE ENERGY PREDICTED BY IDOCK:   -5.65 KCAL/MOL
REMARK 922        TOTAL FREE ENERGY PREDICTED BY IDOCK:   -8.72 KCAL/MOL
REMARK 923 INTER-LIGAND FREE ENERGY PREDICTED BY IDOCK:   -8.47 KCAL/MOL
REMARK 924 INTRA-LIGAND FREE ENERGY PREDICTED BY IDOCK:   -0.25 KCAL/MOL
REMARK 927      BINDING AFFINITY PREDICTED BY RF-SCORE:    0.00 PKD
ROOT
HETATM    1  C   UNL     1      -7.403  10.338  68.278  1.00  0.00    -0.085 C  
HETATM    2  C   UNL     1      -7.832  11.236  67.149  1.00  0.00    -0.151 C  
HETATM    3  O   UNL     1      -8.398  10.786  66.154  1.00  0.00    -0.156 OA 
ENDROOT
BRANCH   2   4
HETATM    4  C   UNL     1      -7.562  12.697  67.257  1.00  0.00    -0.121 A  
HETATM    5  C   UNL     1      -6.323  13.190  67.645  1.00  0.00    -0.163 A  
HETATM    6  C   UNL     1      -6.134  14.564  67.719  1.00  0.00    -0.133 A  
HETATM    7  C   UNL     1      -7.165  15.465  67.416  1.00  0.00    -0.209 A  
HETATM    8  S   UNL     1      -6.725  17.174  67.566  1.00  0.00    -0.146 SA 
HETATM    9  C   UNL     1      -8.226  18.005  67.125  1.00  0.00    -0.221 A  
HETATM   10  C   UNL     1      -9.420  17.341  66.759  1.00  0.00    -0.265 A  
HETATM   11  C   UNL     1     -10.504  18.189  66.438  1.00  0.00    -0.364 A  
HETATM   12  N   UNL     1      -9.505  15.914  66.730  1.00  0.00    -0.224 NA 
HETATM   13  C   UNL     1      -8.441  15.008  67.028  1.00  0.00    -0.229 A  
HETATM   14  C   UNL     1     -10.423  19.591  66.486  1.00  0.00    -0.595 A  
HETATM   15  C   UNL     1      -8.596  13.603  66.957  1.00  0.00    -0.173 A  
HETATM   16  C   UNL     1      -8.151  19.412  67.173  1.00  0.00    -0.293 A  
HETATM   17  C   UNL     1      -9.243  20.206  66.857  1.00  0.00    -0.499 A  
BRANCH  12  18
HETATM   18  C   UNL     1     -10.809  15.295  66.394  1.00  0.00    -0.317 C  
BRANCH  18  19
HETATM   19  C   UNL     1     -11.744  15.268  67.614  1.00  0.00    -0.181 C  
BRANCH  19  20
HETATM   20  C   UNL     1     -11.943  13.841  68.142  1.00  0.00    -0.358 C  
BRANCH  20  21
HETATM   21  N   UNL     1     -11.299  13.626  69.450  1.00  0.00    -0.261 NA 
HETATM   22  C   UNL     1     -10.560  14.814  69.916  1.00  0.00    -0.064 C  
HETATM   23  C   UNL     1     -11.478  15.975  70.341  1.00  0.00    -0.377 C  
HETATM   24  N   UNL     1     -12.384  15.617  71.450  1.00  0.00    -0.393 NA 
HETATM   25  C   UNL     1     -13.141  14.400  71.051  1.00  0.00    -0.353 C  
HETATM   26  C   UNL     1     -12.283  13.235  70.483  1.00  0.00    -0.340 C  
BRANCH  24  27
HETATM   27  C   UNL     1     -11.650  15.377  72.719  1.00  0.00    -0.359 C  
BRANCH  27  28
HETATM   28  C   UNL     1     -12.582  15.093  73.908  1.00  0.00    -0.549 C  
HETATM   29  O   UNL     1     -13.184  16.300  74.364  1.00  0.00    -0.892 OA 
HETATM   30  H   UNL     1     -13.760  16.125  75.099  1.00  0.00     0.000 HD 
ENDBRANCH  27  28
ENDBRANCH  24  27
ENDBRANCH  20  21
ENDBRANCH  19  20
ENDBRANCH  18  19
ENDBRANCH  12  18
ENDBRANCH   2   4
TORSDOF 7
ENDMDL
MODEL       48
REMARK 921   NORMALIZED FREE ENERGY PREDICTED BY IDOCK:   -5.63 KCAL/MOL
REMARK 922        TOTAL FREE ENERGY PREDICTED BY IDOCK:   -8.68 KCAL/MOL
REMARK 923 INTER-LIGAND FREE ENERGY PREDICTED BY IDOCK:   -7.87 KCAL/MOL
REMARK 924 INTRA-LIGAND FREE ENERGY PREDICTED BY IDOCK:   -0.81 KCAL/MOL
REMARK 927      BINDING AFFINITY PREDICTED BY RF-SCORE:    0.00 PKD
ROOT
HETATM    1  C   UNL     1      -7.576  19.532  68.740  1.00  0.00    -0.386 C  
HETATM    2  C   UNL     1      -7.712  18.037  68.638  1.00  0.00    -0.296 C  
HETATM    3  O   UNL     1      -7.066  17.285  69.366  1.00  0.00    -0.205 OA 
ENDROOT
BRANCH   2   4
HETATM    4  C   UNL     1      -8.656  17.474  67.631  1.00  0.00    -0.219 A  
HETATM    5  C   UNL     1      -9.548  18.274  66.929  1.00  0.00    -0.296 A  
HETATM    6  C   UNL     1     -10.396  17.687  65.999  1.00  0.00    -0.305 A  
HETATM    7  C   UNL     1     -10.378  16.306  65.756  1.00  0.00    -0.374 A  
HETATM    8  S   UNL     1     -11.532  15.753  64.532  1.00  0.00    -0.172 SA 
HETATM    9  C   UNL     1     -11.244  14.006  64.485  1.00  0.00    -0.350 A  
HETATM   10  C   UNL     1     -10.289  13.339  65.286  1.00  0.00    -0.312 A  
HETATM   11  C   UNL     1     -10.214  11.941  65.092  1.00  0.00    -0.314 A  
HETATM   12  N   UNL     1      -9.474  14.045  66.225  1.00  0.00    -0.261 NA 
HETATM   13  C   UNL     1      -9.495  15.456  66.453  1.00  0.00    -0.296 A  
HETATM   14  C   UNL     1     -11.029  11.246  64.183  1.00  0.00    -0.376 A  
HETATM   15  C   UNL     1      -8.641  16.088  67.387  1.00  0.00    -0.194 A  
HETATM   16  C   UNL     1     -12.061  13.304  63.575  1.00  0.00    -0.550 A  
HETATM   17  C   UNL     1     -11.959  11.930  63.422  1.00  0.00    -0.528 A  
BRANCH  12  18
HETATM   18  C   UNL     1      -8.540  13.265  67.071  1.00  0.00    -0.161 C  
BRANCH  18  19
HETATM   19  C   UNL     1      -9.248  12.706  68.315  1.00  0.00    -0.184 C  
BRANCH  19  20
HETATM   20  C   UNL     1      -8.571  11.424  68.821  1.00  0.00    -0.083 C  
BRANCH  20  21
HETATM   21  N   UNL     1      -8.774  10.280  67.915  1.00  0.00    -0.122 NA 
HETATM   22  C   UNL     1      -7.803   9.195  68.150  1.00  0.00    -0.099 C  
HETATM   23  C   UNL     1      -8.040   8.440  69.470  1.00  0.00    -0.113 C  
HETATM   24  N   UNL     1      -9.368   7.798  69.536  1.00  0.00    -0.150 NA 
HETATM   25  C   UNL     1     -10.397   8.841  69.276  1.00  0.00    -0.214 C  
HETATM   26  C   UNL     1     -10.144   9.733  68.028  1.00  0.00    -0.171 C  
BRANCH  24  27
HETATM   27  C   UNL     1      -9.501   6.685  68.562  1.00  0.00    -0.123 C  
BRANCH  27  28
HETATM   28  C   UNL     1     -10.921   6.096  68.513  1.00  0.00    -0.320 C  
HETATM   29  O   UNL     1     -11.549   6.423  67.277  1.00  0.00    -0.695 OA 
HETATM   30  H   UNL     1     -12.427   6.060  67.247  1.00  0.00     0.000 HD 
ENDBRANCH  27  28
ENDBRANCH  24  27
ENDBRANCH  20  21
ENDBRANCH  19  20
ENDBRANCH  18  19
ENDBRANCH  12  18
ENDBRANCH   2   4
TORSDOF 7
ENDMDL
MODEL       49
REMARK 921   NORMALIZED FREE ENERGY PREDICTED BY IDOCK:   -5.62 KCAL/MOL
REMARK 922        TOTAL FREE ENERGY PREDICTED BY IDOCK:   -8.67 KCAL/MOL
REMARK 923 INTER-LIGAND FREE ENERGY PREDICTED BY IDOCK:   -7.91 KCAL/MOL
REMARK 924 INTRA-LIGAND FREE ENERGY PREDICTED BY IDOCK:   -0.76 KCAL/MOL
REMARK 927      BINDING AFFINITY PREDICTED BY RF-SCORE:    0.00 PKD
ROOT
HETATM    1  C   UNL     1      -7.293   8.274  65.021  1.00  0.00    -0.086 C  
HETATM    2  C   UNL     1      -8.115   8.954  63.960  1.00  0.00    -0.161 C  
HETATM    3  O   UNL     1      -8.085   8.579  62.789  1.00  0.00    -0.160 OA 
ENDROOT
BRANCH   2   4
HETATM    4  C   UNL     1      -8.981  10.102  64.355  1.00  0.00    -0.264 A  
HETATM    5  C   UNL     1     -10.029  10.541  63.556  1.00  0.00    -0.278 A  
HETATM    6  C   UNL     1     -10.803  11.611  63.984  1.00  0.00    -0.455 A  
HETATM    7  C   UNL     1     -10.549  12.262  65.201  1.00  0.00    -0.285 A  
HETATM    8  S   UNL     1     -11.649  13.600  65.570  1.00  0.00    -0.336 SA 
HETATM    9  C   UNL     1     -11.051  14.178  67.134  1.00  0.00    -0.307 A  
HETATM   10  C   UNL     1      -9.949  13.614  67.817  1.00  0.00    -0.235 A  
HETATM   11  C   UNL     1      -9.636  14.220  69.055  1.00  0.00    -0.010 A  
HETATM   12  N   UNL     1      -9.212  12.516  67.273  1.00  0.00    -0.183 NA 
HETATM   13  C   UNL     1      -9.490  11.854  66.037  1.00  0.00    -0.229 A  
HETATM   14  C   UNL     1     -10.349  15.311  69.578  1.00  0.00    -0.267 A  
HETATM   15  C   UNL     1      -8.727  10.757  65.573  1.00  0.00    -0.196 A  
HETATM   16  C   UNL     1     -11.763  15.274  67.663  1.00  0.00    -0.181 A  
HETATM   17  C   UNL     1     -11.416  15.843  68.879  1.00  0.00    -0.386 A  
BRANCH  12  18
HETATM   18  C   UNL     1      -8.032  12.022  68.022  1.00  0.00    -0.149 C  
BRANCH  18  19
HETATM   19  C   UNL     1      -8.265  10.600  68.555  1.00  0.00    -0.128 C  
BRANCH  19  20
HETATM   20  C   UNL     1      -9.327  10.579  69.664  1.00  0.00     0.023 C  
BRANCH  20  21
HETATM   21  N   UNL     1     -10.552   9.867  69.263  1.00  0.00    -0.212 NA 
HETATM   22  C   UNL     1     -10.843   8.712  70.134  1.00  0.00    -0.233 C  
HETATM   23  C   UNL     1     -11.307   9.115  71.545  1.00  0.00    -0.368 C  
HETATM   24  N   UNL     1     -12.544   9.920  71.538  1.00  0.00    -0.383 NA 
HETATM   25  C   UNL     1     -12.324  11.092  70.648  1.00  0.00    -0.388 C  
HETATM   26  C   UNL     1     -11.725  10.768  69.250  1.00  0.00    -0.303 C  
BRANCH  24  27
HETATM   27  C   UNL     1     -13.720   9.138  71.081  1.00  0.00    -0.102 C  
BRANCH  27  28
HETATM   28  C   UNL     1     -14.350   8.291  72.199  1.00  0.00    -0.404 C  
HETATM   29  O   UNL     1     -14.245   8.965  73.449  1.00  0.00    -1.241 OA 
HETATM   30  H   UNL     1     -14.634   8.441  74.140  1.00  0.00     0.000 HD 
ENDBRANCH  27  28
ENDBRANCH  24  27
ENDBRANCH  20  21
ENDBRANCH  19  20
ENDBRANCH  18  19
ENDBRANCH  12  18
ENDBRANCH   2   4
TORSDOF 7
ENDMDL
MODEL       50
REMARK 921   NORMALIZED FREE ENERGY PREDICTED BY IDOCK:   -5.60 KCAL/MOL
REMARK 922        TOTAL FREE ENERGY PREDICTED BY IDOCK:   -8.65 KCAL/MOL
REMARK 923 INTER-LIGAND FREE ENERGY PREDICTED BY IDOCK:   -7.91 KCAL/MOL
REMARK 924 INTRA-LIGAND FREE ENERGY PREDICTED BY IDOCK:   -0.74 KCAL/MOL
REMARK 927      BINDING AFFINITY PREDICTED BY RF-SCORE:    0.00 PKD
ROOT
HETATM    1  C   UNL     1     -12.509  13.934  63.587  1.00  0.00    -0.066 C  
HETATM    2  C   UNL     1     -12.157  12.479  63.744  1.00  0.00    -0.529 C  
HETATM    3  O   UNL     1     -12.757  11.605  63.120  1.00  0.00    -0.447 OA 
ENDROOT
BRANCH   2   4
HETATM    4  C   UNL     1     -11.055  12.108  64.677  1.00  0.00    -0.366 A  
HETATM    5  C   UNL     1     -10.509  10.831  64.698  1.00  0.00    -0.346 A  
HETATM    6  C   UNL     1      -9.478  10.552  65.586  1.00  0.00    -0.259 A  
HETATM    7  C   UNL     1      -8.980  11.525  66.465  1.00  0.00    -0.189 A  
HETATM    8  S   UNL     1      -7.664  10.974  67.515  1.00  0.00    -0.118 SA 
HETATM    9  C   UNL     1      -7.293  12.420  68.468  1.00  0.00    -0.105 A  
HETATM   10  C   UNL     1      -7.963  13.656  68.324  1.00  0.00    -0.150 A  
HETATM   11  C   UNL     1      -7.511  14.687  69.178  1.00  0.00    -0.139 A  
HETATM   12  N   UNL     1      -9.024  13.829  67.381  1.00  0.00    -0.213 NA 
HETATM   13  C   UNL     1      -9.513  12.830  66.483  1.00  0.00    -0.253 A  
HETATM   14  C   UNL     1      -6.481  14.510  70.118  1.00  0.00    -0.156 A  
HETATM   15  C   UNL     1     -10.556  13.082  65.560  1.00  0.00    -0.297 A  
HETATM   16  C   UNL     1      -6.261  12.247  69.413  1.00  0.00    -0.110 A  
HETATM   17  C   UNL     1      -5.854  13.285  70.237  1.00  0.00    -0.158 A  
BRANCH  12  18
HETATM   18  C   UNL     1      -9.716  15.138  67.334  1.00  0.00    -0.209 C  
BRANCH  18  19
HETATM   19  C   UNL     1      -9.173  16.016  66.195  1.00  0.00    -0.388 C  
BRANCH  19  20
HETATM   20  C   UNL     1      -9.615  17.478  66.349  1.00  0.00    -0.269 C  
BRANCH  20  21
HETATM   21  N   UNL     1      -8.517  18.430  66.107  1.00  0.00    -0.482 NA 
HETATM   22  C   UNL     1      -8.795  19.766  66.668  1.00  0.00    -0.359 C  
HETATM   23  C   UNL     1      -8.749  19.803  68.205  1.00  0.00    -0.275 C  
HETATM   24  N   UNL     1      -7.433  19.417  68.752  1.00  0.00    -0.349 NA 
HETATM   25  C   UNL     1      -7.079  18.082  68.197  1.00  0.00    -0.230 C  
HETATM   26  C   UNL     1      -7.237  17.934  66.657  1.00  0.00    -0.219 C  
BRANCH  24  27
HETATM   27  C   UNL     1      -6.377  20.409  68.426  1.00  0.00    -0.315 C  
BRANCH  27  28
HETATM   28  C   UNL     1      -5.530  20.808  69.646  1.00  0.00    -0.373 C  
HETATM   29  O   UNL     1      -6.264  20.597  70.848  1.00  0.00    -0.547 OA 
HETATM   30  H   UNL     1      -5.741  20.844  71.602  1.00  0.00     0.000 HD 
ENDBRANCH  27  28
ENDBRANCH  24  27
ENDBRANCH  20  21
ENDBRANCH  19  20
ENDBRANCH  18  19
ENDBRANCH  12  18
ENDBRANCH   2   4
TORSDOF 7
ENDMDL
MODEL       51
REMARK 921   NORMALIZED FREE ENERGY PREDICTED BY IDOCK:   -5.57 KCAL/MOL
REMARK 922        TOTAL FREE ENERGY PREDICTED BY IDOCK:   -8.60 KCAL/MOL
REMARK 923 INTER-LIGAND FREE ENERGY PREDICTED BY IDOCK:   -7.94 KCAL/MOL
REMARK 924 INTRA-LIGAND FREE ENERGY PREDICTED BY IDOCK:   -0.66 KCAL/MOL
REMARK 927      BINDING AFFINITY PREDICTED BY RF-SCORE:    0.00 PKD
ROOT
HETATM    1  C   UNL     1      -9.371   3.897  63.617  1.00  0.00    -0.139 C  
HETATM    2  C   UNL     1      -8.504   4.654  64.586  1.00  0.00    -0.135 C  
HETATM    3  O   UNL     1      -7.507   5.268  64.207  1.00  0.00    -0.058 OA 
ENDROOT
BRANCH   2   4
HETATM    4  C   UNL     1      -8.876   4.653  66.029  1.00  0.00    -0.121 A  
HETATM    5  C   UNL     1      -9.078   3.475  66.736  1.00  0.00    -0.179 A  
HETATM    6  C   UNL     1      -9.416   3.543  68.082  1.00  0.00    -0.215 A  
HETATM    7  C   UNL     1      -9.562   4.772  68.742  1.00  0.00    -0.163 A  
HETATM    8  S   UNL     1      -9.993   4.648  70.455  1.00  0.00    -0.200 SA 
HETATM    9  C   UNL     1     -10.096   6.343  70.957  1.00  0.00    -0.182 A  
HETATM   10  C   UNL     1      -9.865   7.439  70.094  1.00  0.00    -0.180 A  
HETATM   11  C   UNL     1      -9.994   8.713  70.693  1.00  0.00    -0.230 A  
HETATM   12  N   UNL     1      -9.535   7.251  68.715  1.00  0.00    -0.143 NA 
HETATM   13  C   UNL     1      -9.376   5.992  68.059  1.00  0.00    -0.114 A  
HETATM   14  C   UNL     1     -10.338   8.895  72.043  1.00  0.00    -0.378 A  
HETATM   15  C   UNL     1      -9.025   5.885  66.692  1.00  0.00    -0.125 A  
HETATM   16  C   UNL     1     -10.442   6.532  72.310  1.00  0.00    -0.226 A  
HETATM   17  C   UNL     1     -10.566   7.801  72.855  1.00  0.00    -0.428 A  
BRANCH  12  18
HETATM   18  C   UNL     1      -9.368   8.452  67.863  1.00  0.00    -0.135 C  
BRANCH  18  19
HETATM   19  C   UNL     1     -10.717   8.934  67.308  1.00  0.00    -0.219 C  
BRANCH  19  20
HETATM   20  C   UNL     1     -10.957  10.419  67.616  1.00  0.00    -0.312 C  
BRANCH  20  21
HETATM   21  N   UNL     1     -10.071  11.308  66.844  1.00  0.00    -0.207 NA 
HETATM   22  C   UNL     1     -10.421  11.347  65.412  1.00  0.00    -0.280 C  
HETATM   23  C   UNL     1     -11.738  12.090  65.126  1.00  0.00    -0.255 C  
HETATM   24  N   UNL     1     -11.710  13.501  65.560  1.00  0.00    -0.329 NA 
HETATM   25  C   UNL     1     -11.332  13.532  66.999  1.00  0.00    -0.324 C  
HETATM   26  C   UNL     1     -10.084  12.687  67.381  1.00  0.00    -0.218 C  
BRANCH  24  27
HETATM   27  C   UNL     1     -10.762  14.316  64.758  1.00  0.00    -0.416 C  
BRANCH  27  28
HETATM   28  C   UNL     1     -10.957  15.829  64.952  1.00  0.00    -0.427 C  
HETATM   29  O   UNL     1     -11.602  16.394  63.815  1.00  0.00    -1.605 OA 
HETATM   30  H   UNL     1     -11.722  17.329  63.934  1.00  0.00     0.000 HD 
ENDBRANCH  27  28
ENDBRANCH  24  27
ENDBRANCH  20  21
ENDBRANCH  19  20
ENDBRANCH  18  19
ENDBRANCH  12  18
ENDBRANCH   2   4
TORSDOF 7
ENDMDL
MODEL       52
REMARK 921   NORMALIZED FREE ENERGY PREDICTED BY IDOCK:   -5.54 KCAL/MOL
REMARK 922        TOTAL FREE ENERGY PREDICTED BY IDOCK:   -8.56 KCAL/MOL
REMARK 923 INTER-LIGAND FREE ENERGY PREDICTED BY IDOCK:   -7.88 KCAL/MOL
REMARK 924 INTRA-LIGAND FREE ENERGY PREDICTED BY IDOCK:   -0.68 KCAL/MOL
REMARK 927      BINDING AFFINITY PREDICTED BY RF-SCORE:    0.00 PKD
ROOT
HETATM    1  C   UNL     1      -7.993  10.441  64.303  1.00  0.00    -0.080 C  
HETATM    2  C   UNL     1      -8.000   8.938  64.375  1.00  0.00    -0.137 C  
HETATM    3  O   UNL     1      -7.476   8.254  63.497  1.00  0.00    -0.105 OA 
ENDROOT
BRANCH   2   4
HETATM    4  C   UNL     1      -8.656   8.281  65.541  1.00  0.00    -0.183 A  
HETATM    5  C   UNL     1      -8.750   6.900  65.650  1.00  0.00    -0.086 A  
HETATM    6  C   UNL     1      -9.367   6.350  66.766  1.00  0.00    -0.167 A  
HETATM    7  C   UNL     1      -9.900   7.156  67.783  1.00  0.00    -0.145 A  
HETATM    8  S   UNL     1     -10.642   6.266  69.123  1.00  0.00    -0.304 SA 
HETATM    9  C   UNL     1     -11.199   7.563  70.193  1.00  0.00    -0.196 A  
HETATM   10  C   UNL     1     -11.028   8.940  69.923  1.00  0.00    -0.182 A  
HETATM   11  C   UNL     1     -11.541   9.814  70.908  1.00  0.00    -0.441 A  
HETATM   12  N   UNL     1     -10.386   9.396  68.729  1.00  0.00    -0.204 NA 
HETATM   13  C   UNL     1      -9.835   8.562  67.707  1.00  0.00    -0.175 A  
HETATM   14  C   UNL     1     -12.189   9.364  72.071  1.00  0.00    -0.396 A  
HETATM   15  C   UNL     1      -9.193   9.087  66.560  1.00  0.00    -0.226 A  
HETATM   16  C   UNL     1     -11.851   7.117  71.361  1.00  0.00    -0.344 A  
HETATM   17  C   UNL     1     -12.346   8.010  72.298  1.00  0.00    -0.336 A  
BRANCH  12  18
HETATM   18  C   UNL     1     -10.300  10.856  68.491  1.00  0.00    -0.187 C  
BRANCH  18  19
HETATM   19  C   UNL     1     -11.568  11.385  67.804  1.00  0.00    -0.325 C  
BRANCH  19  20
HETATM   20  C   UNL     1     -11.775  12.882  68.076  1.00  0.00    -0.356 C  
BRANCH  20  21
HETATM   21  N   UNL     1     -11.136  13.325  69.327  1.00  0.00    -0.200 NA 
HETATM   22  C   UNL     1     -10.691  14.729  69.267  1.00  0.00    -0.256 C  
HETATM   23  C   UNL     1     -11.853  15.738  69.276  1.00  0.00    -0.346 C  
HETATM   24  N   UNL     1     -12.687  15.645  70.490  1.00  0.00    -0.419 NA 
HETATM   25  C   UNL     1     -13.146  14.236  70.625  1.00  0.00    -0.189 C  
HETATM   26  C   UNL     1     -12.037  13.155  70.488  1.00  0.00    -0.306 C  
BRANCH  24  27
HETATM   27  C   UNL     1     -11.953  16.069  71.709  1.00  0.00    -0.517 C  
BRANCH  27  28
HETATM   28  C   UNL     1     -12.793  15.946  72.991  1.00  0.00    -0.513 C  
HETATM   29  O   UNL     1     -12.062  15.254  73.997  1.00  0.00    -0.562 OA 
HETATM   30  H   UNL     1     -12.582  15.177  74.789  1.00  0.00     0.000 HD 
ENDBRANCH  27  28
ENDBRANCH  24  27
ENDBRANCH  20  21
ENDBRANCH  19  20
ENDBRANCH  18  19
ENDBRANCH  12  18
ENDBRANCH   2   4
TORSDOF 7
ENDMDL
MODEL       53
REMARK 921   NORMALIZED FREE ENERGY PREDICTED BY IDOCK:   -5.53 KCAL/MOL
REMARK 922        TOTAL FREE ENERGY PREDICTED BY IDOCK:   -8.55 KCAL/MOL
REMARK 923 INTER-LIGAND FREE ENERGY PREDICTED BY IDOCK:   -7.90 KCAL/MOL
REMARK 924 INTRA-LIGAND FREE ENERGY PREDICTED BY IDOCK:   -0.65 KCAL/MOL
REMARK 927      BINDING AFFINITY PREDICTED BY RF-SCORE:    0.00 PKD
ROOT
HETATM    1  C   UNL     1     -11.670   8.921  71.556  1.00  0.00    -0.394 C  
HETATM    2  C   UNL     1     -12.876   9.814  71.651  1.00  0.00    -0.421 C  
HETATM    3  O   UNL     1     -13.967   9.378  72.016  1.00  0.00    -0.347 OA 
ENDROOT
BRANCH   2   4
HETATM    4  C   UNL     1     -12.729  11.254  71.296  1.00  0.00    -0.510 A  
HETATM    5  C   UNL     1     -13.396  12.255  71.990  1.00  0.00    -0.491 A  
HETATM    6  C   UNL     1     -13.210  13.579  71.613  1.00  0.00    -0.449 A  
HETATM    7  C   UNL     1     -12.369  13.928  70.547  1.00  0.00    -0.369 A  
HETATM    8  S   UNL     1     -12.261  15.667  70.225  1.00  0.00    -0.344 SA 
HETATM    9  C   UNL     1     -11.147  15.742  68.850  1.00  0.00    -0.298 A  
HETATM   10  C   UNL     1     -10.555  14.608  68.248  1.00  0.00    -0.235 A  
HETATM   11  C   UNL     1      -9.691  14.886  67.165  1.00  0.00    -0.229 A  
HETATM   12  N   UNL     1     -10.830  13.284  68.712  1.00  0.00    -0.249 NA 
HETATM   13  C   UNL     1     -11.680  12.944  69.810  1.00  0.00    -0.281 A  
HETATM   14  C   UNL     1      -9.437  16.187  66.698  1.00  0.00    -0.269 A  
HETATM   15  C   UNL     1     -11.887  11.607  70.225  1.00  0.00    -0.414 A  
HETATM   16  C   UNL     1     -10.891  17.045  68.377  1.00  0.00    -0.333 A  
HETATM   17  C   UNL     1     -10.041  17.271  67.305  1.00  0.00    -0.300 A  
BRANCH  12  18
HETATM   18  C   UNL     1     -10.217  12.145  67.989  1.00  0.00    -0.201 C  
BRANCH  18  19
HETATM   19  C   UNL     1     -10.961  11.851  66.677  1.00  0.00    -0.336 C  
BRANCH  19  20
HETATM   20  C   UNL     1      -9.992  11.450  65.556  1.00  0.00    -0.239 C  
BRANCH  20  21
HETATM   21  N   UNL     1     -10.179  10.056  65.117  1.00  0.00    -0.210 NA 
HETATM   22  C   UNL     1      -9.169   9.636  64.127  1.00  0.00    -0.162 C  
HETATM   23  C   UNL     1      -7.763   9.463  64.727  1.00  0.00    -0.116 C  
HETATM   24  N   UNL     1      -7.713   8.443  65.793  1.00  0.00    -0.091 NA 
HETATM   25  C   UNL     1      -8.735   8.795  66.815  1.00  0.00    -0.124 C  
HETATM   26  C   UNL     1     -10.152   9.118  66.261  1.00  0.00    -0.249 C  
BRANCH  24  27
HETATM   27  C   UNL     1      -7.953   7.073  65.272  1.00  0.00    -0.127 C  
BRANCH  27  28
HETATM   28  C   UNL     1      -6.914   6.637  64.225  1.00  0.00    -0.051 C  
HETATM   29  O   UNL     1      -7.465   5.645  63.366  1.00  0.00    -0.056 OA 
HETATM   30  H   UNL     1      -6.823   5.375  62.719  1.00  0.00     0.000 HD 
ENDBRANCH  27  28
ENDBRANCH  24  27
ENDBRANCH  20  21
ENDBRANCH  19  20
ENDBRANCH  18  19
ENDBRANCH  12  18
ENDBRANCH   2   4
TORSDOF 7
ENDMDL
MODEL       54
REMARK 921   NORMALIZED FREE ENERGY PREDICTED BY IDOCK:   -5.52 KCAL/MOL
REMARK 922        TOTAL FREE ENERGY PREDICTED BY IDOCK:   -8.53 KCAL/MOL
REMARK 923 INTER-LIGAND FREE ENERGY PREDICTED BY IDOCK:   -7.96 KCAL/MOL
REMARK 924 INTRA-LIGAND FREE ENERGY PREDICTED BY IDOCK:   -0.57 KCAL/MOL
REMARK 927      BINDING AFFINITY PREDICTED BY RF-SCORE:    0.00 PKD
ROOT
HETATM    1  C   UNL     1     -11.012   7.529  73.188  1.00  0.00    -0.420 C  
HETATM    2  C   UNL     1     -11.091   8.121  71.807  1.00  0.00    -0.270 C  
HETATM    3  O   UNL     1     -11.474   9.276  71.628  1.00  0.00    -0.355 OA 
ENDROOT
BRANCH   2   4
HETATM    4  C   UNL     1     -10.690   7.279  70.645  1.00  0.00    -0.252 A  
HETATM    5  C   UNL     1     -10.817   5.896  70.660  1.00  0.00    -0.363 A  
HETATM    6  C   UNL     1     -10.431   5.169  69.540  1.00  0.00    -0.233 A  
HETATM    7  C   UNL     1      -9.915   5.798  68.398  1.00  0.00    -0.153 A  
HETATM    8  S   UNL     1      -9.486   4.699  67.076  1.00  0.00    -0.173 SA 
HETATM    9  C   UNL     1      -8.880   5.804  65.831  1.00  0.00    -0.150 A  
HETATM   10  C   UNL     1      -8.810   7.208  65.984  1.00  0.00    -0.131 A  
HETATM   11  C   UNL     1      -8.299   7.909  64.868  1.00  0.00    -0.087 A  
HETATM   12  N   UNL     1      -9.223   7.851  67.192  1.00  0.00    -0.141 NA 
HETATM   13  C   UNL     1      -9.761   7.198  68.344  1.00  0.00    -0.142 A  
HETATM   14  C   UNL     1      -7.874   7.272  63.690  1.00  0.00    -0.108 A  
HETATM   15  C   UNL     1     -10.170   7.907  69.499  1.00  0.00    -0.208 A  
HETATM   16  C   UNL     1      -8.451   5.170  64.647  1.00  0.00    -0.146 A  
HETATM   17  C   UNL     1      -7.949   5.897  63.579  1.00  0.00    -0.113 A  
BRANCH  12  18
HETATM   18  C   UNL     1      -9.062   9.321  67.296  1.00  0.00    -0.126 C  
BRANCH  18  19
HETATM   19  C   UNL     1     -10.283  10.058  66.725  1.00  0.00    -0.295 C  
BRANCH  19  20
HETATM   20  C   UNL     1     -10.947  10.954  67.781  1.00  0.00    -0.283 C  
BRANCH  20  21
HETATM   21  N   UNL     1     -11.896  11.915  67.194  1.00  0.00    -0.620 NA 
HETATM   22  C   UNL     1     -12.013  13.150  67.991  1.00  0.00    -0.304 C  
HETATM   23  C   UNL     1     -10.763  14.044  67.919  1.00  0.00    -0.240 C  
HETATM   24  N   UNL     1     -10.454  14.493  66.547  1.00  0.00    -0.281 NA 
HETATM   25  C   UNL     1     -10.351  13.287  65.681  1.00  0.00    -0.287 C  
HETATM   26  C   UNL     1     -11.521  12.271  65.808  1.00  0.00    -0.367 C  
BRANCH  24  27
HETATM   27  C   UNL     1     -11.482  15.425  66.017  1.00  0.00    -0.002 C  
BRANCH  27  28
HETATM   28  C   UNL     1     -11.013  16.191  64.769  1.00  0.00    -0.313 C  
HETATM   29  O   UNL     1     -12.019  16.160  63.762  1.00  0.00    -1.394 OA 
HETATM   30  H   UNL     1     -11.729  16.634  62.991  1.00  0.00     0.000 HD 
ENDBRANCH  27  28
ENDBRANCH  24  27
ENDBRANCH  20  21
ENDBRANCH  19  20
ENDBRANCH  18  19
ENDBRANCH  12  18
ENDBRANCH   2   4
TORSDOF 7
ENDMDL
MODEL       55
REMARK 921   NORMALIZED FREE ENERGY PREDICTED BY IDOCK:   -5.50 KCAL/MOL
REMARK 922        TOTAL FREE ENERGY PREDICTED BY IDOCK:   -8.51 KCAL/MOL
REMARK 923 INTER-LIGAND FREE ENERGY PREDICTED BY IDOCK:   -7.65 KCAL/MOL
REMARK 924 INTRA-LIGAND FREE ENERGY PREDICTED BY IDOCK:   -0.86 KCAL/MOL
REMARK 927      BINDING AFFINITY PREDICTED BY RF-SCORE:    0.00 PKD
ROOT
HETATM    1  C   UNL     1     -13.453  13.180  71.858  1.00  0.00    -0.513 C  
HETATM    2  C   UNL     1     -12.607  12.315  70.964  1.00  0.00    -0.257 C  
HETATM    3  O   UNL     1     -11.984  12.791  70.017  1.00  0.00    -0.332 OA 
ENDROOT
BRANCH   2   4
HETATM    4  C   UNL     1     -12.531  10.854  71.249  1.00  0.00    -0.493 A  
HETATM    5  C   UNL     1     -13.636  10.128  71.671  1.00  0.00    -0.275 A  
HETATM    6  C   UNL     1     -13.500   8.767  71.913  1.00  0.00    -0.447 A  
HETATM    7  C   UNL     1     -12.272   8.110  71.745  1.00  0.00    -0.319 A  
HETATM    8  S   UNL     1     -12.304   6.374  72.099  1.00  0.00    -0.046 SA 
HETATM    9  C   UNL     1     -10.631   5.882  71.794  1.00  0.00    -0.234 A  
HETATM   10  C   UNL     1      -9.611   6.765  71.370  1.00  0.00    -0.167 A  
HETATM   11  C   UNL     1      -8.343   6.169  71.178  1.00  0.00    -0.124 A  
HETATM   12  N   UNL     1      -9.862   8.157  71.165  1.00  0.00    -0.166 NA 
HETATM   13  C   UNL     1     -11.123   8.810  71.327  1.00  0.00    -0.278 A  
HETATM   14  C   UNL     1      -8.094   4.804  71.400  1.00  0.00    -0.102 A  
HETATM   15  C   UNL     1     -11.300  10.193  71.083  1.00  0.00    -0.326 A  
HETATM   16  C   UNL     1     -10.375   4.513  72.016  1.00  0.00    -0.216 A  
HETATM   17  C   UNL     1      -9.113   3.973  71.823  1.00  0.00    -0.171 A  
BRANCH  12  18
HETATM   18  C   UNL     1      -8.725   9.027  70.779  1.00  0.00    -0.224 C  
BRANCH  18  19
HETATM   19  C   UNL     1      -8.430   8.924  69.275  1.00  0.00    -0.121 C  
BRANCH  19  20
HETATM   20  C   UNL     1      -8.231  10.309  68.643  1.00  0.00    -0.116 C  
BRANCH  20  21
HETATM   21  N   UNL     1      -8.353  10.285  67.175  1.00  0.00    -0.121 NA 
HETATM   22  C   UNL     1      -9.658   9.764  66.726  1.00  0.00    -0.177 C  
HETATM   23  C   UNL     1     -10.826  10.727  67.002  1.00  0.00    -0.252 C  
HETATM   24  N   UNL     1     -10.672  12.029  66.324  1.00  0.00    -0.257 NA 
HETATM   25  C   UNL     1      -9.353  12.597  66.715  1.00  0.00    -0.232 C  
HETATM   26  C   UNL     1      -8.144  11.628  66.590  1.00  0.00    -0.121 C  
BRANCH  24  27
HETATM   27  C   UNL     1     -10.766  11.908  64.848  1.00  0.00    -0.301 C  
BRANCH  27  28
HETATM   28  C   UNL     1     -12.209  12.017  64.326  1.00  0.00    -0.308 C  
HETATM   29  O   UNL     1     -12.316  11.418  63.039  1.00  0.00    -0.952 OA 
HETATM   30  H   UNL     1     -13.207  11.486  62.716  1.00  0.00     0.000 HD 
ENDBRANCH  27  28
ENDBRANCH  24  27
ENDBRANCH  20  21
ENDBRANCH  19  20
ENDBRANCH  18  19
ENDBRANCH  12  18
ENDBRANCH   2   4
TORSDOF 7
ENDMDL
MODEL       56
REMARK 921   NORMALIZED FREE ENERGY PREDICTED BY IDOCK:   -5.49 KCAL/MOL
REMARK 922        TOTAL FREE ENERGY PREDICTED BY IDOCK:   -8.49 KCAL/MOL
REMARK 923 INTER-LIGAND FREE ENERGY PREDICTED BY IDOCK:   -7.46 KCAL/MOL
REMARK 924 INTRA-LIGAND FREE ENERGY PREDICTED BY IDOCK:   -1.03 KCAL/MOL
REMARK 927      BINDING AFFINITY PREDICTED BY RF-SCORE:    0.00 PKD
ROOT
HETATM    1  C   UNL     1      -6.924  14.876  67.934  1.00  0.00    -0.170 C  
HETATM    2  C   UNL     1      -6.465  13.634  68.648  1.00  0.00    -0.094 C  
HETATM    3  O   UNL     1      -5.872  13.697  69.724  1.00  0.00    -0.100 OA 
ENDROOT
BRANCH   2   4
HETATM    4  C   UNL     1      -6.747  12.308  68.027  1.00  0.00    -0.081 A  
HETATM    5  C   UNL     1      -6.007  11.826  66.956  1.00  0.00    -0.153 A  
HETATM    6  C   UNL     1      -6.316  10.579  66.427  1.00  0.00    -0.100 A  
HETATM    7  C   UNL     1      -7.359   9.798  66.947  1.00  0.00    -0.091 A  
HETATM    8  S   UNL     1      -7.593   8.239  66.140  1.00  0.00    -0.087 SA 
HETATM    9  C   UNL     1      -8.956   7.539  67.028  1.00  0.00    -0.130 A  
HETATM   10  C   UNL     1      -9.611   8.179  68.105  1.00  0.00    -0.149 A  
HETATM   11  C   UNL     1     -10.674   7.447  68.681  1.00  0.00    -0.134 A  
HETATM   12  N   UNL     1      -9.215   9.475  68.559  1.00  0.00    -0.131 NA 
HETATM   13  C   UNL     1      -8.141  10.254  68.028  1.00  0.00    -0.106 A  
HETATM   14  C   UNL     1     -11.074   6.181  68.221  1.00  0.00    -0.336 A  
HETATM   15  C   UNL     1      -7.794  11.525  68.546  1.00  0.00    -0.140 A  
HETATM   16  C   UNL     1      -9.362   6.269  66.569  1.00  0.00    -0.173 A  
HETATM   17  C   UNL     1     -10.417   5.590  67.159  1.00  0.00    -0.321 A  
BRANCH  12  18
HETATM   18  C   UNL     1      -9.991  10.103  69.655  1.00  0.00    -0.232 C  
BRANCH  18  19
HETATM   19  C   UNL     1     -11.351  10.614  69.154  1.00  0.00    -0.338 C  
BRANCH  19  20
HETATM   20  C   UNL     1     -11.340  12.135  68.943  1.00  0.00    -0.283 C  
BRANCH  20  21
HETATM   21  N   UNL     1     -12.022  12.539  67.701  1.00  0.00    -0.452 NA 
HETATM   22  C   UNL     1     -12.035  14.003  67.517  1.00  0.00    -0.395 C  
HETATM   23  C   UNL     1     -10.652  14.587  67.179  1.00  0.00    -0.274 C  
HETATM   24  N   UNL     1     -10.086  14.041  65.929  1.00  0.00    -0.311 NA 
HETATM   25  C   UNL     1     -10.072  12.558  66.041  1.00  0.00    -0.253 C  
HETATM   26  C   UNL     1     -11.404  11.910  66.513  1.00  0.00    -0.341 C  
BRANCH  24  27
HETATM   27  C   UNL     1     -10.856  14.463  64.732  1.00  0.00    -0.399 C  
BRANCH  27  28
HETATM   28  C   UNL     1     -11.125  15.977  64.693  1.00  0.00    -0.332 C  
HETATM   29  O   UNL     1     -11.999  16.295  63.614  1.00  0.00    -1.356 OA 
HETATM   30  H   UNL     1     -12.165  17.231  63.590  1.00  0.00     0.000 HD 
ENDBRANCH  27  28
ENDBRANCH  24  27
ENDBRANCH  20  21
ENDBRANCH  19  20
ENDBRANCH  18  19
ENDBRANCH  12  18
ENDBRANCH   2   4
TORSDOF 7
ENDMDL
MODEL       57
REMARK 921   NORMALIZED FREE ENERGY PREDICTED BY IDOCK:   -5.49 KCAL/MOL
REMARK 922        TOTAL FREE ENERGY PREDICTED BY IDOCK:   -8.49 KCAL/MOL
REMARK 923 INTER-LIGAND FREE ENERGY PREDICTED BY IDOCK:   -7.78 KCAL/MOL
REMARK 924 INTRA-LIGAND FREE ENERGY PREDICTED BY IDOCK:   -0.71 KCAL/MOL
REMARK 927      BINDING AFFINITY PREDICTED BY RF-SCORE:    0.00 PKD
ROOT
HETATM    1  C   UNL     1      -5.524  14.780  69.837  1.00  0.00    -0.100 C  
HETATM    2  C   UNL     1      -6.065  13.391  70.043  1.00  0.00    -0.125 C  
HETATM    3  O   UNL     1      -5.821  12.756  71.068  1.00  0.00    -0.312 OA 
ENDROOT
BRANCH   2   4
HETATM    4  C   UNL     1      -6.914  12.790  68.976  1.00  0.00    -0.059 A  
HETATM    5  C   UNL     1      -6.836  11.444  68.645  1.00  0.00    -0.078 A  
HETATM    6  C   UNL     1      -7.661  10.944  67.645  1.00  0.00    -0.108 A  
HETATM    7  C   UNL     1      -8.567  11.767  66.960  1.00  0.00    -0.173 A  
HETATM    8  S   UNL     1      -9.532  10.942  65.725  1.00  0.00    -0.222 SA 
HETATM    9  C   UNL     1     -10.537  12.248  65.077  1.00  0.00    -0.287 A  
HETATM   10  C   UNL     1     -10.483  13.587  65.528  1.00  0.00    -0.299 A  
HETATM   11  C   UNL     1     -11.374  14.475  64.882  1.00  0.00    -0.394 A  
HETATM   12  N   UNL     1      -9.581  13.994  66.559  1.00  0.00    -0.286 NA 
HETATM   13  C   UNL     1      -8.672  13.141  67.258  1.00  0.00    -0.210 A  
HETATM   14  C   UNL     1     -12.245  14.076  63.854  1.00  0.00    -0.336 A  
HETATM   15  C   UNL     1      -7.822  13.614  68.286  1.00  0.00    -0.141 A  
HETATM   16  C   UNL     1     -11.413  11.853  64.044  1.00  0.00    -0.480 A  
HETATM   17  C   UNL     1     -12.264  12.761  63.432  1.00  0.00    -0.594 A  
BRANCH  12  18
HETATM   18  C   UNL     1      -9.543  15.428  66.934  1.00  0.00    -0.226 C  
BRANCH  18  19
HETATM   19  C   UNL     1     -10.842  15.856  67.635  1.00  0.00    -0.312 C  
BRANCH  19  20
HETATM   20  C   UNL     1     -10.590  16.256  69.095  1.00  0.00    -0.292 C  
BRANCH  20  21
HETATM   21  N   UNL     1     -10.738  15.125  70.027  1.00  0.00    -0.256 NA 
HETATM   22  C   UNL     1     -10.684  15.546  71.439  1.00  0.00     0.232 C  
HETATM   23  C   UNL     1     -11.928  16.332  71.890  1.00  0.00    -0.441 C  
HETATM   24  N   UNL     1     -13.177  15.555  71.762  1.00  0.00    -0.454 NA 
HETATM   25  C   UNL     1     -13.277  15.074  70.358  1.00  0.00    -0.110 C  
HETATM   26  C   UNL     1     -12.001  14.390  69.792  1.00  0.00    -0.332 C  
BRANCH  24  27
HETATM   27  C   UNL     1     -13.225  14.411  72.706  1.00  0.00    -0.520 C  
BRANCH  27  28
HETATM   28  C   UNL     1     -14.069  13.235  72.184  1.00  0.00    -0.271 C  
HETATM   29  O   UNL     1     -13.442  11.997  72.503  1.00  0.00    -0.590 OA 
HETATM   30  H   UNL     1     -13.963  11.271  72.180  1.00  0.00     0.000 HD 
ENDBRANCH  27  28
ENDBRANCH  24  27
ENDBRANCH  20  21
ENDBRANCH  19  20
ENDBRANCH  18  19
ENDBRANCH  12  18
ENDBRANCH   2   4
TORSDOF 7
ENDMDL
MODEL       58
REMARK 921   NORMALIZED FREE ENERGY PREDICTED BY IDOCK:   -5.48 KCAL/MOL
REMARK 922        TOTAL FREE ENERGY PREDICTED BY IDOCK:   -8.48 KCAL/MOL
REMARK 923 INTER-LIGAND FREE ENERGY PREDICTED BY IDOCK:   -7.41 KCAL/MOL
REMARK 924 INTRA-LIGAND FREE ENERGY PREDICTED BY IDOCK:   -1.07 KCAL/MOL
REMARK 927      BINDING AFFINITY PREDICTED BY RF-SCORE:    0.00 PKD
ROOT
HETATM    1  C   UNL     1      -6.030  14.195  71.027  1.00  0.00    -0.187 C  
HETATM    2  C   UNL     1      -6.177  14.551  69.573  1.00  0.00    -0.120 C  
HETATM    3  O   UNL     1      -5.620  15.540  69.097  1.00  0.00    -0.102 OA 
ENDROOT
BRANCH   2   4
HETATM    4  C   UNL     1      -7.013  13.675  68.704  1.00  0.00    -0.103 A  
HETATM    5  C   UNL     1      -6.902  12.291  68.730  1.00  0.00    -0.092 A  
HETATM    6  C   UNL     1      -7.717  11.532  67.900  1.00  0.00    -0.120 A  
HETATM    7  C   UNL     1      -8.644  12.129  67.034  1.00  0.00    -0.191 A  
HETATM    8  S   UNL     1      -9.590  10.990  66.061  1.00  0.00    -0.225 SA 
HETATM    9  C   UNL     1     -10.629  12.061  65.106  1.00  0.00    -0.288 A  
HETATM   10  C   UNL     1     -10.608  13.472  65.197  1.00  0.00    -0.355 A  
HETATM   11  C   UNL     1     -11.521  14.142  64.351  1.00  0.00    -0.344 A  
HETATM   12  N   UNL     1      -9.714  14.153  66.081  1.00  0.00    -0.300 NA 
HETATM   13  C   UNL     1      -8.783  13.530  66.969  1.00  0.00    -0.187 A  
HETATM   14  C   UNL     1     -12.385  13.472  63.469  1.00  0.00    -0.343 A  
HETATM   15  C   UNL     1      -7.943  14.272  67.833  1.00  0.00    -0.156 A  
HETATM   16  C   UNL     1     -11.497  11.393  64.218  1.00  0.00    -0.172 A  
HETATM   17  C   UNL     1     -12.372  12.092  63.400  1.00  0.00    -0.635 A  
BRANCH  12  18
HETATM   18  C   UNL     1      -9.711  15.635  66.073  1.00  0.00    -0.346 C  
BRANCH  18  19
HETATM   19  C   UNL     1     -10.600  16.201  67.192  1.00  0.00    -0.294 C  
BRANCH  19  20
HETATM   20  C   UNL     1     -10.493  17.730  67.280  1.00  0.00    -0.353 C  
BRANCH  20  21
HETATM   21  N   UNL     1      -9.899  18.184  68.549  1.00  0.00    -0.363 NA 
HETATM   22  C   UNL     1      -8.595  17.551  68.819  1.00  0.00    -0.209 C  
HETATM   23  C   UNL     1      -7.472  18.048  67.891  1.00  0.00    -0.222 C  
HETATM   24  N   UNL     1      -7.232  19.500  68.004  1.00  0.00    -0.269 NA 
HETATM   25  C   UNL     1      -8.524  20.199  67.769  1.00  0.00    -0.255 C  
HETATM   26  C   UNL     1      -9.736  19.654  68.577  1.00  0.00    -0.402 C  
BRANCH  24  27
HETATM   27  C   UNL     1      -6.673  19.876  69.327  1.00  0.00    -0.326 C  
BRANCH  27  28
HETATM   28  C   UNL     1      -5.339  19.177  69.638  1.00  0.00    -0.198 C  
HETATM   29  O   UNL     1      -5.536  18.138  70.591  1.00  0.00    -0.248 OA 
HETATM   30  H   UNL     1      -4.711  17.707  70.783  1.00  0.00     0.000 HD 
ENDBRANCH  27  28
ENDBRANCH  24  27
ENDBRANCH  20  21
ENDBRANCH  19  20
ENDBRANCH  18  19
ENDBRANCH  12  18
ENDBRANCH   2   4
TORSDOF 7
ENDMDL
MODEL       59
REMARK 921   NORMALIZED FREE ENERGY PREDICTED BY IDOCK:   -5.48 KCAL/MOL
REMARK 922        TOTAL FREE ENERGY PREDICTED BY IDOCK:   -8.48 KCAL/MOL
REMARK 923 INTER-LIGAND FREE ENERGY PREDICTED BY IDOCK:   -7.52 KCAL/MOL
REMARK 924 INTRA-LIGAND FREE ENERGY PREDICTED BY IDOCK:   -0.96 KCAL/MOL
REMARK 927      BINDING AFFINITY PREDICTED BY RF-SCORE:    0.00 PKD
ROOT
HETATM    1  C   UNL     1      -9.959   8.419  72.436  1.00  0.00    -0.380 C  
HETATM    2  C   UNL     1     -11.324   8.854  71.978  1.00  0.00    -0.357 C  
HETATM    3  O   UNL     1     -12.342   8.483  72.560  1.00  0.00    -0.388 OA 
ENDROOT
BRANCH   2   4
HETATM    4  C   UNL     1     -11.427   9.757  70.796  1.00  0.00    -0.417 A  
HETATM    5  C   UNL     1     -12.117  10.961  70.848  1.00  0.00    -0.455 A  
HETATM    6  C   UNL     1     -12.169  11.760  69.713  1.00  0.00    -0.270 A  
HETATM    7  C   UNL     1     -11.547  11.378  68.516  1.00  0.00    -0.318 A  
HETATM    8  S   UNL     1     -11.725  12.533  67.185  1.00  0.00    -0.312 SA 
HETATM    9  C   UNL     1     -10.842  11.748  65.865  1.00  0.00    -0.291 A  
HETATM   10  C   UNL     1     -10.195  10.497  65.980  1.00  0.00    -0.245 A  
HETATM   11  C   UNL     1      -9.542  10.049  64.809  1.00  0.00    -0.374 A  
HETATM   12  N   UNL     1     -10.216   9.751  67.200  1.00  0.00    -0.213 NA 
HETATM   13  C   UNL     1     -10.844  10.159  68.417  1.00  0.00    -0.242 A  
HETATM   14  C   UNL     1      -9.539  10.774  63.606  1.00  0.00    -0.347 A  
HETATM   15  C   UNL     1     -10.805   9.374  69.594  1.00  0.00    -0.245 A  
HETATM   16  C   UNL     1     -10.837  12.472  64.655  1.00  0.00    -0.343 A  
HETATM   17  C   UNL     1     -10.190  11.990  63.527  1.00  0.00    -0.477 A  
BRANCH  12  18
HETATM   18  C   UNL     1      -9.565   8.420  67.221  1.00  0.00    -0.165 C  
BRANCH  18  19
HETATM   19  C   UNL     1     -10.537   7.316  66.775  1.00  0.00    -0.288 C  
BRANCH  19  20
HETATM   20  C   UNL     1     -10.557   6.146  67.769  1.00  0.00    -0.269 C  
BRANCH  20  21
HETATM   21  N   UNL     1      -9.235   5.884  68.363  1.00  0.00    -0.117 NA 
HETATM   22  C   UNL     1      -9.262   5.921  69.837  1.00  0.00    -0.146 C  
HETATM   23  C   UNL     1      -9.997   4.723  70.464  1.00  0.00    -0.236 C  
HETATM   24  N   UNL     1      -9.384   3.425  70.117  1.00  0.00    -0.160 NA 
HETATM   25  C   UNL     1      -9.301   3.338  68.634  1.00  0.00    -0.169 C  
HETATM   26  C   UNL     1      -8.692   4.579  67.924  1.00  0.00    -0.104 C  
BRANCH  24  27
HETATM   27  C   UNL     1      -8.038   3.261  70.721  1.00  0.00    -0.053 C  
BRANCH  27  28
HETATM   28  C   UNL     1      -8.073   3.183  72.257  1.00  0.00    -0.059 C  
HETATM   29  O   UNL     1      -7.438   4.324  72.824  1.00  0.00    -0.074 OA 
HETATM   30  H   UNL     1      -7.459   4.275  73.773  1.00  0.00     0.000 HD 
ENDBRANCH  27  28
ENDBRANCH  24  27
ENDBRANCH  20  21
ENDBRANCH  19  20
ENDBRANCH  18  19
ENDBRANCH  12  18
ENDBRANCH   2   4
TORSDOF 7
ENDMDL
MODEL       60
REMARK 921   NORMALIZED FREE ENERGY PREDICTED BY IDOCK:   -5.48 KCAL/MOL
REMARK 922        TOTAL FREE ENERGY PREDICTED BY IDOCK:   -8.48 KCAL/MOL
REMARK 923 INTER-LIGAND FREE ENERGY PREDICTED BY IDOCK:   -7.77 KCAL/MOL
REMARK 924 INTRA-LIGAND FREE ENERGY PREDICTED BY IDOCK:   -0.71 KCAL/MOL
REMARK 927      BINDING AFFINITY PREDICTED BY RF-SCORE:    0.00 PKD
ROOT
HETATM    1  C   UNL     1     -12.757  13.866  65.610  1.00  0.00    -0.534 C  
HETATM    2  C   UNL     1     -12.199  13.390  64.296  1.00  0.00    -0.392 C  
HETATM    3  O   UNL     1     -12.607  13.841  63.227  1.00  0.00    -0.830 OA 
ENDROOT
BRANCH   2   4
HETATM    4  C   UNL     1     -11.128  12.353  64.309  1.00  0.00    -0.399 A  
HETATM    5  C   UNL     1     -10.603  11.823  63.137  1.00  0.00    -0.341 A  
HETATM    6  C   UNL     1      -9.601  10.865  63.218  1.00  0.00    -0.377 A  
HETATM    7  C   UNL     1      -9.110  10.417  64.453  1.00  0.00    -0.234 A  
HETATM    8  S   UNL     1      -7.831   9.196  64.344  1.00  0.00    -0.134 SA 
HETATM    9  C   UNL     1      -7.461   8.866  66.044  1.00  0.00    -0.090 A  
HETATM   10  C   UNL     1      -8.106   9.497  67.132  1.00  0.00    -0.106 A  
HETATM   11  C   UNL     1      -7.659   9.095  68.411  1.00  0.00    -0.083 A  
HETATM   12  N   UNL     1      -9.139  10.465  66.932  1.00  0.00    -0.143 NA 
HETATM   13  C   UNL     1      -9.621  10.922  65.666  1.00  0.00    -0.224 A  
HETATM   14  C   UNL     1      -6.657   8.130  68.606  1.00  0.00    -0.058 A  
HETATM   15  C   UNL     1     -10.635  11.901  65.546  1.00  0.00    -0.313 A  
HETATM   16  C   UNL     1      -6.457   7.896  66.245  1.00  0.00    -0.047 A  
HETATM   17  C   UNL     1      -6.054   7.526  67.519  1.00  0.00    -0.048 A  
BRANCH  12  18
HETATM   18  C   UNL     1      -9.808  11.036  68.125  1.00  0.00    -0.176 C  
BRANCH  18  19
HETATM   19  C   UNL     1     -11.125  10.305  68.430  1.00  0.00    -0.302 C  
BRANCH  19  20
HETATM   20  C   UNL     1     -11.298  10.060  69.936  1.00  0.00    -0.250 C  
BRANCH  20  21
HETATM   21  N   UNL     1     -10.364   9.047  70.457  1.00  0.00    -0.203 NA 
HETATM   22  C   UNL     1     -10.451   8.901  71.922  1.00  0.00    -0.345 C  
HETATM   23  C   UNL     1     -11.752   8.225  72.391  1.00  0.00    -0.397 C  
HETATM   24  N   UNL     1     -11.919   6.861  71.852  1.00  0.00    -0.313 NA 
HETATM   25  C   UNL     1     -11.812   6.936  70.370  1.00  0.00    -0.299 C  
HETATM   26  C   UNL     1     -10.588   7.727  69.827  1.00  0.00    -0.241 C  
BRANCH  24  27
HETATM   27  C   UNL     1     -10.913   5.915  72.396  1.00  0.00    -0.264 C  
BRANCH  27  28
HETATM   28  C   UNL     1     -11.525   4.855  73.328  1.00  0.00    -0.274 C  
HETATM   29  O   UNL     1     -10.770   4.759  74.531  1.00  0.00    -0.355 OA 
HETATM   30  H   UNL     1     -11.148   4.104  75.106  1.00  0.00     0.000 HD 
ENDBRANCH  27  28
ENDBRANCH  24  27
ENDBRANCH  20  21
ENDBRANCH  19  20
ENDBRANCH  18  19
ENDBRANCH  12  18
ENDBRANCH   2   4
TORSDOF 7
ENDMDL
MODEL       61
REMARK 921   NORMALIZED FREE ENERGY PREDICTED BY IDOCK:   -5.45 KCAL/MOL
REMARK 922        TOTAL FREE ENERGY PREDICTED BY IDOCK:   -8.44 KCAL/MOL
REMARK 923 INTER-LIGAND FREE ENERGY PREDICTED BY IDOCK:   -7.54 KCAL/MOL
REMARK 924 INTRA-LIGAND FREE ENERGY PREDICTED BY IDOCK:   -0.89 KCAL/MOL
REMARK 927      BINDING AFFINITY PREDICTED BY RF-SCORE:    0.00 PKD
ROOT
HETATM    1  C   UNL     1      -5.629  11.751  69.138  1.00  0.00    -0.052 C  
HETATM    2  C   UNL     1      -5.764  12.642  67.933  1.00  0.00    -0.110 C  
HETATM    3  O   UNL     1      -5.580  12.211  66.795  1.00  0.00    -0.301 OA 
ENDROOT
BRANCH   2   4
HETATM    4  C   UNL     1      -6.133  14.071  68.138  1.00  0.00    -0.129 A  
HETATM    5  C   UNL     1      -5.488  14.870  69.074  1.00  0.00    -0.093 A  
HETATM    6  C   UNL     1      -5.874  16.197  69.211  1.00  0.00    -0.130 A  
HETATM    7  C   UNL     1      -6.902  16.748  68.432  1.00  0.00    -0.160 A  
HETATM    8  S   UNL     1      -7.243  18.456  68.754  1.00  0.00    -0.270 SA 
HETATM    9  C   UNL     1      -8.561  18.811  67.625  1.00  0.00    -0.272 A  
HETATM   10  C   UNL     1      -9.116  17.864  66.733  1.00  0.00    -0.268 A  
HETATM   11  C   UNL     1     -10.158  18.352  65.912  1.00  0.00    -0.175 A  
HETATM   12  N   UNL     1      -8.647  16.515  66.686  1.00  0.00    -0.226 NA 
HETATM   13  C   UNL     1      -7.589  15.970  67.477  1.00  0.00    -0.155 A  
HETATM   14  C   UNL     1     -10.631  19.674  65.974  1.00  0.00    -0.584 A  
HETATM   15  C   UNL     1      -7.164  14.625  67.359  1.00  0.00    -0.182 A  
HETATM   16  C   UNL     1      -9.040  20.136  67.685  1.00  0.00    -0.437 A  
HETATM   17  C   UNL     1     -10.071  20.569  66.865  1.00  0.00    -0.390 A  
BRANCH  12  18
HETATM   18  C   UNL     1      -9.321  15.568  65.766  1.00  0.00    -0.257 C  
BRANCH  18  19
HETATM   19  C   UNL     1     -10.683  15.124  66.322  1.00  0.00    -0.320 C  
BRANCH  19  20
HETATM   20  C   UNL     1     -10.823  13.595  66.318  1.00  0.00    -0.282 C  
BRANCH  20  21
HETATM   21  N   UNL     1     -10.090  12.956  67.425  1.00  0.00    -0.221 NA 
HETATM   22  C   UNL     1     -10.624  13.333  68.747  1.00  0.00    -0.201 C  
HETATM   23  C   UNL     1     -12.002  12.716  69.046  1.00  0.00    -0.236 C  
HETATM   24  N   UNL     1     -11.987  11.240  69.037  1.00  0.00    -0.400 NA 
HETATM   25  C   UNL     1     -11.427  10.794  67.733  1.00  0.00    -0.202 C  
HETATM   26  C   UNL     1     -10.100  11.482  67.303  1.00  0.00    -0.199 C  
BRANCH  24  27
HETATM   27  C   UNL     1     -11.192  10.680  70.159  1.00  0.00    -0.302 C  
BRANCH  27  28
HETATM   28  C   UNL     1     -12.064  10.067  71.267  1.00  0.00    -0.394 C  
HETATM   29  O   UNL     1     -13.332   9.684  70.743  1.00  0.00    -0.594 OA 
HETATM   30  H   UNL     1     -13.871   9.305  71.428  1.00  0.00     0.000 HD 
ENDBRANCH  27  28
ENDBRANCH  24  27
ENDBRANCH  20  21
ENDBRANCH  19  20
ENDBRANCH  18  19
ENDBRANCH  12  18
ENDBRANCH   2   4
TORSDOF 7
ENDMDL
MODEL       62
REMARK 921   NORMALIZED FREE ENERGY PREDICTED BY IDOCK:   -5.43 KCAL/MOL
REMARK 922        TOTAL FREE ENERGY PREDICTED BY IDOCK:   -8.41 KCAL/MOL
REMARK 923 INTER-LIGAND FREE ENERGY PREDICTED BY IDOCK:   -7.76 KCAL/MOL
REMARK 924 INTRA-LIGAND FREE ENERGY PREDICTED BY IDOCK:   -0.65 KCAL/MOL
REMARK 927      BINDING AFFINITY PREDICTED BY RF-SCORE:    0.00 PKD
ROOT
HETATM    1  C   UNL     1      -9.070   9.718  62.489  1.00  0.00    -0.301 C  
HETATM    2  C   UNL     1      -9.269   9.797  63.978  1.00  0.00    -0.215 C  
HETATM    3  O   UNL     1      -8.988   8.851  64.712  1.00  0.00    -0.157 OA 
ENDROOT
BRANCH   2   4
HETATM    4  C   UNL     1      -9.814  11.057  64.560  1.00  0.00    -0.343 A  
HETATM    5  C   UNL     1     -10.128  12.156  63.771  1.00  0.00    -0.404 A  
HETATM    6  C   UNL     1     -10.639  13.298  64.375  1.00  0.00    -0.438 A  
HETATM    7  C   UNL     1     -10.841  13.368  65.761  1.00  0.00    -0.275 A  
HETATM    8  S   UNL     1     -11.505  14.907  66.336  1.00  0.00    -0.223 SA 
HETATM    9  C   UNL     1     -11.624  14.651  68.085  1.00  0.00    -0.335 A  
HETATM   10  C   UNL     1     -11.246  13.455  68.738  1.00  0.00    -0.275 A  
HETATM   11  C   UNL     1     -11.425  13.455  70.140  1.00  0.00    -0.059 A  
HETATM   12  N   UNL     1     -10.716  12.342  68.015  1.00  0.00    -0.211 NA 
HETATM   13  C   UNL     1     -10.527  12.279  66.599  1.00  0.00    -0.222 A  
HETATM   14  C   UNL     1     -11.928  14.557  70.851  1.00  0.00    -0.389 A  
HETATM   15  C   UNL     1     -10.015  11.131  65.950  1.00  0.00    -0.285 A  
HETATM   16  C   UNL     1     -12.127  15.756  68.803  1.00  0.00    -0.087 A  
HETATM   17  C   UNL     1     -12.278  15.713  70.181  1.00  0.00    -0.387 A  
BRANCH  12  18
HETATM   18  C   UNL     1     -10.287  11.147  68.780  1.00  0.00    -0.205 C  
BRANCH  18  19
HETATM   19  C   UNL     1     -11.488  10.267  69.158  1.00  0.00    -0.210 C  
BRANCH  19  20
HETATM   20  C   UNL     1     -11.438   9.849  70.635  1.00  0.00    -0.334 C  
BRANCH  20  21
HETATM   21  N   UNL     1     -10.419   8.818  70.898  1.00  0.00    -0.208 NA 
HETATM   22  C   UNL     1     -10.371   8.422  72.318  1.00  0.00    -0.333 C  
HETATM   23  C   UNL     1     -11.595   7.602  72.764  1.00  0.00    -0.281 C  
HETATM   24  N   UNL     1     -11.749   6.341  72.012  1.00  0.00    -0.320 NA 
HETATM   25  C   UNL     1     -11.774   6.672  70.561  1.00  0.00    -0.394 C  
HETATM   26  C   UNL     1     -10.638   7.613  70.069  1.00  0.00    -0.238 C  
BRANCH  24  27
HETATM   27  C   UNL     1     -10.658   5.377  72.304  1.00  0.00    -0.225 C  
BRANCH  27  28
HETATM   28  C   UNL     1     -10.737   4.791  73.723  1.00  0.00    -0.295 C  
HETATM   29  O   UNL     1      -9.433   4.676  74.284  1.00  0.00    -0.116 OA 
HETATM   30  H   UNL     1      -9.482   4.313  75.161  1.00  0.00     0.000 HD 
ENDBRANCH  27  28
ENDBRANCH  24  27
ENDBRANCH  20  21
ENDBRANCH  19  20
ENDBRANCH  18  19
ENDBRANCH  12  18
ENDBRANCH   2   4
TORSDOF 7
ENDMDL
MODEL       63
REMARK 921   NORMALIZED FREE ENERGY PREDICTED BY IDOCK:   -5.43 KCAL/MOL
REMARK 922        TOTAL FREE ENERGY PREDICTED BY IDOCK:   -8.40 KCAL/MOL
REMARK 923 INTER-LIGAND FREE ENERGY PREDICTED BY IDOCK:   -7.60 KCAL/MOL
REMARK 924 INTRA-LIGAND FREE ENERGY PREDICTED BY IDOCK:   -0.80 KCAL/MOL
REMARK 927      BINDING AFFINITY PREDICTED BY RF-SCORE:    0.00 PKD
ROOT
HETATM    1  C   UNL     1      -6.526  13.423  67.499  1.00  0.00    -0.129 C  
HETATM    2  C   UNL     1      -6.433  11.930  67.338  1.00  0.00    -0.126 C  
HETATM    3  O   UNL     1      -6.243  11.417  66.237  1.00  0.00    -0.114 OA 
ENDROOT
BRANCH   2   4
HETATM    4  C   UNL     1      -6.571  11.071  68.549  1.00  0.00    -0.059 A  
HETATM    5  C   UNL     1      -5.475  10.704  69.319  1.00  0.00    -0.037 A  
HETATM    6  C   UNL     1      -5.673   9.907  70.440  1.00  0.00    -0.060 A  
HETATM    7  C   UNL     1      -6.951   9.462  70.809  1.00  0.00    -0.114 A  
HETATM    8  S   UNL     1      -6.994   8.461  72.269  1.00  0.00    -0.071 SA 
HETATM    9  C   UNL     1      -8.717   8.083  72.433  1.00  0.00    -0.167 A  
HETATM   10  C   UNL     1      -9.715   8.537  71.541  1.00  0.00    -0.234 A  
HETATM   11  C   UNL     1     -11.031   8.127  71.853  1.00  0.00    -0.338 A  
HETATM   12  N   UNL     1      -9.395   9.346  70.406  1.00  0.00    -0.252 NA 
HETATM   13  C   UNL     1      -8.088   9.804  70.050  1.00  0.00    -0.189 A  
HETATM   14  C   UNL     1     -11.342   7.316  72.958  1.00  0.00    -0.246 A  
HETATM   15  C   UNL     1      -7.851  10.622  68.919  1.00  0.00    -0.129 A  
HETATM   16  C   UNL     1      -9.033   7.268  73.539  1.00  0.00    -0.215 A  
HETATM   17  C   UNL     1     -10.339   6.883  73.803  1.00  0.00    -0.409 A  
BRANCH  12  18
HETATM   18  C   UNL     1     -10.490   9.731  69.485  1.00  0.00    -0.232 C  
BRANCH  18  19
HETATM   19  C   UNL     1     -11.337  10.872  70.071  1.00  0.00    -0.386 C  
BRANCH  19  20
HETATM   20  C   UNL     1     -11.874  11.799  68.971  1.00  0.00    -0.317 C  
BRANCH  20  21
HETATM   21  N   UNL     1     -10.832  12.202  68.011  1.00  0.00    -0.213 NA 
HETATM   22  C   UNL     1     -11.310  12.173  66.616  1.00  0.00    -0.350 C  
HETATM   23  C   UNL     1     -12.315  13.293  66.293  1.00  0.00    -0.317 C  
HETATM   24  N   UNL     1     -11.753  14.645  66.486  1.00  0.00    -0.356 NA 
HETATM   25  C   UNL     1     -11.224  14.729  67.874  1.00  0.00    -0.306 C  
HETATM   26  C   UNL     1     -10.308  13.552  68.313  1.00  0.00    -0.252 C  
BRANCH  24  27
HETATM   27  C   UNL     1     -10.682  14.953  65.504  1.00  0.00    -0.356 C  
BRANCH  27  28
HETATM   28  C   UNL     1     -10.874  16.312  64.812  1.00  0.00    -0.224 C  
HETATM   29  O   UNL     1     -11.773  16.187  63.716  1.00  0.00    -1.404 OA 
HETATM   30  H   UNL     1     -11.891  17.027  63.288  1.00  0.00     0.000 HD 
ENDBRANCH  27  28
ENDBRANCH  24  27
ENDBRANCH  20  21
ENDBRANCH  19  20
ENDBRANCH  18  19
ENDBRANCH  12  18
ENDBRANCH   2   4
TORSDOF 7
ENDMDL
MODEL       64
REMARK 921   NORMALIZED FREE ENERGY PREDICTED BY IDOCK:   -5.38 KCAL/MOL
REMARK 922        TOTAL FREE ENERGY PREDICTED BY IDOCK:   -8.33 KCAL/MOL
REMARK 923 INTER-LIGAND FREE ENERGY PREDICTED BY IDOCK:   -7.46 KCAL/MOL
REMARK 924 INTRA-LIGAND FREE ENERGY PREDICTED BY IDOCK:   -0.87 KCAL/MOL
REMARK 927      BINDING AFFINITY PREDICTED BY RF-SCORE:    0.00 PKD
ROOT
HETATM    1  C   UNL     1      -6.569   6.002  66.548  1.00  0.00    -0.058 C  
HETATM    2  C   UNL     1      -7.430   7.066  67.171  1.00  0.00    -0.095 C  
HETATM    3  O   UNL     1      -7.601   7.119  68.389  1.00  0.00    -0.112 OA 
ENDROOT
BRANCH   2   4
HETATM    4  C   UNL     1      -8.078   8.072  66.283  1.00  0.00    -0.112 A  
HETATM    5  C   UNL     1      -7.947   8.026  64.901  1.00  0.00    -0.138 A  
HETATM    6  C   UNL     1      -8.583   8.990  64.129  1.00  0.00    -0.165 A  
HETATM    7  C   UNL     1      -9.350  10.010  64.711  1.00  0.00    -0.271 A  
HETATM    8  S   UNL     1     -10.082  11.138  63.558  1.00  0.00    -0.410 SA 
HETATM    9  C   UNL     1     -10.952  12.265  64.612  1.00  0.00    -0.306 A  
HETATM   10  C   UNL     1     -10.975  12.172  66.023  1.00  0.00    -0.293 A  
HETATM   11  C   UNL     1     -11.733  13.169  66.678  1.00  0.00    -0.427 A  
HETATM   12  N   UNL     1     -10.269  11.140  66.717  1.00  0.00    -0.224 NA 
HETATM   13  C   UNL     1      -9.502  10.099  66.110  1.00  0.00    -0.188 A  
HETATM   14  C   UNL     1     -12.410  14.193  65.994  1.00  0.00    -0.470 A  
HETATM   15  C   UNL     1      -8.846   9.097  66.865  1.00  0.00    -0.137 A  
HETATM   16  C   UNL     1     -11.632  13.295  63.931  1.00  0.00    -0.451 A  
HETATM   17  C   UNL     1     -12.357  14.258  64.615  1.00  0.00    -0.433 A  
BRANCH  12  18
HETATM   18  C   UNL     1     -10.294  11.148  68.199  1.00  0.00    -0.187 C  
BRANCH  18  19
HETATM   19  C   UNL     1     -11.493  10.355  68.741  1.00  0.00    -0.240 C  
BRANCH  19  20
HETATM   20  C   UNL     1     -11.335  10.044  70.237  1.00  0.00    -0.308 C  
BRANCH  20  21
HETATM   21  N   UNL     1     -10.396   8.937  70.490  1.00  0.00    -0.193 NA 
HETATM   22  C   UNL     1     -10.235   8.653  71.928  1.00  0.00    -0.334 C  
HETATM   23  C   UNL     1     -11.477   8.003  72.564  1.00  0.00    -0.409 C  
HETATM   24  N   UNL     1     -11.830   6.709  71.947  1.00  0.00    -0.318 NA 
HETATM   25  C   UNL     1     -11.979   6.924  70.482  1.00  0.00    -0.305 C  
HETATM   26  C   UNL     1     -10.817   7.699  69.798  1.00  0.00    -0.217 C  
BRANCH  24  27
HETATM   27  C   UNL     1     -10.811   5.662  72.216  1.00  0.00    -0.242 C  
BRANCH  27  28
HETATM   28  C   UNL     1     -10.640   5.360  73.713  1.00  0.00    -0.286 C  
HETATM   29  O   UNL     1     -10.176   4.026  73.899  1.00  0.00    -0.132 OA 
HETATM   30  H   UNL     1     -10.071   3.839  74.824  1.00  0.00     0.000 HD 
ENDBRANCH  27  28
ENDBRANCH  24  27
ENDBRANCH  20  21
ENDBRANCH  19  20
ENDBRANCH  18  19
ENDBRANCH  12  18
ENDBRANCH   2   4
TORSDOF 7
ENDMDL
MODEL       65
REMARK 921   NORMALIZED FREE ENERGY PREDICTED BY IDOCK:   -5.37 KCAL/MOL
REMARK 922        TOTAL FREE ENERGY PREDICTED BY IDOCK:   -8.32 KCAL/MOL
REMARK 923 INTER-LIGAND FREE ENERGY PREDICTED BY IDOCK:   -7.67 KCAL/MOL
REMARK 924 INTRA-LIGAND FREE ENERGY PREDICTED BY IDOCK:   -0.65 KCAL/MOL
REMARK 927      BINDING AFFINITY PREDICTED BY RF-SCORE:    0.00 PKD
ROOT
HETATM    1  C   UNL     1     -10.829   8.545  72.207  1.00  0.00    -0.418 C  
HETATM    2  C   UNL     1     -11.995   9.434  71.870  1.00  0.00    -0.346 C  
HETATM    3  O   UNL     1     -13.029   9.413  72.537  1.00  0.00    -0.380 OA 
ENDROOT
BRANCH   2   4
HETATM    4  C   UNL     1     -11.877  10.357  70.706  1.00  0.00    -0.466 A  
HETATM    5  C   UNL     1     -12.244  11.694  70.786  1.00  0.00    -0.443 A  
HETATM    6  C   UNL     1     -12.102  12.503  69.665  1.00  0.00    -0.272 A  
HETATM    7  C   UNL     1     -11.602  12.001  68.455  1.00  0.00    -0.311 A  
HETATM    8  S   UNL     1     -11.494  13.190  67.146  1.00  0.00    -0.353 SA 
HETATM    9  C   UNL     1     -10.844  12.235  65.804  1.00  0.00    -0.278 A  
HETATM   10  C   UNL     1     -10.529  10.860  65.890  1.00  0.00    -0.221 A  
HETATM   11  C   UNL     1     -10.016  10.286  64.704  1.00  0.00    -0.377 A  
HETATM   12  N   UNL     1     -10.728  10.119  67.096  1.00  0.00    -0.243 NA 
HETATM   13  C   UNL     1     -11.227  10.648  68.327  1.00  0.00    -0.301 A  
HETATM   14  C   UNL     1      -9.839  11.011  63.514  1.00  0.00    -0.403 A  
HETATM   15  C   UNL     1     -11.378   9.855  69.490  1.00  0.00    -0.172 A  
HETATM   16  C   UNL     1     -10.666  12.958  64.606  1.00  0.00    -0.373 A  
HETATM   17  C   UNL     1     -10.167  12.352  63.463  1.00  0.00    -0.339 A  
BRANCH  12  18
HETATM   18  C   UNL     1     -10.430   8.667  67.087  1.00  0.00    -0.289 C  
BRANCH  18  19
HETATM   19  C   UNL     1      -8.919   8.408  67.190  1.00  0.00    -0.153 C  
BRANCH  19  20
HETATM   20  C   UNL     1      -8.614   7.180  68.060  1.00  0.00    -0.128 C  
BRANCH  20  21
HETATM   21  N   UNL     1      -7.840   6.154  67.340  1.00  0.00    -0.097 NA 
HETATM   22  C   UNL     1      -7.893   4.838  68.005  1.00  0.00    -0.082 C  
HETATM   23  C   UNL     1      -9.268   4.155  67.896  1.00  0.00    -0.151 C  
HETATM   24  N   UNL     1      -9.678   3.904  66.500  1.00  0.00    -0.197 NA 
HETATM   25  C   UNL     1      -9.617   5.196  65.764  1.00  0.00    -0.122 C  
HETATM   26  C   UNL     1      -8.301   6.006  65.942  1.00  0.00    -0.138 C  
BRANCH  24  27
HETATM   27  C   UNL     1      -8.820   2.890  65.837  1.00  0.00    -0.141 C  
BRANCH  27  28
HETATM   28  C   UNL     1      -9.173   2.679  64.355  1.00  0.00    -0.128 C  
HETATM   29  O   UNL     1     -10.365   1.909  64.236  1.00  0.00    -0.346 OA 
HETATM   30  H   UNL     1     -10.583   1.778  63.320  1.00  0.00     0.000 HD 
ENDBRANCH  27  28
ENDBRANCH  24  27
ENDBRANCH  20  21
ENDBRANCH  19  20
ENDBRANCH  18  19
ENDBRANCH  12  18
ENDBRANCH   2   4
TORSDOF 7
ENDMDL
MODEL       66
REMARK 921   NORMALIZED FREE ENERGY PREDICTED BY IDOCK:   -5.33 KCAL/MOL
REMARK 922        TOTAL FREE ENERGY PREDICTED BY IDOCK:   -8.27 KCAL/MOL
REMARK 923 INTER-LIGAND FREE ENERGY PREDICTED BY IDOCK:   -7.55 KCAL/MOL
REMARK 924 INTRA-LIGAND FREE ENERGY PREDICTED BY IDOCK:   -0.72 KCAL/MOL
REMARK 927      BINDING AFFINITY PREDICTED BY RF-SCORE:    0.00 PKD
ROOT
HETATM    1  C   UNL     1     -11.306   7.663  72.861  1.00  0.00    -0.394 C  
HETATM    2  C   UNL     1     -11.796   8.033  71.487  1.00  0.00    -0.292 C  
HETATM    3  O   UNL     1     -12.710   8.840  71.330  1.00  0.00    -0.313 OA 
ENDROOT
BRANCH   2   4
HETATM    4  C   UNL     1     -11.146   7.402  70.303  1.00  0.00    -0.278 A  
HETATM    5  C   UNL     1     -11.032   6.024  70.173  1.00  0.00    -0.429 A  
HETATM    6  C   UNL     1     -10.422   5.499  69.041  1.00  0.00    -0.296 A  
HETATM    7  C   UNL     1      -9.914   6.327  68.029  1.00  0.00    -0.137 A  
HETATM    8  S   UNL     1      -9.177   5.467  66.667  1.00  0.00    -0.140 SA 
HETATM    9  C   UNL     1      -8.654   6.787  65.609  1.00  0.00    -0.117 A  
HETATM   10  C   UNL     1      -8.842   8.158  65.901  1.00  0.00    -0.158 A  
HETATM   11  C   UNL     1      -8.355   9.053  64.921  1.00  0.00    -0.178 A  
HETATM   12  N   UNL     1      -9.474   8.587  67.109  1.00  0.00    -0.153 NA 
HETATM   13  C   UNL     1     -10.000   7.731  68.126  1.00  0.00    -0.178 A  
HETATM   14  C   UNL     1      -7.716   8.629  63.743  1.00  0.00    -0.136 A  
HETATM   15  C   UNL     1     -10.634   8.230  69.288  1.00  0.00    -0.191 A  
HETATM   16  C   UNL     1      -8.010   6.368  64.426  1.00  0.00    -0.108 A  
HETATM   17  C   UNL     1      -7.540   7.282  63.496  1.00  0.00    -0.117 A  
BRANCH  12  18
HETATM   18  C   UNL     1      -9.579  10.043  67.369  1.00  0.00    -0.154 C  
BRANCH  18  19
HETATM   19  C   UNL     1     -10.750  10.665  66.592  1.00  0.00    -0.246 C  
BRANCH  19  20
HETATM   20  C   UNL     1     -10.438  12.103  66.156  1.00  0.00    -0.248 C  
BRANCH  20  21
HETATM   21  N   UNL     1     -11.511  13.049  66.511  1.00  0.00    -0.323 NA 
HETATM   22  C   UNL     1     -11.959  12.895  67.908  1.00  0.00    -0.282 C  
HETATM   23  C   UNL     1     -10.923  13.382  68.937  1.00  0.00    -0.248 C  
HETATM   24  N   UNL     1     -10.593  14.813  68.789  1.00  0.00    -0.244 NA 
HETATM   25  C   UNL     1     -10.159  15.041  67.384  1.00  0.00    -0.228 C  
HETATM   26  C   UNL     1     -11.095  14.451  66.291  1.00  0.00    -0.331 C  
BRANCH  24  27
HETATM   27  C   UNL     1     -11.741  15.692  69.125  1.00  0.00    -0.390 C  
BRANCH  27  28
HETATM   28  C   UNL     1     -12.297  15.441  70.536  1.00  0.00    -0.408 C  
HETATM   29  O   UNL     1     -13.713  15.592  70.543  1.00  0.00    -0.837 OA 
HETATM   30  H   UNL     1     -14.057  15.437  71.416  1.00  0.00     0.000 HD 
ENDBRANCH  27  28
ENDBRANCH  24  27
ENDBRANCH  20  21
ENDBRANCH  19  20
ENDBRANCH  18  19
ENDBRANCH  12  18
ENDBRANCH   2   4
TORSDOF 7
ENDMDL
MODEL       67
REMARK 921   NORMALIZED FREE ENERGY PREDICTED BY IDOCK:   -5.32 KCAL/MOL
REMARK 922        TOTAL FREE ENERGY PREDICTED BY IDOCK:   -8.26 KCAL/MOL
REMARK 923 INTER-LIGAND FREE ENERGY PREDICTED BY IDOCK:   -7.48 KCAL/MOL
REMARK 924 INTRA-LIGAND FREE ENERGY PREDICTED BY IDOCK:   -0.78 KCAL/MOL
REMARK 927      BINDING AFFINITY PREDICTED BY RF-SCORE:    0.00 PKD
ROOT
HETATM    1  C   UNL     1     -12.278  12.488  70.403  1.00  0.00    -0.368 C  
HETATM    2  C   UNL     1     -12.090  13.600  69.407  1.00  0.00    -0.314 C  
HETATM    3  O   UNL     1     -12.209  14.779  69.735  1.00  0.00    -0.311 OA 
ENDROOT
BRANCH   2   4
HETATM    4  C   UNL     1     -11.747  13.248  68.000  1.00  0.00    -0.394 A  
HETATM    5  C   UNL     1     -12.178  14.013  66.924  1.00  0.00    -0.415 A  
HETATM    6  C   UNL     1     -11.818  13.635  65.637  1.00  0.00    -0.387 A  
HETATM    7  C   UNL     1     -11.035  12.496  65.397  1.00  0.00    -0.294 A  
HETATM    8  S   UNL     1     -10.682  12.185  63.690  1.00  0.00    -0.482 SA 
HETATM    9  C   UNL     1      -9.704  10.709  63.756  1.00  0.00    -0.327 A  
HETATM   10  C   UNL     1      -9.359  10.041  64.954  1.00  0.00    -0.266 A  
HETATM   11  C   UNL     1      -8.567   8.882  64.788  1.00  0.00    -0.184 A  
HETATM   12  N   UNL     1      -9.798  10.515  66.229  1.00  0.00    -0.208 NA 
HETATM   13  C   UNL     1     -10.585  11.686  66.459  1.00  0.00    -0.253 A  
HETATM   14  C   UNL     1      -8.153   8.407  63.532  1.00  0.00    -0.143 A  
HETATM   15  C   UNL     1     -10.964  12.105  67.757  1.00  0.00    -0.278 A  
HETATM   16  C   UNL     1      -9.287  10.228  62.498  1.00  0.00    -0.322 A  
HETATM   17  C   UNL     1      -8.516   9.081  62.382  1.00  0.00    -0.213 A  
BRANCH  12  18
HETATM   18  C   UNL     1      -9.445   9.724  67.432  1.00  0.00    -0.152 C  
BRANCH  18  19
HETATM   19  C   UNL     1     -10.342   8.483  67.566  1.00  0.00    -0.334 C  
BRANCH  19  20
HETATM   20  C   UNL     1     -10.605   8.132  69.038  1.00  0.00    -0.151 C  
BRANCH  20  21
HETATM   21  N   UNL     1      -9.588   8.692  69.944  1.00  0.00    -0.170 NA 
HETATM   22  C   UNL     1     -10.184   9.394  71.096  1.00  0.00    -0.291 C  
HETATM   23  C   UNL     1     -10.848   8.447  72.111  1.00  0.00    -0.337 C  
HETATM   24  N   UNL     1      -9.903   7.474  72.694  1.00  0.00    -0.175 NA 
HETATM   25  C   UNL     1      -9.243   6.748  71.575  1.00  0.00    -0.149 C  
HETATM   26  C   UNL     1      -8.669   7.645  70.442  1.00  0.00    -0.143 C  
BRANCH  24  27
HETATM   27  C   UNL     1      -8.887   8.126  73.558  1.00  0.00    -0.241 C  
BRANCH  27  28
HETATM   28  C   UNL     1      -7.847   7.139  74.113  1.00  0.00    -0.114 C  
HETATM   29  O   UNL     1      -6.549   7.462  73.625  1.00  0.00    -0.067 OA 
HETATM   30  H   UNL     1      -5.906   6.852  73.968  1.00  0.00     0.000 HD 
ENDBRANCH  27  28
ENDBRANCH  24  27
ENDBRANCH  20  21
ENDBRANCH  19  20
ENDBRANCH  18  19
ENDBRANCH  12  18
ENDBRANCH   2   4
TORSDOF 7
ENDMDL
MODEL       68
REMARK 921   NORMALIZED FREE ENERGY PREDICTED BY IDOCK:   -5.32 KCAL/MOL
REMARK 922        TOTAL FREE ENERGY PREDICTED BY IDOCK:   -8.25 KCAL/MOL
REMARK 923 INTER-LIGAND FREE ENERGY PREDICTED BY IDOCK:   -8.28 KCAL/MOL
REMARK 924 INTRA-LIGAND FREE ENERGY PREDICTED BY IDOCK:    0.03 KCAL/MOL
REMARK 927      BINDING AFFINITY PREDICTED BY RF-SCORE:    0.00 PKD
ROOT
HETATM    1  C   UNL     1      -8.235  11.070  68.871  1.00  0.00    -0.127 C  
HETATM    2  C   UNL     1      -7.444  11.948  67.940  1.00  0.00    -0.114 C  
HETATM    3  O   UNL     1      -6.788  11.472  67.016  1.00  0.00    -0.125 OA 
ENDROOT
BRANCH   2   4
HETATM    4  C   UNL     1      -7.472  13.423  68.154  1.00  0.00    -0.133 A  
HETATM    5  C   UNL     1      -6.636  14.049  69.069  1.00  0.00    -0.106 A  
HETATM    6  C   UNL     1      -6.706  15.429  69.216  1.00  0.00    -0.150 A  
HETATM    7  C   UNL     1      -7.603  16.203  68.466  1.00  0.00    -0.170 A  
HETATM    8  S   UNL     1      -7.537  17.942  68.795  1.00  0.00    -0.232 SA 
HETATM    9  C   UNL     1      -8.771  18.594  67.704  1.00  0.00    -0.272 A  
HETATM   10  C   UNL     1      -9.551  17.803  66.829  1.00  0.00    -0.300 A  
HETATM   11  C   UNL     1     -10.478  18.519  66.038  1.00  0.00    -0.433 A  
HETATM   12  N   UNL     1      -9.404  16.382  66.771  1.00  0.00    -0.233 NA 
HETATM   13  C   UNL     1      -8.475  15.607  67.533  1.00  0.00    -0.167 A  
HETATM   14  C   UNL     1     -10.635  19.913  66.112  1.00  0.00    -0.526 A  
HETATM   15  C   UNL     1      -8.372  14.201  67.404  1.00  0.00    -0.210 A  
HETATM   16  C   UNL     1      -8.933  19.992  67.775  1.00  0.00    -0.396 A  
HETATM   17  C   UNL     1      -9.862  20.653  66.985  1.00  0.00    -0.449 A  
BRANCH  12  18
HETATM   18  C   UNL     1     -10.302  15.619  65.872  1.00  0.00    -0.350 C  
BRANCH  18  19
HETATM   19  C   UNL     1     -11.293  14.760  66.672  1.00  0.00    -0.347 C  
BRANCH  19  20
HETATM   20  C   UNL     1     -12.403  14.194  65.774  1.00  0.00    -0.461 C  
BRANCH  20  21
HETATM   21  N   UNL     1     -12.352  12.726  65.668  1.00  0.00    -0.594 NA 
HETATM   22  C   UNL     1     -12.524  12.255  64.280  1.00  0.00    -0.413 C  
HETATM   23  C   UNL     1     -11.313  12.557  63.380  1.00  0.00    -0.422 C  
HETATM   24  N   UNL     1     -10.068  11.922  63.857  1.00  0.00    -0.350 NA 
HETATM   25  C   UNL     1      -9.853  12.336  65.269  1.00  0.00    -0.180 C  
HETATM   26  C   UNL     1     -11.085  12.185  66.206  1.00  0.00    -0.310 C  
BRANCH  24  27
HETATM   27  C   UNL     1     -10.118  10.442  63.753  1.00  0.00    -0.064 C  
BRANCH  27  28
HETATM   28  C   UNL     1      -8.884   9.754  64.362  1.00  0.00    -0.227 C  
HETATM   29  O   UNL     1      -9.271   8.579  65.067  1.00  0.00    -0.425 OA 
HETATM   30  H   UNL     1      -8.509   8.154  65.443  1.00  0.00     0.000 HD 
ENDBRANCH  27  28
ENDBRANCH  24  27
ENDBRANCH  20  21
ENDBRANCH  19  20
ENDBRANCH  18  19
ENDBRANCH  12  18
ENDBRANCH   2   4
TORSDOF 7
ENDMDL
MODEL       69
REMARK 921   NORMALIZED FREE ENERGY PREDICTED BY IDOCK:   -5.31 KCAL/MOL
REMARK 922        TOTAL FREE ENERGY PREDICTED BY IDOCK:   -8.23 KCAL/MOL
REMARK 923 INTER-LIGAND FREE ENERGY PREDICTED BY IDOCK:   -7.41 KCAL/MOL
REMARK 924 INTRA-LIGAND FREE ENERGY PREDICTED BY IDOCK:   -0.83 KCAL/MOL
REMARK 927      BINDING AFFINITY PREDICTED BY RF-SCORE:    0.00 PKD
ROOT
HETATM    1  C   UNL     1     -10.752   5.890  66.678  1.00  0.00    -0.323 C  
HETATM    2  C   UNL     1      -9.869   6.742  67.549  1.00  0.00    -0.132 C  
HETATM    3  O   UNL     1      -8.869   6.277  68.094  1.00  0.00    -0.115 OA 
ENDROOT
BRANCH   2   4
HETATM    4  C   UNL     1     -10.225   8.176  67.741  1.00  0.00    -0.288 A  
HETATM    5  C   UNL     1      -9.920   9.144  66.792  1.00  0.00    -0.322 A  
HETATM    6  C   UNL     1     -10.286  10.462  67.029  1.00  0.00    -0.295 A  
HETATM    7  C   UNL     1     -10.953  10.841  68.203  1.00  0.00    -0.257 A  
HETATM    8  S   UNL     1     -11.337  12.567  68.315  1.00  0.00    -0.312 SA 
HETATM    9  C   UNL     1     -12.150  12.685  69.884  1.00  0.00    -0.252 A  
HETATM   10  C   UNL     1     -12.375  11.585  70.744  1.00  0.00    -0.375 A  
HETATM   11  C   UNL     1     -13.047  11.893  71.949  1.00  0.00    -0.474 A  
HETATM   12  N   UNL     1     -11.941  10.266  70.404  1.00  0.00    -0.293 NA 
HETATM   13  C   UNL     1     -11.274   9.893  69.196  1.00  0.00    -0.107 A  
HETATM   14  C   UNL     1     -13.455  13.193  72.291  1.00  0.00    -0.665 A  
HETATM   15  C   UNL     1     -10.892   8.559  68.919  1.00  0.00    -0.009 A  
HETATM   16  C   UNL     1     -12.561  13.988  70.232  1.00  0.00    -0.354 A  
HETATM   17  C   UNL     1     -13.209  14.246  71.430  1.00  0.00    -0.419 A  
BRANCH  12  18
HETATM   18  C   UNL     1     -12.162   9.178  71.386  1.00  0.00    -0.335 C  
BRANCH  18  19
HETATM   19  C   UNL     1     -10.896   8.911  72.216  1.00  0.00    -0.235 C  
BRANCH  19  20
HETATM   20  C   UNL     1     -10.994   7.585  72.984  1.00  0.00    -0.390 C  
BRANCH  20  21
HETATM   21  N   UNL     1     -11.274   6.439  72.101  1.00  0.00    -0.264 NA 
HETATM   22  C   UNL     1     -10.102   6.048  71.296  1.00  0.00    -0.192 C  
HETATM   23  C   UNL     1      -8.986   5.387  72.124  1.00  0.00    -0.133 C  
HETATM   24  N   UNL     1      -9.425   4.150  72.799  1.00  0.00    -0.123 NA 
HETATM   25  C   UNL     1     -10.630   4.473  73.611  1.00  0.00    -0.247 C  
HETATM   26  C   UNL     1     -11.744   5.265  72.868  1.00  0.00    -0.153 C  
BRANCH  24  27
HETATM   27  C   UNL     1      -9.726   3.061  71.836  1.00  0.00    -0.164 C  
BRANCH  27  28
HETATM   28  C   UNL     1      -8.648   2.902  70.752  1.00  0.00    -0.063 C  
HETATM   29  O   UNL     1      -9.252   2.741  69.473  1.00  0.00    -0.115 OA 
HETATM   30  H   UNL     1      -8.586   2.642  68.803  1.00  0.00     0.000 HD 
ENDBRANCH  27  28
ENDBRANCH  24  27
ENDBRANCH  20  21
ENDBRANCH  19  20
ENDBRANCH  18  19
ENDBRANCH  12  18
ENDBRANCH   2   4
TORSDOF 7
ENDMDL
MODEL       70
REMARK 921   NORMALIZED FREE ENERGY PREDICTED BY IDOCK:   -5.29 KCAL/MOL
REMARK 922        TOTAL FREE ENERGY PREDICTED BY IDOCK:   -8.21 KCAL/MOL
REMARK 923 INTER-LIGAND FREE ENERGY PREDICTED BY IDOCK:   -7.50 KCAL/MOL
REMARK 924 INTRA-LIGAND FREE ENERGY PREDICTED BY IDOCK:   -0.71 KCAL/MOL
REMARK 927      BINDING AFFINITY PREDICTED BY RF-SCORE:    0.00 PKD
ROOT
HETATM    1  C   UNL     1      -6.492   9.885  64.152  1.00  0.00    -0.126 C  
HETATM    2  C   UNL     1      -7.985   9.872  64.333  1.00  0.00    -0.146 C  
HETATM    3  O   UNL     1      -8.724  10.526  63.597  1.00  0.00    -0.177 OA 
ENDROOT
BRANCH   2   4
HETATM    4  C   UNL     1      -8.565   9.044  65.427  1.00  0.00    -0.200 A  
HETATM    5  C   UNL     1      -8.517   7.656  65.404  1.00  0.00    -0.110 A  
HETATM    6  C   UNL     1      -9.070   6.942  66.459  1.00  0.00    -0.179 A  
HETATM    7  C   UNL     1      -9.679   7.588  67.545  1.00  0.00    -0.150 A  
HETATM    8  S   UNL     1     -10.319   6.503  68.790  1.00  0.00    -0.214 SA 
HETATM    9  C   UNL     1     -11.001   7.629  69.976  1.00  0.00    -0.228 A  
HETATM   10  C   UNL     1     -10.972   9.036  69.840  1.00  0.00    -0.193 A  
HETATM   11  C   UNL     1     -11.567   9.754  70.902  1.00  0.00    -0.441 A  
HETATM   12  N   UNL     1     -10.386   9.666  68.698  1.00  0.00    -0.196 NA 
HETATM   13  C   UNL     1      -9.757   8.995  67.605  1.00  0.00    -0.156 A  
HETATM   14  C   UNL     1     -12.161   9.132  72.013  1.00  0.00    -0.431 A  
HETATM   15  C   UNL     1      -9.178   9.690  66.517  1.00  0.00    -0.197 A  
HETATM   16  C   UNL     1     -11.599   7.009  71.093  1.00  0.00    -0.351 A  
HETATM   17  C   UNL     1     -12.179   7.754  72.108  1.00  0.00    -0.325 A  
BRANCH  12  18
HETATM   18  C   UNL     1     -10.450  11.144  68.601  1.00  0.00    -0.197 C  
BRANCH  18  19
HETATM   19  C   UNL     1     -11.768  11.604  67.960  1.00  0.00    -0.351 C  
BRANCH  19  20
HETATM   20  C   UNL     1     -11.748  13.106  67.641  1.00  0.00    -0.369 C  
BRANCH  20  21
HETATM   21  N   UNL     1     -10.631  13.809  68.297  1.00  0.00    -0.248 NA 
HETATM   22  C   UNL     1      -9.865  14.649  67.358  1.00  0.00    -0.222 C  
HETATM   23  C   UNL     1     -10.633  15.898  66.891  1.00  0.00    -0.309 C  
HETATM   24  N   UNL     1     -11.005  16.795  68.003  1.00  0.00    -0.338 NA 
HETATM   25  C   UNL     1     -11.760  15.996  69.005  1.00  0.00    -0.318 C  
HETATM   26  C   UNL     1     -11.103  14.649  69.420  1.00  0.00    -0.268 C  
BRANCH  24  27
HETATM   27  C   UNL     1      -9.819  17.429  68.634  1.00  0.00    -0.322 C  
BRANCH  27  28
HETATM   28  C   UNL     1      -9.420  18.756  67.967  1.00  0.00    -0.312 C  
HETATM   29  O   UNL     1     -10.537  19.638  67.914  1.00  0.00    -0.427 OA 
HETATM   30  H   UNL     1     -10.290  20.458  67.502  1.00  0.00     0.000 HD 
ENDBRANCH  27  28
ENDBRANCH  24  27
ENDBRANCH  20  21
ENDBRANCH  19  20
ENDBRANCH  18  19
ENDBRANCH  12  18
ENDBRANCH   2   4
TORSDOF 7
ENDMDL
MODEL       71
REMARK 921   NORMALIZED FREE ENERGY PREDICTED BY IDOCK:   -5.29 KCAL/MOL
REMARK 922        TOTAL FREE ENERGY PREDICTED BY IDOCK:   -8.21 KCAL/MOL
REMARK 923 INTER-LIGAND FREE ENERGY PREDICTED BY IDOCK:   -7.22 KCAL/MOL
REMARK 924 INTRA-LIGAND FREE ENERGY PREDICTED BY IDOCK:   -0.99 KCAL/MOL
REMARK 927      BINDING AFFINITY PREDICTED BY RF-SCORE:    0.00 PKD
ROOT
HETATM    1  C   UNL     1      -7.432  15.068  68.961  1.00  0.00    -0.156 C  
HETATM    2  C   UNL     1      -6.657  13.957  68.308  1.00  0.00    -0.110 C  
HETATM    3  O   UNL     1      -5.825  14.187  67.432  1.00  0.00    -0.350 OA 
ENDROOT
BRANCH   2   4
HETATM    4  C   UNL     1      -6.912  12.555  68.746  1.00  0.00    -0.094 A  
HETATM    5  C   UNL     1      -6.209  11.972  69.792  1.00  0.00    -0.136 A  
HETATM    6  C   UNL     1      -6.499  10.663  70.156  1.00  0.00    -0.152 A  
HETATM    7  C   UNL     1      -7.481   9.916  69.490  1.00  0.00    -0.112 A  
HETATM    8  S   UNL     1      -7.705   8.270  70.105  1.00  0.00    -0.086 SA 
HETATM    9  C   UNL     1      -8.983   7.632  69.058  1.00  0.00    -0.137 A  
HETATM   10  C   UNL     1      -9.595   8.368  68.016  1.00  0.00    -0.149 A  
HETATM   11  C   UNL     1     -10.598   7.676  67.301  1.00  0.00    -0.388 A  
HETATM   12  N   UNL     1      -9.205   9.711  67.720  1.00  0.00    -0.125 NA 
HETATM   13  C   UNL     1      -8.211  10.466  68.417  1.00  0.00    -0.114 A  
HETATM   14  C   UNL     1     -10.966   6.349  67.582  1.00  0.00    -0.441 A  
HETATM   15  C   UNL     1      -7.895  11.803  68.078  1.00  0.00    -0.134 A  
HETATM   16  C   UNL     1      -9.355   6.300  69.334  1.00  0.00    -0.145 A  
HETATM   17  C   UNL     1     -10.340   5.657  68.601  1.00  0.00    -0.277 A  
BRANCH  12  18
HETATM   18  C   UNL     1      -9.852  10.393  66.574  1.00  0.00    -0.206 C  
BRANCH  18  19
HETATM   19  C   UNL     1     -11.150  11.096  67.003  1.00  0.00    -0.339 C  
BRANCH  19  20
HETATM   20  C   UNL     1     -11.621  12.106  65.947  1.00  0.00    -0.364 C  
BRANCH  20  21
HETATM   21  N   UNL     1     -11.920  13.429  66.522  1.00  0.00    -0.393 NA 
HETATM   22  C   UNL     1     -10.721  14.090  67.070  1.00  0.00    -0.284 C  
HETATM   23  C   UNL     1      -9.739  14.568  65.985  1.00  0.00    -0.303 C  
HETATM   24  N   UNL     1     -10.337  15.549  65.059  1.00  0.00    -0.410 NA 
HETATM   25  C   UNL     1     -11.575  14.951  64.491  1.00  0.00    -0.352 C  
HETATM   26  C   UNL     1     -12.551  14.324  65.527  1.00  0.00    -0.413 C  
BRANCH  24  27
HETATM   27  C   UNL     1     -10.645  16.838  65.729  1.00  0.00    -0.250 C  
BRANCH  27  28
HETATM   28  C   UNL     1      -9.474  17.375  66.569  1.00  0.00    -0.273 C  
HETATM   29  O   UNL     1      -8.394  17.758  65.723  1.00  0.00    -0.529 OA 
HETATM   30  H   UNL     1      -7.670  18.089  66.242  1.00  0.00     0.000 HD 
ENDBRANCH  27  28
ENDBRANCH  24  27
ENDBRANCH  20  21
ENDBRANCH  19  20
ENDBRANCH  18  19
ENDBRANCH  12  18
ENDBRANCH   2   4
TORSDOF 7
ENDMDL
MODEL       72
REMARK 921   NORMALIZED FREE ENERGY PREDICTED BY IDOCK:   -5.29 KCAL/MOL
REMARK 922        TOTAL FREE ENERGY PREDICTED BY IDOCK:   -8.21 KCAL/MOL
REMARK 923 INTER-LIGAND FREE ENERGY PREDICTED BY IDOCK:   -7.52 KCAL/MOL
REMARK 924 INTRA-LIGAND FREE ENERGY PREDICTED BY IDOCK:   -0.69 KCAL/MOL
REMARK 927      BINDING AFFINITY PREDICTED BY RF-SCORE:    0.00 PKD
ROOT
HETATM    1  C   UNL     1      -5.904  11.721  70.696  1.00  0.00    -0.074 C  
HETATM    2  C   UNL     1      -6.481  10.450  70.134  1.00  0.00    -0.137 C  
HETATM    3  O   UNL     1      -6.446   9.397  70.769  1.00  0.00    -0.068 OA 
ENDROOT
BRANCH   2   4
HETATM    4  C   UNL     1      -7.107  10.486  68.783  1.00  0.00    -0.073 A  
HETATM    5  C   UNL     1      -6.647   9.697  67.737  1.00  0.00    -0.065 A  
HETATM    6  C   UNL     1      -7.279   9.773  66.502  1.00  0.00    -0.094 A  
HETATM    7  C   UNL     1      -8.369  10.629  66.286  1.00  0.00    -0.155 A  
HETATM    8  S   UNL     1      -9.039  10.578  64.648  1.00  0.00    -0.233 SA 
HETATM    9  C   UNL     1     -10.361  11.754  64.729  1.00  0.00    -0.288 A  
HETATM   10  C   UNL     1     -10.696  12.490  65.889  1.00  0.00    -0.264 A  
HETATM   11  C   UNL     1     -11.789  13.374  65.745  1.00  0.00    -0.412 A  
HETATM   12  N   UNL     1      -9.964  12.341  67.108  1.00  0.00    -0.204 NA 
HETATM   13  C   UNL     1      -8.863  11.454  67.318  1.00  0.00    -0.153 A  
HETATM   14  C   UNL     1     -12.495  13.533  64.541  1.00  0.00    -0.344 A  
HETATM   15  C   UNL     1      -8.199  11.346  68.563  1.00  0.00    -0.153 A  
HETATM   16  C   UNL     1     -11.072  11.918  63.522  1.00  0.00    -0.506 A  
HETATM   17  C   UNL     1     -12.134  12.804  63.424  1.00  0.00    -0.619 A  
BRANCH  12  18
HETATM   18  C   UNL     1     -10.339  13.193  68.262  1.00  0.00    -0.252 C  
BRANCH  18  19
HETATM   19  C   UNL     1      -9.430  14.427  68.362  1.00  0.00    -0.207 C  
BRANCH  19  20
HETATM   20  C   UNL     1     -10.247  15.721  68.498  1.00  0.00    -0.216 C  
BRANCH  20  21
HETATM   21  N   UNL     1      -9.957  16.688  67.425  1.00  0.00    -0.259 NA 
HETATM   22  C   UNL     1     -10.656  17.973  67.622  1.00  0.00    -0.399 C  
HETATM   23  C   UNL     1     -10.091  18.802  68.789  1.00  0.00    -0.354 C  
HETATM   24  N   UNL     1      -8.669  19.154  68.610  1.00  0.00    -0.359 NA 
HETATM   25  C   UNL     1      -7.909  17.896  68.377  1.00  0.00    -0.286 C  
HETATM   26  C   UNL     1      -8.506  16.944  67.302  1.00  0.00    -0.196 C  
BRANCH  24  27
HETATM   27  C   UNL     1      -8.462  20.100  67.484  1.00  0.00    -0.335 C  
BRANCH  27  28
HETATM   28  C   UNL     1      -6.988  20.488  67.287  1.00  0.00    -0.310 C  
HETATM   29  O   UNL     1      -6.819  21.181  66.054  1.00  0.00    -0.502 OA 
HETATM   30  H   UNL     1      -5.907  21.420  65.933  1.00  0.00     0.000 HD 
ENDBRANCH  27  28
ENDBRANCH  24  27
ENDBRANCH  20  21
ENDBRANCH  19  20
ENDBRANCH  18  19
ENDBRANCH  12  18
ENDBRANCH   2   4
TORSDOF 7
ENDMDL
MODEL       73
REMARK 921   NORMALIZED FREE ENERGY PREDICTED BY IDOCK:   -5.22 KCAL/MOL
REMARK 922        TOTAL FREE ENERGY PREDICTED BY IDOCK:   -8.12 KCAL/MOL
REMARK 923 INTER-LIGAND FREE ENERGY PREDICTED BY IDOCK:   -7.59 KCAL/MOL
REMARK 924 INTRA-LIGAND FREE ENERGY PREDICTED BY IDOCK:   -0.53 KCAL/MOL
REMARK 927      BINDING AFFINITY PREDICTED BY RF-SCORE:    0.00 PKD
ROOT
HETATM    1  C   UNL     1     -12.620  14.082  65.571  1.00  0.00    -0.543 C  
HETATM    2  C   UNL     1     -12.136  13.449  64.294  1.00  0.00    -0.424 C  
HETATM    3  O   UNL     1     -12.528  13.843  63.197  1.00  0.00    -0.766 OA 
ENDROOT
BRANCH   2   4
HETATM    4  C   UNL     1     -11.159  12.327  64.379  1.00  0.00    -0.381 A  
HETATM    5  C   UNL     1     -10.652  11.706  63.245  1.00  0.00    -0.420 A  
HETATM    6  C   UNL     1      -9.738  10.670  63.392  1.00  0.00    -0.387 A  
HETATM    7  C   UNL     1      -9.319  10.234  64.657  1.00  0.00    -0.266 A  
HETATM    8  S   UNL     1      -8.148   8.906  64.634  1.00  0.00    -0.159 SA 
HETATM    9  C   UNL     1      -7.851   8.616  66.356  1.00  0.00    -0.099 A  
HETATM   10  C   UNL     1      -8.467   9.345  67.399  1.00  0.00    -0.125 A  
HETATM   11  C   UNL     1      -8.089   8.960  68.705  1.00  0.00    -0.114 A  
HETATM   12  N   UNL     1      -9.408  10.387  67.131  1.00  0.00    -0.156 NA 
HETATM   13  C   UNL     1      -9.815  10.830  65.834  1.00  0.00    -0.239 A  
HETATM   14  C   UNL     1      -7.179   7.922  68.967  1.00  0.00    -0.075 A  
HETATM   15  C   UNL     1     -10.739  11.887  65.647  1.00  0.00    -0.325 A  
HETATM   16  C   UNL     1      -6.939   7.574  66.624  1.00  0.00    -0.074 A  
HETATM   17  C   UNL     1      -6.603   7.224  67.923  1.00  0.00    -0.050 A  
BRANCH  12  18
HETATM   18  C   UNL     1     -10.055  11.063  68.280  1.00  0.00    -0.177 C  
BRANCH  18  19
HETATM   19  C   UNL     1     -11.486  10.545  68.498  1.00  0.00    -0.284 C  
BRANCH  19  20
HETATM   20  C   UNL     1     -12.361  11.586  69.211  1.00  0.00    -0.056 C  
BRANCH  20  21
HETATM   21  N   UNL     1     -11.729  12.118  70.430  1.00  0.00    -0.183 NA 
HETATM   22  C   UNL     1     -11.635  13.590  70.421  1.00  0.00    -0.002 C  
HETATM   23  C   UNL     1     -12.996  14.289  70.587  1.00  0.00    -0.257 C  
HETATM   24  N   UNL     1     -13.666  13.949  71.858  1.00  0.00    -0.416 NA 
HETATM   25  C   UNL     1     -13.766  12.467  71.942  1.00  0.00     0.024 C  
HETATM   26  C   UNL     1     -12.452  11.690  71.648  1.00  0.00    -0.049 C  
BRANCH  24  27
HETATM   27  C   UNL     1     -12.941  14.487  73.037  1.00  0.00    -0.496 C  
BRANCH  27  28
HETATM   28  C   UNL     1     -13.067  16.013  73.175  1.00  0.00    -0.533 C  
HETATM   29  O   UNL     1     -11.979  16.660  72.524  1.00  0.00    -0.554 OA 
HETATM   30  H   UNL     1     -12.056  17.604  72.610  1.00  0.00     0.000 HD 
ENDBRANCH  27  28
ENDBRANCH  24  27
ENDBRANCH  20  21
ENDBRANCH  19  20
ENDBRANCH  18  19
ENDBRANCH  12  18
ENDBRANCH   2   4
TORSDOF 7
ENDMDL
MODEL       74
REMARK 921   NORMALIZED FREE ENERGY PREDICTED BY IDOCK:   -5.22 KCAL/MOL
REMARK 922        TOTAL FREE ENERGY PREDICTED BY IDOCK:   -8.11 KCAL/MOL
REMARK 923 INTER-LIGAND FREE ENERGY PREDICTED BY IDOCK:   -7.18 KCAL/MOL
REMARK 924 INTRA-LIGAND FREE ENERGY PREDICTED BY IDOCK:   -0.93 KCAL/MOL
REMARK 927      BINDING AFFINITY PREDICTED BY RF-SCORE:    0.00 PKD
ROOT
HETATM    1  C   UNL     1      -7.696   5.676  67.950  1.00  0.00    -0.093 C  
HETATM    2  C   UNL     1      -7.571   7.168  68.101  1.00  0.00    -0.115 C  
HETATM    3  O   UNL     1      -6.942   7.665  69.034  1.00  0.00    -0.065 OA 
ENDROOT
BRANCH   2   4
HETATM    4  C   UNL     1      -8.224   8.046  67.089  1.00  0.00    -0.117 A  
HETATM    5  C   UNL     1      -8.099   7.815  65.725  1.00  0.00    -0.125 A  
HETATM    6  C   UNL     1      -8.739   8.667  64.834  1.00  0.00    -0.126 A  
HETATM    7  C   UNL     1      -9.504   9.755  65.278  1.00  0.00    -0.279 A  
HETATM    8  S   UNL     1     -10.242  10.719  63.988  1.00  0.00    -0.260 SA 
HETATM    9  C   UNL     1     -11.108  11.976  64.885  1.00  0.00    -0.316 A  
HETATM   10  C   UNL     1     -11.124  12.073  66.296  1.00  0.00    -0.317 A  
HETATM   11  C   UNL     1     -11.880  13.149  66.815  1.00  0.00    -0.444 A  
HETATM   12  N   UNL     1     -10.414  11.144  67.119  1.00  0.00    -0.219 NA 
HETATM   13  C   UNL     1      -9.649  10.031  66.653  1.00  0.00    -0.186 A  
HETATM   14  C   UNL     1     -12.560  14.072  66.004  1.00  0.00    -0.452 A  
HETATM   15  C   UNL     1      -8.990   9.139  67.532  1.00  0.00    -0.131 A  
HETATM   16  C   UNL     1     -11.791  12.907  64.076  1.00  0.00    -0.512 A  
HETATM   17  C   UNL     1     -12.514  13.952  64.628  1.00  0.00    -0.361 A  
BRANCH  12  18
HETATM   18  C   UNL     1     -10.432  11.350  68.587  1.00  0.00    -0.201 C  
BRANCH  18  19
HETATM   19  C   UNL     1     -11.615  10.618  69.239  1.00  0.00    -0.346 C  
BRANCH  19  20
HETATM   20  C   UNL     1     -11.183   9.857  70.500  1.00  0.00    -0.330 C  
BRANCH  20  21
HETATM   21  N   UNL     1     -11.870   8.562  70.644  1.00  0.00    -0.170 NA 
HETATM   22  C   UNL     1     -11.043   7.431  70.181  1.00  0.00    -0.246 C  
HETATM   23  C   UNL     1      -9.854   7.125  71.109  1.00  0.00    -0.179 C  
HETATM   24  N   UNL     1     -10.271   6.768  72.480  1.00  0.00    -0.176 NA 
HETATM   25  C   UNL     1     -11.138   7.862  72.996  1.00  0.00    -0.314 C  
HETATM   26  C   UNL     1     -12.280   8.316  72.044  1.00  0.00    -0.348 C  
BRANCH  24  27
HETATM   27  C   UNL     1     -10.991   5.470  72.527  1.00  0.00    -0.263 C  
BRANCH  27  28
HETATM   28  C   UNL     1     -10.796   4.722  73.857  1.00  0.00    -0.294 C  
HETATM   29  O   UNL     1     -10.825   3.315  73.641  1.00  0.00    -0.196 OA 
HETATM   30  H   UNL     1     -10.705   2.853  74.463  1.00  0.00     0.000 HD 
ENDBRANCH  27  28
ENDBRANCH  24  27
ENDBRANCH  20  21
ENDBRANCH  19  20
ENDBRANCH  18  19
ENDBRANCH  12  18
ENDBRANCH   2   4
TORSDOF 7
ENDMDL
MODEL       75
REMARK 921   NORMALIZED FREE ENERGY PREDICTED BY IDOCK:   -5.22 KCAL/MOL
REMARK 922        TOTAL FREE ENERGY PREDICTED BY IDOCK:   -8.11 KCAL/MOL
REMARK 923 INTER-LIGAND FREE ENERGY PREDICTED BY IDOCK:   -7.39 KCAL/MOL
REMARK 924 INTRA-LIGAND FREE ENERGY PREDICTED BY IDOCK:   -0.72 KCAL/MOL
REMARK 927      BINDING AFFINITY PREDICTED BY RF-SCORE:    0.00 PKD
ROOT
HETATM    1  C   UNL     1     -11.023   5.919  73.319  1.00  0.00    -0.267 C  
HETATM    2  C   UNL     1     -11.196   7.145  72.464  1.00  0.00    -0.290 C  
HETATM    3  O   UNL     1     -11.689   8.176  72.919  1.00  0.00    -0.373 OA 
ENDROOT
BRANCH   2   4
HETATM    4  C   UNL     1     -10.754   7.093  71.042  1.00  0.00    -0.252 A  
HETATM    5  C   UNL     1     -10.460   5.894  70.406  1.00  0.00    -0.324 A  
HETATM    6  C   UNL     1     -10.060   5.914  69.076  1.00  0.00    -0.237 A  
HETATM    7  C   UNL     1      -9.941   7.116  68.362  1.00  0.00    -0.158 A  
HETATM    8  S   UNL     1      -9.421   6.931  66.679  1.00  0.00    -0.152 SA 
HETATM    9  C   UNL     1      -9.376   8.603  66.098  1.00  0.00    -0.226 A  
HETATM   10  C   UNL     1      -9.702   9.726  66.892  1.00  0.00    -0.192 A  
HETATM   11  C   UNL     1      -9.606  10.974  66.235  1.00  0.00    -0.231 A  
HETATM   12  N   UNL     1     -10.091   9.589  68.261  1.00  0.00    -0.176 NA 
HETATM   13  C   UNL     1     -10.220   8.356  68.972  1.00  0.00    -0.207 A  
HETATM   14  C   UNL     1      -9.205  11.108  64.895  1.00  0.00    -0.175 A  
HETATM   15  C   UNL     1     -10.632   8.297  70.325  1.00  0.00    -0.230 A  
HETATM   16  C   UNL     1      -8.973   8.743  64.754  1.00  0.00    -0.016 A  
HETATM   17  C   UNL     1      -8.885   9.989  64.152  1.00  0.00    -0.244 A  
BRANCH  12  18
HETATM   18  C   UNL     1     -10.358  10.819  69.043  1.00  0.00    -0.215 C  
BRANCH  18  19
HETATM   19  C   UNL     1     -11.811  11.287  68.868  1.00  0.00    -0.413 C  
BRANCH  19  20
HETATM   20  C   UNL     1     -11.882  12.704  68.283  1.00  0.00    -0.306 C  
BRANCH  20  21
HETATM   21  N   UNL     1     -10.758  13.553  68.714  1.00  0.00    -0.250 NA 
HETATM   22  C   UNL     1     -10.178  14.329  67.603  1.00  0.00    -0.237 C  
HETATM   23  C   UNL     1     -11.095  15.461  67.105  1.00  0.00    -0.291 C  
HETATM   24  N   UNL     1     -11.406  16.453  68.154  1.00  0.00    -0.281 NA 
HETATM   25  C   UNL     1     -11.971  15.725  69.322  1.00  0.00    -0.289 C  
HETATM   26  C   UNL     1     -11.162  14.483  69.792  1.00  0.00    -0.234 C  
BRANCH  24  27
HETATM   27  C   UNL     1     -10.210  17.234  68.560  1.00  0.00    -0.358 C  
BRANCH  27  28
HETATM   28  C   UNL     1      -9.987  18.485  67.694  1.00  0.00    -0.338 C  
HETATM   29  O   UNL     1     -10.185  19.664  68.468  1.00  0.00    -0.427 OA 
HETATM   30  H   UNL     1     -10.048  20.437  67.933  1.00  0.00     0.000 HD 
ENDBRANCH  27  28
ENDBRANCH  24  27
ENDBRANCH  20  21
ENDBRANCH  19  20
ENDBRANCH  18  19
ENDBRANCH  12  18
ENDBRANCH   2   4
TORSDOF 7
ENDMDL
MODEL       76
REMARK 921   NORMALIZED FREE ENERGY PREDICTED BY IDOCK:   -5.21 KCAL/MOL
REMARK 922        TOTAL FREE ENERGY PREDICTED BY IDOCK:   -8.09 KCAL/MOL
REMARK 923 INTER-LIGAND FREE ENERGY PREDICTED BY IDOCK:   -7.45 KCAL/MOL
REMARK 924 INTRA-LIGAND FREE ENERGY PREDICTED BY IDOCK:   -0.65 KCAL/MOL
REMARK 927      BINDING AFFINITY PREDICTED BY RF-SCORE:    0.00 PKD
ROOT
HETATM    1  C   UNL     1     -10.936  16.133  66.969  1.00  0.00    -0.123 C  
HETATM    2  C   UNL     1     -11.070  16.441  68.436  1.00  0.00    -0.351 C  
HETATM    3  O   UNL     1     -10.733  17.532  68.893  1.00  0.00    -0.258 OA 
ENDROOT
BRANCH   2   4
HETATM    4  C   UNL     1     -11.628  15.394  69.338  1.00  0.00    -0.354 A  
HETATM    5  C   UNL     1     -12.507  15.702  70.367  1.00  0.00    -0.409 A  
HETATM    6  C   UNL     1     -12.997  14.678  71.168  1.00  0.00    -0.415 A  
HETATM    7  C   UNL     1     -12.620  13.343  70.965  1.00  0.00    -0.343 A  
HETATM    8  S   UNL     1     -13.355  12.186  72.088  1.00  0.00    -0.104 SA 
HETATM    9  C   UNL     1     -12.674  10.640  71.557  1.00  0.00    -0.444 A  
HETATM   10  C   UNL     1     -11.770  10.501  70.479  1.00  0.00    -0.350 A  
HETATM   11  C   UNL     1     -11.348   9.178  70.215  1.00  0.00    -0.217 A  
HETATM   12  N   UNL     1     -11.320  11.632  69.728  1.00  0.00    -0.237 NA 
HETATM   13  C   UNL     1     -11.723  12.987  69.938  1.00  0.00    -0.256 A  
HETATM   14  C   UNL     1     -11.776   8.071  70.967  1.00  0.00    -0.295 A  
HETATM   15  C   UNL     1     -11.250  14.054  69.137  1.00  0.00    -0.308 A  
HETATM   16  C   UNL     1     -13.099   9.525  72.310  1.00  0.00    -0.492 A  
HETATM   17  C   UNL     1     -12.653   8.245  72.020  1.00  0.00    -0.387 A  
BRANCH  12  18
HETATM   18  C   UNL     1     -10.326  11.410  68.652  1.00  0.00    -0.203 C  
BRANCH  18  19
HETATM   19  C   UNL     1     -11.005  11.298  67.278  1.00  0.00    -0.342 C  
BRANCH  19  20
HETATM   20  C   UNL     1      -9.987  11.398  66.134  1.00  0.00    -0.227 C  
BRANCH  20  21
HETATM   21  N   UNL     1     -10.080  10.269  65.192  1.00  0.00    -0.314 NA 
HETATM   22  C   UNL     1      -9.211  10.445  64.014  1.00  0.00    -0.263 C  
HETATM   23  C   UNL     1      -7.712  10.306  64.334  1.00  0.00    -0.104 C  
HETATM   24  N   UNL     1      -7.361   8.982  64.884  1.00  0.00    -0.098 NA 
HETATM   25  C   UNL     1      -8.228   8.730  66.067  1.00  0.00    -0.118 C  
HETATM   26  C   UNL     1      -9.747   8.985  65.848  1.00  0.00    -0.236 C  
BRANCH  24  27
HETATM   27  C   UNL     1      -7.523   7.898  63.883  1.00  0.00    -0.110 C  
BRANCH  27  28
HETATM   28  C   UNL     1      -6.239   7.622  63.082  1.00  0.00    -0.059 C  
HETATM   29  O   UNL     1      -5.269   6.985  63.906  1.00  0.00    -0.027 OA 
HETATM   30  H   UNL     1      -4.476   6.815  63.411  1.00  0.00     0.000 HD 
ENDBRANCH  27  28
ENDBRANCH  24  27
ENDBRANCH  20  21
ENDBRANCH  19  20
ENDBRANCH  18  19
ENDBRANCH  12  18
ENDBRANCH   2   4
TORSDOF 7
ENDMDL
MODEL       77
REMARK 921   NORMALIZED FREE ENERGY PREDICTED BY IDOCK:   -5.21 KCAL/MOL
REMARK 922        TOTAL FREE ENERGY PREDICTED BY IDOCK:   -8.09 KCAL/MOL
REMARK 923 INTER-LIGAND FREE ENERGY PREDICTED BY IDOCK:   -7.64 KCAL/MOL
REMARK 924 INTRA-LIGAND FREE ENERGY PREDICTED BY IDOCK:   -0.45 KCAL/MOL
REMARK 927      BINDING AFFINITY PREDICTED BY RF-SCORE:    0.00 PKD
ROOT
HETATM    1  C   UNL     1      -5.457  17.442  70.509  1.00  0.00    -0.224 C  
HETATM    2  C   UNL     1      -6.415  17.030  69.425  1.00  0.00    -0.236 C  
HETATM    3  O   UNL     1      -7.054  17.864  68.785  1.00  0.00    -0.251 OA 
ENDROOT
BRANCH   2   4
HETATM    4  C   UNL     1      -6.578  15.578  69.129  1.00  0.00    -0.136 A  
HETATM    5  C   UNL     1      -5.793  14.610  69.743  1.00  0.00    -0.111 A  
HETATM    6  C   UNL     1      -6.000  13.273  69.429  1.00  0.00    -0.100 A  
HETATM    7  C   UNL     1      -6.979  12.878  68.506  1.00  0.00    -0.098 A  
HETATM    8  S   UNL     1      -7.091  11.129  68.245  1.00  0.00    -0.077 SA 
HETATM    9  C   UNL     1      -8.390  10.994  67.049  1.00  0.00    -0.137 A  
HETATM   10  C   UNL     1      -9.090  12.099  66.513  1.00  0.00    -0.199 A  
HETATM   11  C   UNL     1     -10.096  11.774  65.574  1.00  0.00    -0.285 A  
HETATM   12  N   UNL     1      -8.783  13.441  66.900  1.00  0.00    -0.185 NA 
HETATM   13  C   UNL     1      -7.791  13.828  67.853  1.00  0.00    -0.159 A  
HETATM   14  C   UNL     1     -10.383  10.457  65.181  1.00  0.00    -0.260 A  
HETATM   15  C   UNL     1      -7.557  15.180  68.202  1.00  0.00    -0.116 A  
HETATM   16  C   UNL     1      -8.681   9.673  66.650  1.00  0.00    -0.146 A  
HETATM   17  C   UNL     1      -9.672   9.401  65.719  1.00  0.00    -0.354 A  
BRANCH  12  18
HETATM   18  C   UNL     1      -9.521  14.547  66.246  1.00  0.00    -0.283 C  
BRANCH  18  19
HETATM   19  C   UNL     1     -11.023  14.478  66.563  1.00  0.00    -0.321 C  
BRANCH  19  20
HETATM   20  C   UNL     1     -11.369  15.261  67.838  1.00  0.00    -0.334 C  
BRANCH  20  21
HETATM   21  N   UNL     1     -10.985  14.542  69.065  1.00  0.00    -0.249 NA 
HETATM   22  C   UNL     1     -10.289  15.411  70.033  1.00  0.00    -0.272 C  
HETATM   23  C   UNL     1     -11.212  16.448  70.696  1.00  0.00    -0.189 C  
HETATM   24  N   UNL     1     -12.321  15.832  71.451  1.00  0.00    -0.423 NA 
HETATM   25  C   UNL     1     -13.050  14.916  70.533  1.00  0.00    -0.254 C  
HETATM   26  C   UNL     1     -12.159  13.930  69.725  1.00  0.00    -0.345 C  
BRANCH  24  27
HETATM   27  C   UNL     1     -11.844  15.093  72.648  1.00  0.00    -0.381 C  
BRANCH  27  28
HETATM   28  C   UNL     1     -12.655  15.411  73.915  1.00  0.00    -0.611 C  
HETATM   29  O   UNL     1     -13.766  16.242  73.595  1.00  0.00    -0.911 OA 
HETATM   30  H   UNL     1     -14.267  16.439  74.378  1.00  0.00     0.000 HD 
ENDBRANCH  27  28
ENDBRANCH  24  27
ENDBRANCH  20  21
ENDBRANCH  19  20
ENDBRANCH  18  19
ENDBRANCH  12  18
ENDBRANCH   2   4
TORSDOF 7
ENDMDL
MODEL       78
REMARK 921   NORMALIZED FREE ENERGY PREDICTED BY IDOCK:   -5.15 KCAL/MOL
REMARK 922        TOTAL FREE ENERGY PREDICTED BY IDOCK:   -8.01 KCAL/MOL
REMARK 923 INTER-LIGAND FREE ENERGY PREDICTED BY IDOCK:   -7.52 KCAL/MOL
REMARK 924 INTRA-LIGAND FREE ENERGY PREDICTED BY IDOCK:   -0.49 KCAL/MOL
REMARK 927      BINDING AFFINITY PREDICTED BY RF-SCORE:    0.00 PKD
ROOT
HETATM    1  C   UNL     1     -12.053  12.536  63.591  1.00  0.00    -0.642 C  
HETATM    2  C   UNL     1     -12.176  13.337  64.859  1.00  0.00    -0.420 C  
HETATM    3  O   UNL     1     -13.259  13.790  65.227  1.00  0.00    -0.755 OA 
ENDROOT
BRANCH   2   4
HETATM    4  C   UNL     1     -10.952  13.574  65.676  1.00  0.00    -0.296 A  
HETATM    5  C   UNL     1     -10.307  14.804  65.695  1.00  0.00    -0.369 A  
HETATM    6  C   UNL     1      -9.174  14.962  66.484  1.00  0.00    -0.314 A  
HETATM    7  C   UNL     1      -8.664  13.908  67.257  1.00  0.00    -0.217 A  
HETATM    8  S   UNL     1      -7.216  14.310  68.195  1.00  0.00    -0.146 SA 
HETATM    9  C   UNL     1      -6.855  12.788  69.026  1.00  0.00    -0.081 A  
HETATM   10  C   UNL     1      -7.621  11.608  68.885  1.00  0.00    -0.087 A  
HETATM   11  C   UNL     1      -7.165  10.503  69.640  1.00  0.00    -0.148 A  
HETATM   12  N   UNL     1      -8.766  11.555  68.031  1.00  0.00    -0.145 NA 
HETATM   13  C   UNL     1      -9.282  12.641  67.259  1.00  0.00    -0.195 A  
HETATM   14  C   UNL     1      -6.028  10.551  70.463  1.00  0.00    -0.117 A  
HETATM   15  C   UNL     1     -10.437  12.518  66.450  1.00  0.00    -0.269 A  
HETATM   16  C   UNL     1      -5.713  12.831  69.852  1.00  0.00    -0.125 A  
HETATM   17  C   UNL     1      -5.297  11.719  70.569  1.00  0.00    -0.137 A  
BRANCH  12  18
HETATM   18  C   UNL     1      -9.480  10.263  67.892  1.00  0.00    -0.141 C  
BRANCH  18  19
HETATM   19  C   UNL     1     -10.851  10.306  68.585  1.00  0.00    -0.272 C  
BRANCH  19  20
HETATM   20  C   UNL     1     -10.748   9.912  70.066  1.00  0.00    -0.292 C  
BRANCH  20  21
HETATM   21  N   UNL     1     -10.016   8.649  70.266  1.00  0.00    -0.182 NA 
HETATM   22  C   UNL     1      -9.568   8.472  71.660  1.00  0.00    -0.249 C  
HETATM   23  C   UNL     1     -10.719   8.187  72.640  1.00  0.00    -0.351 C  
HETATM   24  N   UNL     1     -11.464   6.956  72.311  1.00  0.00    -0.270 NA 
HETATM   25  C   UNL     1     -11.922   7.059  70.898  1.00  0.00    -0.364 C  
HETATM   26  C   UNL     1     -10.833   7.480  69.871  1.00  0.00    -0.240 C  
BRANCH  24  27
HETATM   27  C   UNL     1     -10.641   5.734  72.500  1.00  0.00    -0.221 C  
BRANCH  27  28
HETATM   28  C   UNL     1     -11.365   4.639  73.300  1.00  0.00    -0.304 C  
HETATM   29  O   UNL     1     -10.773   3.369  73.048  1.00  0.00    -0.172 OA 
HETATM   30  H   UNL     1     -11.221   2.692  73.542  1.00  0.00     0.000 HD 
ENDBRANCH  27  28
ENDBRANCH  24  27
ENDBRANCH  20  21
ENDBRANCH  19  20
ENDBRANCH  18  19
ENDBRANCH  12  18
ENDBRANCH   2   4
TORSDOF 7
ENDMDL
MODEL       79
REMARK 921   NORMALIZED FREE ENERGY PREDICTED BY IDOCK:   -5.14 KCAL/MOL
REMARK 922        TOTAL FREE ENERGY PREDICTED BY IDOCK:   -8.00 KCAL/MOL
REMARK 923 INTER-LIGAND FREE ENERGY PREDICTED BY IDOCK:   -7.33 KCAL/MOL
REMARK 924 INTRA-LIGAND FREE ENERGY PREDICTED BY IDOCK:   -0.66 KCAL/MOL
REMARK 927      BINDING AFFINITY PREDICTED BY RF-SCORE:    0.00 PKD
ROOT
HETATM    1  C   UNL     1     -11.121   6.761  66.977  1.00  0.00    -0.369 C  
HETATM    2  C   UNL     1     -10.031   7.796  66.910  1.00  0.00    -0.261 C  
HETATM    3  O   UNL     1      -8.886   7.498  66.574  1.00  0.00    -0.134 OA 
ENDROOT
BRANCH   2   4
HETATM    4  C   UNL     1     -10.364   9.207  67.256  1.00  0.00    -0.338 A  
HETATM    5  C   UNL     1     -10.086  10.261  66.395  1.00  0.00    -0.296 A  
HETATM    6  C   UNL     1     -10.429  11.552  66.775  1.00  0.00    -0.275 A  
HETATM    7  C   UNL     1     -11.043  11.818  68.007  1.00  0.00    -0.242 A  
HETATM    8  S   UNL     1     -11.403  13.527  68.304  1.00  0.00    -0.316 SA 
HETATM    9  C   UNL     1     -12.150  13.496  69.910  1.00  0.00    -0.341 A  
HETATM   10  C   UNL     1     -12.352  12.318  70.666  1.00  0.00    -0.286 A  
HETATM   11  C   UNL     1     -12.970  12.510  71.923  1.00  0.00    -0.406 A  
HETATM   12  N   UNL     1     -11.946  11.036  70.180  1.00  0.00    -0.328 NA 
HETATM   13  C   UNL     1     -11.333  10.779  68.915  1.00  0.00    -0.284 A  
HETATM   14  C   UNL     1     -13.350  13.773  72.407  1.00  0.00    -0.635 A  
HETATM   15  C   UNL     1     -10.977   9.476  68.493  1.00  0.00    -0.109 A  
HETATM   16  C   UNL     1     -12.532  14.761  70.401  1.00  0.00    -0.405 A  
HETATM   17  C   UNL     1     -13.129  14.904  71.644  1.00  0.00    -0.424 A  
BRANCH  12  18
HETATM   18  C   UNL     1     -12.138   9.858  71.059  1.00  0.00    -0.358 C  
BRANCH  18  19
HETATM   19  C   UNL     1     -10.808   9.400  71.676  1.00  0.00    -0.348 C  
BRANCH  19  20
HETATM   20  C   UNL     1     -10.870   7.933  72.127  1.00  0.00    -0.269 C  
BRANCH  20  21
HETATM   21  N   UNL     1      -9.558   7.415  72.552  1.00  0.00    -0.151 NA 
HETATM   22  C   UNL     1      -9.459   5.950  72.415  1.00  0.00    -0.146 C  
HETATM   23  C   UNL     1      -9.389   5.477  70.952  1.00  0.00    -0.156 C  
HETATM   24  N   UNL     1      -8.221   6.017  70.227  1.00  0.00    -0.117 NA 
HETATM   25  C   UNL     1      -8.247   7.499  70.353  1.00  0.00    -0.123 C  
HETATM   26  C   UNL     1      -8.454   8.045  71.795  1.00  0.00    -0.129 C  
BRANCH  24  27
HETATM   27  C   UNL     1      -6.940   5.475  70.746  1.00  0.00    -0.053 C  
BRANCH  27  28
HETATM   28  C   UNL     1      -6.137   4.707  69.684  1.00  0.00    -0.019 C  
HETATM   29  O   UNL     1      -5.815   3.402  70.154  1.00  0.00    -0.017 OA 
HETATM   30  H   UNL     1      -5.319   2.928  69.498  1.00  0.00     0.000 HD 
ENDBRANCH  27  28
ENDBRANCH  24  27
ENDBRANCH  20  21
ENDBRANCH  19  20
ENDBRANCH  18  19
ENDBRANCH  12  18
ENDBRANCH   2   4
TORSDOF 7
ENDMDL
MODEL       80
REMARK 921   NORMALIZED FREE ENERGY PREDICTED BY IDOCK:   -5.09 KCAL/MOL
REMARK 922        TOTAL FREE ENERGY PREDICTED BY IDOCK:   -7.93 KCAL/MOL
REMARK 923 INTER-LIGAND FREE ENERGY PREDICTED BY IDOCK:   -7.01 KCAL/MOL
REMARK 924 INTRA-LIGAND FREE ENERGY PREDICTED BY IDOCK:   -0.92 KCAL/MOL
REMARK 927      BINDING AFFINITY PREDICTED BY RF-SCORE:    0.00 PKD
ROOT
HETATM    1  C   UNL     1      -6.012  13.504  69.296  1.00  0.00    -0.091 C  
HETATM    2  C   UNL     1      -6.120  12.533  68.152  1.00  0.00    -0.069 C  
HETATM    3  O   UNL     1      -6.002  12.905  66.985  1.00  0.00    -0.292 OA 
ENDROOT
BRANCH   2   4
HETATM    4  C   UNL     1      -6.370  11.096  68.455  1.00  0.00    -0.046 A  
HETATM    5  C   UNL     1      -5.427  10.112  68.188  1.00  0.00    -0.038 A  
HETATM    6  C   UNL     1      -5.719   8.791  68.502  1.00  0.00    -0.038 A  
HETATM    7  C   UNL     1      -6.945   8.426  69.077  1.00  0.00    -0.061 A  
HETATM    8  S   UNL     1      -7.125   6.695  69.406  1.00  0.00    -0.082 SA 
HETATM    9  C   UNL     1      -8.748   6.597  70.108  1.00  0.00    -0.141 A  
HETATM   10  C   UNL     1      -9.594   7.713  70.305  1.00  0.00    -0.172 A  
HETATM   11  C   UNL     1     -10.849   7.419  70.885  1.00  0.00    -0.255 A  
HETATM   12  N   UNL     1      -9.193   9.033  69.931  1.00  0.00    -0.163 NA 
HETATM   13  C   UNL     1      -7.934   9.391  69.357  1.00  0.00    -0.089 A  
HETATM   14  C   UNL     1     -11.249   6.118  71.235  1.00  0.00    -0.348 A  
HETATM   15  C   UNL     1      -7.600  10.727  69.031  1.00  0.00    -0.126 A  
HETATM   16  C   UNL     1      -9.154   5.293  70.459  1.00  0.00    -0.174 A  
HETATM   17  C   UNL     1     -10.399   5.050  71.019  1.00  0.00    -0.254 A  
BRANCH  12  18
HETATM   18  C   UNL     1     -10.161  10.140  70.114  1.00  0.00    -0.179 C  
BRANCH  18  19
HETATM   19  C   UNL     1     -11.131  10.235  68.926  1.00  0.00    -0.278 C  
BRANCH  19  20
HETATM   20  C   UNL     1     -11.665  11.664  68.746  1.00  0.00    -0.330 C  
BRANCH  20  21
HETATM   21  N   UNL     1     -11.976  11.979  67.341  1.00  0.00    -0.585 NA 
HETATM   22  C   UNL     1     -12.258  13.412  67.134  1.00  0.00    -0.256 C  
HETATM   23  C   UNL     1     -11.010  14.304  67.261  1.00  0.00    -0.297 C  
HETATM   24  N   UNL     1      -9.960  13.967  66.280  1.00  0.00    -0.298 NA 
HETATM   25  C   UNL     1      -9.649  12.518  66.419  1.00  0.00    -0.247 C  
HETATM   26  C   UNL     1     -10.880  11.569  66.436  1.00  0.00    -0.285 C  
BRANCH  24  27
HETATM   27  C   UNL     1     -10.372  14.277  64.888  1.00  0.00    -0.401 C  
BRANCH  27  28
HETATM   28  C   UNL     1     -10.967  15.687  64.736  1.00  0.00    -0.400 C  
HETATM   29  O   UNL     1     -12.051  15.669  63.814  1.00  0.00    -1.013 OA 
HETATM   30  H   UNL     1     -12.419  16.541  63.720  1.00  0.00     0.000 HD 
ENDBRANCH  27  28
ENDBRANCH  24  27
ENDBRANCH  20  21
ENDBRANCH  19  20
ENDBRANCH  18  19
ENDBRANCH  12  18
ENDBRANCH   2   4
TORSDOF 7
ENDMDL
MODEL       81
REMARK 921   NORMALIZED FREE ENERGY PREDICTED BY IDOCK:   -5.05 KCAL/MOL
REMARK 922        TOTAL FREE ENERGY PREDICTED BY IDOCK:   -7.87 KCAL/MOL
REMARK 923 INTER-LIGAND FREE ENERGY PREDICTED BY IDOCK:   -7.37 KCAL/MOL
REMARK 924 INTRA-LIGAND FREE ENERGY PREDICTED BY IDOCK:   -0.50 KCAL/MOL
REMARK 927      BINDING AFFINITY PREDICTED BY RF-SCORE:    0.00 PKD
ROOT
HETATM    1  C   UNL     1     -10.653  17.392  68.423  1.00  0.00    -0.355 C  
HETATM    2  C   UNL     1     -11.275  16.022  68.449  1.00  0.00    -0.364 C  
HETATM    3  O   UNL     1     -12.043  15.685  69.349  1.00  0.00    -0.356 OA 
ENDROOT
BRANCH   2   4
HETATM    4  C   UNL     1     -10.946  15.067  67.354  1.00  0.00    -0.315 A  
HETATM    5  C   UNL     1     -11.031  15.426  66.015  1.00  0.00    -0.286 A  
HETATM    6  C   UNL     1     -10.703  14.490  65.041  1.00  0.00    -0.444 A  
HETATM    7  C   UNL     1     -10.293  13.192  65.378  1.00  0.00    -0.301 A  
HETATM    8  S   UNL     1      -9.916  12.151  63.995  1.00  0.00    -0.233 SA 
HETATM    9  C   UNL     1      -9.449  10.628  64.769  1.00  0.00    -0.256 A  
HETATM   10  C   UNL     1      -9.425  10.425  66.168  1.00  0.00    -0.181 A  
HETATM   11  C   UNL     1      -9.018   9.136  66.581  1.00  0.00    -0.164 A  
HETATM   12  N   UNL     1      -9.798  11.460  67.082  1.00  0.00    -0.189 NA 
HETATM   13  C   UNL     1     -10.202  12.783  66.724  1.00  0.00    -0.239 A  
HETATM   14  C   UNL     1      -8.671   8.115  65.681  1.00  0.00    -0.176 A  
HETATM   15  C   UNL     1     -10.536  13.763  67.689  1.00  0.00    -0.244 A  
HETATM   16  C   UNL     1      -9.101   9.599  63.870  1.00  0.00    -0.229 A  
HETATM   17  C   UNL     1      -8.715   8.345  64.320  1.00  0.00     0.150 A  
BRANCH  12  18
HETATM   18  C   UNL     1      -9.804  11.149  68.531  1.00  0.00    -0.198 C  
BRANCH  18  19
HETATM   19  C   UNL     1     -11.180  10.637  68.985  1.00  0.00    -0.324 C  
BRANCH  19  20
HETATM   20  C   UNL     1     -11.151  10.158  70.444  1.00  0.00    -0.324 C  
BRANCH  20  21
HETATM   21  N   UNL     1     -10.161   9.092  70.670  1.00  0.00    -0.211 NA 
HETATM   22  C   UNL     1     -10.058   8.710  72.091  1.00  0.00    -0.318 C  
HETATM   23  C   UNL     1     -11.289   7.943  72.607  1.00  0.00    -0.408 C  
HETATM   24  N   UNL     1     -11.528   6.681  71.880  1.00  0.00    -0.276 NA 
HETATM   25  C   UNL     1     -11.612   6.996  70.428  1.00  0.00    -0.295 C  
HETATM   26  C   UNL     1     -10.467   7.886  69.869  1.00  0.00    -0.229 C  
BRANCH  24  27
HETATM   27  C   UNL     1     -10.462   5.678  72.131  1.00  0.00    -0.216 C  
BRANCH  27  28
HETATM   28  C   UNL     1     -10.158   4.804  70.903  1.00  0.00    -0.205 C  
HETATM   29  O   UNL     1      -9.795   3.488  71.310  1.00  0.00    -0.182 OA 
HETATM   30  H   UNL     1      -9.607   2.948  70.551  1.00  0.00     0.000 HD 
ENDBRANCH  27  28
ENDBRANCH  24  27
ENDBRANCH  20  21
ENDBRANCH  19  20
ENDBRANCH  18  19
ENDBRANCH  12  18
ENDBRANCH   2   4
TORSDOF 7
ENDMDL
MODEL       82
REMARK 921   NORMALIZED FREE ENERGY PREDICTED BY IDOCK:   -5.02 KCAL/MOL
REMARK 922        TOTAL FREE ENERGY PREDICTED BY IDOCK:   -7.84 KCAL/MOL
REMARK 923 INTER-LIGAND FREE ENERGY PREDICTED BY IDOCK:   -7.11 KCAL/MOL
REMARK 924 INTRA-LIGAND FREE ENERGY PREDICTED BY IDOCK:   -0.73 KCAL/MOL
REMARK 927      BINDING AFFINITY PREDICTED BY RF-SCORE:    0.00 PKD
ROOT
HETATM    1  C   UNL     1      -9.903  15.243  66.112  1.00  0.00    -0.333 C  
HETATM    2  C   UNL     1     -10.541  15.978  67.260  1.00  0.00    -0.313 C  
HETATM    3  O   UNL     1     -10.546  17.207  67.308  1.00  0.00    -0.325 OA 
ENDROOT
BRANCH   2   4
HETATM    4  C   UNL     1     -11.179  15.186  68.349  1.00  0.00    -0.307 A  
HETATM    5  C   UNL     1     -11.932  15.785  69.350  1.00  0.00    -0.321 A  
HETATM    6  C   UNL     1     -12.507  14.989  70.333  1.00  0.00    -0.407 A  
HETATM    7  C   UNL     1     -12.342  13.596  70.340  1.00  0.00    -0.345 A  
HETATM    8  S   UNL     1     -13.155  12.759  71.673  1.00  0.00    -0.245 SA 
HETATM    9  C   UNL     1     -12.741  11.063  71.379  1.00  0.00    -0.429 A  
HETATM   10  C   UNL     1     -11.943  10.618  70.300  1.00  0.00    -0.339 A  
HETATM   11  C   UNL     1     -11.735   9.221  70.244  1.00  0.00    -0.088 A  
HETATM   12  N   UNL     1     -11.389  11.532  69.351  1.00  0.00    -0.271 NA 
HETATM   13  C   UNL     1     -11.578  12.948  69.348  1.00  0.00    -0.302 A  
HETATM   14  C   UNL     1     -12.264   8.326  71.189  1.00  0.00    -0.253 A  
HETATM   15  C   UNL     1     -11.013  13.789  68.360  1.00  0.00    -0.275 A  
HETATM   16  C   UNL     1     -13.269  10.161  72.326  1.00  0.00    -0.359 A  
HETATM   17  C   UNL     1     -13.032   8.797  72.236  1.00  0.00    -0.462 A  
BRANCH  12  18
HETATM   18  C   UNL     1     -10.513  10.992  68.284  1.00  0.00    -0.186 C  
BRANCH  18  19
HETATM   19  C   UNL     1      -9.100  10.705  68.814  1.00  0.00    -0.170 C  
BRANCH  19  20
HETATM   20  C   UNL     1      -8.461   9.505  68.100  1.00  0.00    -0.119 C  
BRANCH  20  21
HETATM   21  N   UNL     1      -9.459   8.624  67.470  1.00  0.00    -0.146 NA 
HETATM   22  C   UNL     1      -9.149   8.342  66.056  1.00  0.00    -0.176 C  
HETATM   23  C   UNL     1      -7.932   7.418  65.871  1.00  0.00    -0.118 C  
HETATM   24  N   UNL     1      -8.110   6.096  66.503  1.00  0.00    -0.108 NA 
HETATM   25  C   UNL     1      -8.456   6.314  67.934  1.00  0.00    -0.117 C  
HETATM   26  C   UNL     1      -9.591   7.343  68.199  1.00  0.00    -0.142 C  
BRANCH  24  27
HETATM   27  C   UNL     1      -9.162   5.291  65.833  1.00  0.00    -0.159 C  
BRANCH  27  28
HETATM   28  C   UNL     1      -9.478   3.980  66.572  1.00  0.00    -0.194 C  
HETATM   29  O   UNL     1      -8.413   3.050  66.406  1.00  0.00    -0.098 OA 
HETATM   30  H   UNL     1      -8.609   2.239  66.862  1.00  0.00     0.000 HD 
ENDBRANCH  27  28
ENDBRANCH  24  27
ENDBRANCH  20  21
ENDBRANCH  19  20
ENDBRANCH  18  19
ENDBRANCH  12  18
ENDBRANCH   2   4
TORSDOF 7
ENDMDL
MODEL       83
REMARK 921   NORMALIZED FREE ENERGY PREDICTED BY IDOCK:   -5.02 KCAL/MOL
REMARK 922        TOTAL FREE ENERGY PREDICTED BY IDOCK:   -7.84 KCAL/MOL
REMARK 923 INTER-LIGAND FREE ENERGY PREDICTED BY IDOCK:   -7.17 KCAL/MOL
REMARK 924 INTRA-LIGAND FREE ENERGY PREDICTED BY IDOCK:   -0.66 KCAL/MOL
REMARK 927      BINDING AFFINITY PREDICTED BY RF-SCORE:    0.00 PKD
ROOT
HETATM    1  C   UNL     1     -11.522  11.657  63.659  1.00  0.00    -0.458 C  
HETATM    2  C   UNL     1     -12.202  12.701  64.502  1.00  0.00    -0.443 C  
HETATM    3  O   UNL     1     -13.386  12.594  64.820  1.00  0.00    -0.787 OA 
ENDROOT
BRANCH   2   4
HETATM    4  C   UNL     1     -11.410  13.879  64.957  1.00  0.00    -0.336 A  
HETATM    5  C   UNL     1     -11.549  15.129  64.370  1.00  0.00    -0.275 A  
HETATM    6  C   UNL     1     -10.787  16.189  64.845  1.00  0.00    -0.353 A  
HETATM    7  C   UNL     1      -9.877  16.024  65.900  1.00  0.00    -0.348 A  
HETATM    8  S   UNL     1      -9.003  17.494  66.362  1.00  0.00    -0.205 SA 
HETATM    9  C   UNL     1      -7.967  16.933  67.685  1.00  0.00    -0.174 A  
HETATM   10  C   UNL     1      -7.942  15.602  68.160  1.00  0.00    -0.128 A  
HETATM   11  C   UNL     1      -7.046  15.362  69.228  1.00  0.00    -0.179 A  
HETATM   12  N   UNL     1      -8.765  14.584  67.584  1.00  0.00    -0.173 NA 
HETATM   13  C   UNL     1      -9.698  14.770  66.518  1.00  0.00    -0.278 A  
HETATM   14  C   UNL     1      -6.224  16.359  69.779  1.00  0.00    -0.204 A  
HETATM   15  C   UNL     1     -10.496  13.715  66.013  1.00  0.00    -0.300 A  
HETATM   16  C   UNL     1      -7.139  17.930  68.241  1.00  0.00    -0.232 A  
HETATM   17  C   UNL     1      -6.269  17.648  69.283  1.00  0.00    -0.239 A  
BRANCH  12  18
HETATM   18  C   UNL     1      -8.635  13.200  68.100  1.00  0.00    -0.181 C  
BRANCH  18  19
HETATM   19  C   UNL     1      -7.506  12.442  67.384  1.00  0.00    -0.157 C  
BRANCH  19  20
HETATM   20  C   UNL     1      -7.873  10.969  67.153  1.00  0.00    -0.135 C  
BRANCH  20  21
HETATM   21  N   UNL     1      -8.055  10.227  68.413  1.00  0.00    -0.106 NA 
HETATM   22  C   UNL     1      -9.469   9.903  68.678  1.00  0.00    -0.153 C  
HETATM   23  C   UNL     1     -10.035   8.826  67.735  1.00  0.00    -0.194 C  
HETATM   24  N   UNL     1      -9.316   7.541  67.830  1.00  0.00    -0.138 NA 
HETATM   25  C   UNL     1      -7.870   7.805  67.600  1.00  0.00    -0.123 C  
HETATM   26  C   UNL     1      -7.264   8.976  68.425  1.00  0.00    -0.077 C  
BRANCH  24  27
HETATM   27  C   UNL     1      -9.519   6.881  69.145  1.00  0.00    -0.142 C  
BRANCH  27  28
HETATM   28  C   UNL     1     -10.967   6.413  69.366  1.00  0.00    -0.359 C  
HETATM   29  O   UNL     1     -11.451   6.881  70.621  1.00  0.00    -0.297 OA 
HETATM   30  H   UNL     1     -12.346   6.592  70.758  1.00  0.00     0.000 HD 
ENDBRANCH  27  28
ENDBRANCH  24  27
ENDBRANCH  20  21
ENDBRANCH  19  20
ENDBRANCH  18  19
ENDBRANCH  12  18
ENDBRANCH   2   4
TORSDOF 7
ENDMDL
MODEL       84
REMARK 921   NORMALIZED FREE ENERGY PREDICTED BY IDOCK:   -5.02 KCAL/MOL
REMARK 922        TOTAL FREE ENERGY PREDICTED BY IDOCK:   -7.83 KCAL/MOL
REMARK 923 INTER-LIGAND FREE ENERGY PREDICTED BY IDOCK:   -7.22 KCAL/MOL
REMARK 924 INTRA-LIGAND FREE ENERGY PREDICTED BY IDOCK:   -0.62 KCAL/MOL
REMARK 927      BINDING AFFINITY PREDICTED BY RF-SCORE:    0.00 PKD
ROOT
HETATM    1  C   UNL     1     -10.264  12.587  64.200  1.00  0.00    -0.376 C  
HETATM    2  C   UNL     1     -10.096  11.338  65.023  1.00  0.00    -0.279 C  
HETATM    3  O   UNL     1      -9.588  10.324  64.549  1.00  0.00    -0.270 OA 
ENDROOT
BRANCH   2   4
HETATM    4  C   UNL     1     -10.557  11.350  66.441  1.00  0.00    -0.311 A  
HETATM    5  C   UNL     1     -10.434  10.237  67.263  1.00  0.00    -0.307 A  
HETATM    6  C   UNL     1     -10.876  10.315  68.577  1.00  0.00    -0.281 A  
HETATM    7  C   UNL     1     -11.448  11.488  69.092  1.00  0.00    -0.297 A  
HETATM    8  S   UNL     1     -11.945  11.389  70.789  1.00  0.00    -0.131 SA 
HETATM    9  C   UNL     1     -12.609  13.001  71.097  1.00  0.00    -0.297 A  
HETATM   10  C   UNL     1     -12.668  14.031  70.130  1.00  0.00    -0.150 A  
HETATM   11  C   UNL     1     -13.232  15.247  70.581  1.00  0.00    -0.370 A  
HETATM   12  N   UNL     1     -12.193  13.835  68.796  1.00  0.00    -0.294 NA 
HETATM   13  C   UNL     1     -11.600  12.637  68.289  1.00  0.00    -0.332 A  
HETATM   14  C   UNL     1     -13.716  15.431  71.887  1.00  0.00    -0.603 A  
HETATM   15  C   UNL     1     -11.132  12.524  66.958  1.00  0.00    -0.326 A  
HETATM   16  C   UNL     1     -13.098  13.192  72.406  1.00  0.00    -0.413 A  
HETATM   17  C   UNL     1     -13.651  14.399  72.803  1.00  0.00    -0.531 A  
BRANCH  12  18
HETATM   18  C   UNL     1     -12.345  14.944  67.825  1.00  0.00     0.304 C  
BRANCH  18  19
HETATM   19  C   UNL     1     -11.302  16.046  68.070  1.00  0.00    -0.266 C  
BRANCH  19  20
HETATM   20  C   UNL     1     -10.414  16.267  66.837  1.00  0.00    -0.302 C  
BRANCH  20  21
HETATM   21  N   UNL     1      -9.009  16.532  67.191  1.00  0.00    -0.201 NA 
HETATM   22  C   UNL     1      -8.757  16.397  68.638  1.00  0.00    -0.234 C  
HETATM   23  C   UNL     1      -8.809  14.940  69.132  1.00  0.00    -0.145 C  
HETATM   24  N   UNL     1      -7.808  14.074  68.479  1.00  0.00    -0.137 NA 
HETATM   25  C   UNL     1      -7.992  14.189  67.006  1.00  0.00     0.037 C  
HETATM   26  C   UNL     1      -8.085  15.641  66.456  1.00  0.00    -0.133 C  
BRANCH  24  27
HETATM   27  C   UNL     1      -6.419  14.436  68.857  1.00  0.00    -0.094 C  
BRANCH  27  28
HETATM   28  C   UNL     1      -5.726  13.358  69.706  1.00  0.00    -0.112 C  
HETATM   29  O   UNL     1      -6.677  12.405  70.168  1.00  0.00    -0.364 OA 
HETATM   30  H   UNL     1      -6.249  11.739  70.693  1.00  0.00     0.000 HD 
ENDBRANCH  27  28
ENDBRANCH  24  27
ENDBRANCH  20  21
ENDBRANCH  19  20
ENDBRANCH  18  19
ENDBRANCH  12  18
ENDBRANCH   2   4
TORSDOF 7
ENDMDL
MODEL       85
REMARK 921   NORMALIZED FREE ENERGY PREDICTED BY IDOCK:   -5.02 KCAL/MOL
REMARK 922        TOTAL FREE ENERGY PREDICTED BY IDOCK:   -7.83 KCAL/MOL
REMARK 923 INTER-LIGAND FREE ENERGY PREDICTED BY IDOCK:   -6.94 KCAL/MOL
REMARK 924 INTRA-LIGAND FREE ENERGY PREDICTED BY IDOCK:   -0.89 KCAL/MOL
REMARK 927      BINDING AFFINITY PREDICTED BY RF-SCORE:    0.00 PKD
ROOT
HETATM    1  C   UNL     1      -6.415   7.997  70.060  1.00  0.00    -0.033 C  
HETATM    2  C   UNL     1      -7.019   9.233  70.669  1.00  0.00    -0.101 C  
HETATM    3  O   UNL     1      -7.311   9.279  71.863  1.00  0.00    -0.327 OA 
ENDROOT
BRANCH   2   4
HETATM    4  C   UNL     1      -7.259  10.416  69.795  1.00  0.00    -0.155 A  
HETATM    5  C   UNL     1      -6.264  11.347  69.528  1.00  0.00    -0.104 A  
HETATM    6  C   UNL     1      -6.550  12.424  68.699  1.00  0.00    -0.079 A  
HETATM    7  C   UNL     1      -7.820  12.596  68.129  1.00  0.00    -0.145 A  
HETATM    8  S   UNL     1      -7.984  14.028  67.099  1.00  0.00     0.039 SA 
HETATM    9  C   UNL     1      -9.670  13.935  66.565  1.00  0.00    -0.294 A  
HETATM   10  C   UNL     1     -10.565  12.907  66.945  1.00  0.00    -0.253 A  
HETATM   11  C   UNL     1     -11.867  13.016  66.404  1.00  0.00    -0.465 A  
HETATM   12  N   UNL     1     -10.164  11.849  67.819  1.00  0.00    -0.196 NA 
HETATM   13  C   UNL     1      -8.862  11.680  68.381  1.00  0.00    -0.161 A  
HETATM   14  C   UNL     1     -12.264  14.067  65.561  1.00  0.00    -0.455 A  
HETATM   15  C   UNL     1      -8.533  10.591  69.224  1.00  0.00    -0.138 A  
HETATM   16  C   UNL     1     -10.074  14.988  65.720  1.00  0.00    -0.367 A  
HETATM   17  C   UNL     1     -11.365  15.059  65.219  1.00  0.00    -0.349 A  
BRANCH  12  18
HETATM   18  C   UNL     1     -11.179  10.845  68.216  1.00  0.00    -0.286 C  
BRANCH  18  19
HETATM   19  C   UNL     1     -11.929  11.282  69.484  1.00  0.00    -0.421 C  
BRANCH  19  20
HETATM   20  C   UNL     1     -12.697  10.112  70.117  1.00  0.00     0.044 C  
BRANCH  20  21
HETATM   21  N   UNL     1     -12.244   9.812  71.486  1.00  0.00    -0.381 NA 
HETATM   22  C   UNL     1     -13.033   8.739  72.119  1.00  0.00    -0.406 C  
HETATM   23  C   UNL     1     -12.765   7.348  71.517  1.00  0.00    -0.372 C  
HETATM   24  N   UNL     1     -11.356   6.926  71.647  1.00  0.00    -0.250 NA 
HETATM   25  C   UNL     1     -10.501   7.987  71.050  1.00  0.00    -0.203 C  
HETATM   26  C   UNL     1     -10.813   9.438  71.515  1.00  0.00    -0.328 C  
BRANCH  24  27
HETATM   27  C   UNL     1     -10.971   6.685  73.061  1.00  0.00    -0.247 C  
BRANCH  27  28
HETATM   28  C   UNL     1     -10.515   5.240  73.323  1.00  0.00    -0.224 C  
HETATM   29  O   UNL     1     -11.639   4.368  73.374  1.00  0.00    -0.282 OA 
HETATM   30  H   UNL     1     -11.357   3.475  73.536  1.00  0.00     0.000 HD 
ENDBRANCH  27  28
ENDBRANCH  24  27
ENDBRANCH  20  21
ENDBRANCH  19  20
ENDBRANCH  18  19
ENDBRANCH  12  18
ENDBRANCH   2   4
TORSDOF 7
ENDMDL
MODEL       86
REMARK 921   NORMALIZED FREE ENERGY PREDICTED BY IDOCK:   -5.02 KCAL/MOL
REMARK 922        TOTAL FREE ENERGY PREDICTED BY IDOCK:   -7.83 KCAL/MOL
REMARK 923 INTER-LIGAND FREE ENERGY PREDICTED BY IDOCK:   -7.07 KCAL/MOL
REMARK 924 INTRA-LIGAND FREE ENERGY PREDICTED BY IDOCK:   -0.75 KCAL/MOL
REMARK 927      BINDING AFFINITY PREDICTED BY RF-SCORE:    0.00 PKD
ROOT
HETATM    1  C   UNL     1     -12.278  13.038  70.450  1.00  0.00    -0.386 C  
HETATM    2  C   UNL     1     -12.058  14.106  69.413  1.00  0.00    -0.328 C  
HETATM    3  O   UNL     1     -12.141  15.300  69.698  1.00  0.00    -0.323 OA 
ENDROOT
BRANCH   2   4
HETATM    4  C   UNL     1     -11.730  13.692  68.019  1.00  0.00    -0.387 A  
HETATM    5  C   UNL     1     -12.120  14.443  66.918  1.00  0.00    -0.386 A  
HETATM    6  C   UNL     1     -11.777  14.006  65.645  1.00  0.00    -0.356 A  
HETATM    7  C   UNL     1     -11.049  12.823  65.446  1.00  0.00    -0.284 A  
HETATM    8  S   UNL     1     -10.707  12.440  63.751  1.00  0.00    -0.459 SA 
HETATM    9  C   UNL     1      -9.802  10.922  63.868  1.00  0.00    -0.331 A  
HETATM   10  C   UNL     1      -9.494  10.277  65.088  1.00  0.00    -0.252 A  
HETATM   11  C   UNL     1      -8.758   9.076  64.963  1.00  0.00    -0.217 A  
HETATM   12  N   UNL     1      -9.912  10.812  66.346  1.00  0.00    -0.209 NA 
HETATM   13  C   UNL     1     -10.641  12.027  66.535  1.00  0.00    -0.234 A  
HETATM   14  C   UNL     1      -8.365   8.541  63.724  1.00  0.00    -0.085 A  
HETATM   15  C   UNL     1     -11.003  12.506  67.817  1.00  0.00    -0.270 A  
HETATM   16  C   UNL     1      -9.406  10.380  62.628  1.00  0.00    -0.335 A  
HETATM   17  C   UNL     1      -8.692   9.194  62.552  1.00  0.00    -0.213 A  
BRANCH  12  18
HETATM   18  C   UNL     1      -9.601  10.044  67.575  1.00  0.00    -0.153 C  
BRANCH  18  19
HETATM   19  C   UNL     1     -10.757   9.105  67.952  1.00  0.00    -0.224 C  
BRANCH  19  20
HETATM   20  C   UNL     1     -10.341   8.109  69.045  1.00  0.00    -0.218 C  
BRANCH  20  21
HETATM   21  N   UNL     1     -10.957   6.782  68.866  1.00  0.00    -0.236 NA 
HETATM   22  C   UNL     1     -10.628   6.179  67.561  1.00  0.00    -0.273 C  
HETATM   23  C   UNL     1      -9.161   5.728  67.450  1.00  0.00    -0.109 C  
HETATM   24  N   UNL     1      -8.794   4.710  68.454  1.00  0.00    -0.102 NA 
HETATM   25  C   UNL     1      -9.130   5.249  69.799  1.00  0.00    -0.116 C  
HETATM   26  C   UNL     1     -10.557   5.849  69.942  1.00  0.00    -0.299 C  
BRANCH  24  27
HETATM   27  C   UNL     1      -9.490   3.419  68.225  1.00  0.00    -0.148 C  
BRANCH  27  28
HETATM   28  C   UNL     1      -8.889   2.259  69.035  1.00  0.00    -0.096 C  
HETATM   29  O   UNL     1      -7.480   2.194  68.835  1.00  0.00    -0.043 OA 
HETATM   30  H   UNL     1      -7.109   1.477  69.336  1.00  0.00     0.000 HD 
ENDBRANCH  27  28
ENDBRANCH  24  27
ENDBRANCH  20  21
ENDBRANCH  19  20
ENDBRANCH  18  19
ENDBRANCH  12  18
ENDBRANCH   2   4
TORSDOF 7
ENDMDL
MODEL       87
REMARK 921   NORMALIZED FREE ENERGY PREDICTED BY IDOCK:   -5.01 KCAL/MOL
REMARK 922        TOTAL FREE ENERGY PREDICTED BY IDOCK:   -7.82 KCAL/MOL
REMARK 923 INTER-LIGAND FREE ENERGY PREDICTED BY IDOCK:   -6.80 KCAL/MOL
REMARK 924 INTRA-LIGAND FREE ENERGY PREDICTED BY IDOCK:   -1.02 KCAL/MOL
REMARK 927      BINDING AFFINITY PREDICTED BY RF-SCORE:    0.00 PKD
ROOT
HETATM    1  C   UNL     1      -7.347  10.806  69.263  1.00  0.00    -0.129 C  
HETATM    2  C   UNL     1      -7.437  11.910  68.245  1.00  0.00    -0.104 C  
HETATM    3  O   UNL     1      -7.822  11.692  67.097  1.00  0.00    -0.148 OA 
ENDROOT
BRANCH   2   4
HETATM    4  C   UNL     1      -7.051  13.291  68.653  1.00  0.00    -0.103 A  
HETATM    5  C   UNL     1      -6.371  13.546  69.837  1.00  0.00    -0.071 A  
HETATM    6  C   UNL     1      -6.035  14.855  70.155  1.00  0.00    -0.149 A  
HETATM    7  C   UNL     1      -6.368  15.925  69.313  1.00  0.00    -0.153 A  
HETATM    8  S   UNL     1      -5.848  17.516  69.893  1.00  0.00    -0.225 SA 
HETATM    9  C   UNL     1      -6.423  18.604  68.619  1.00  0.00    -0.234 A  
HETATM   10  C   UNL     1      -7.118  18.174  67.465  1.00  0.00    -0.199 A  
HETATM   11  C   UNL     1      -7.485  19.202  66.567  1.00  0.00    -0.258 A  
HETATM   12  N   UNL     1      -7.425  16.795  67.245  1.00  0.00    -0.159 NA 
HETATM   13  C   UNL     1      -7.066  15.713  68.106  1.00  0.00    -0.118 A  
HETATM   14  C   UNL     1      -7.201  20.559  66.795  1.00  0.00    -0.331 A  
HETATM   15  C   UNL     1      -7.387  14.366  67.810  1.00  0.00    -0.186 A  
HETATM   16  C   UNL     1      -6.141  19.967  68.843  1.00  0.00    -0.321 A  
HETATM   17  C   UNL     1      -6.528  20.944  67.939  1.00  0.00    -0.382 A  
BRANCH  12  18
HETATM   18  C   UNL     1      -8.209  16.433  66.040  1.00  0.00    -0.040 C  
BRANCH  18  19
HETATM   19  C   UNL     1      -9.719  16.531  66.308  1.00  0.00    -0.328 C  
BRANCH  19  20
HETATM   20  C   UNL     1     -10.426  15.192  66.053  1.00  0.00    -0.319 C  
BRANCH  20  21
HETATM   21  N   UNL     1     -11.683  15.062  66.811  1.00  0.00    -0.230 NA 
HETATM   22  C   UNL     1     -11.993  13.661  67.151  1.00  0.00    -0.393 C  
HETATM   23  C   UNL     1     -11.058  13.073  68.223  1.00  0.00    -0.263 C  
HETATM   24  N   UNL     1     -11.115  13.807  69.503  1.00  0.00    -0.161 NA 
HETATM   25  C   UNL     1     -10.838  15.242  69.222  1.00  0.00    -0.257 C  
HETATM   26  C   UNL     1     -11.654  15.864  68.053  1.00  0.00    -0.168 C  
BRANCH  24  27
HETATM   27  C   UNL     1     -12.428  13.656  70.179  1.00  0.00    -0.239 C  
BRANCH  27  28
HETATM   28  C   UNL     1     -12.728  14.793  71.171  1.00  0.00    -0.334 C  
HETATM   29  O   UNL     1     -13.980  15.398  70.865  1.00  0.00    -0.796 OA 
HETATM   30  H   UNL     1     -14.165  16.101  71.477  1.00  0.00     0.000 HD 
ENDBRANCH  27  28
ENDBRANCH  24  27
ENDBRANCH  20  21
ENDBRANCH  19  20
ENDBRANCH  18  19
ENDBRANCH  12  18
ENDBRANCH   2   4
TORSDOF 7
ENDMDL
MODEL       88
REMARK 921   NORMALIZED FREE ENERGY PREDICTED BY IDOCK:   -5.00 KCAL/MOL
REMARK 922        TOTAL FREE ENERGY PREDICTED BY IDOCK:   -7.80 KCAL/MOL
REMARK 923 INTER-LIGAND FREE ENERGY PREDICTED BY IDOCK:   -7.55 KCAL/MOL
REMARK 924 INTRA-LIGAND FREE ENERGY PREDICTED BY IDOCK:   -0.25 KCAL/MOL
REMARK 927      BINDING AFFINITY PREDICTED BY RF-SCORE:    0.00 PKD
ROOT
HETATM    1  C   UNL     1      -8.931  10.363  68.915  1.00  0.00    -0.170 C  
HETATM    2  C   UNL     1      -7.622  10.852  68.357  1.00  0.00    -0.104 C  
HETATM    3  O   UNL     1      -7.018  10.217  67.494  1.00  0.00    -0.083 OA 
ENDROOT
BRANCH   2   4
HETATM    4  C   UNL     1      -7.062  12.135  68.868  1.00  0.00    -0.098 A  
HETATM    5  C   UNL     1      -6.001  12.170  69.763  1.00  0.00    -0.137 A  
HETATM    6  C   UNL     1      -5.521  13.400  70.196  1.00  0.00    -0.115 A  
HETATM    7  C   UNL     1      -6.085  14.606  69.754  1.00  0.00    -0.131 A  
HETATM    8  S   UNL     1      -5.330  16.065  70.417  1.00  0.00    -0.162 SA 
HETATM    9  C   UNL     1      -6.270  17.366  69.669  1.00  0.00    -0.233 A  
HETATM   10  C   UNL     1      -7.343  17.153  68.772  1.00  0.00    -0.241 A  
HETATM   11  C   UNL     1      -7.959  18.327  68.283  1.00  0.00    -0.312 A  
HETATM   12  N   UNL     1      -7.762  15.836  68.405  1.00  0.00    -0.124 NA 
HETATM   13  C   UNL     1      -7.169  14.616  68.853  1.00  0.00    -0.124 A  
HETATM   14  C   UNL     1      -7.557  19.620  68.661  1.00  0.00    -0.366 A  
HETATM   15  C   UNL     1      -7.628  13.346  68.428  1.00  0.00    -0.133 A  
HETATM   16  C   UNL     1      -5.872  18.665  70.045  1.00  0.00    -0.246 A  
HETATM   17  C   UNL     1      -6.511  19.790  69.547  1.00  0.00    -0.383 A  
BRANCH  12  18
HETATM   18  C   UNL     1      -8.933  15.697  67.507  1.00  0.00    -0.192 C  
BRANCH  18  19
HETATM   19  C   UNL     1     -10.179  15.239  68.282  1.00  0.00    -0.226 C  
BRANCH  19  20
HETATM   20  C   UNL     1     -11.445  15.328  67.418  1.00  0.00    -0.241 C  
BRANCH  20  21
HETATM   21  N   UNL     1     -11.929  14.006  66.985  1.00  0.00    -0.425 NA 
HETATM   22  C   UNL     1     -12.656  14.064  65.702  1.00  0.00    -0.512 C  
HETATM   23  C   UNL     1     -11.741  14.340  64.496  1.00  0.00    -0.418 C  
HETATM   24  N   UNL     1     -10.704  13.306  64.310  1.00  0.00    -0.409 NA 
HETATM   25  C   UNL     1      -9.950  13.178  65.587  1.00  0.00    -0.227 C  
HETATM   26  C   UNL     1     -10.821  13.033  66.867  1.00  0.00    -0.264 C  
BRANCH  24  27
HETATM   27  C   UNL     1     -11.281  11.996  63.916  1.00  0.00    -0.417 C  
BRANCH  27  28
HETATM   28  C   UNL     1     -10.214  10.909  63.701  1.00  0.00    -0.332 C  
HETATM   29  O   UNL     1     -10.253  10.437  62.358  1.00  0.00    -0.722 OA 
HETATM   30  H   UNL     1      -9.594   9.765  62.225  1.00  0.00     0.000 HD 
ENDBRANCH  27  28
ENDBRANCH  24  27
ENDBRANCH  20  21
ENDBRANCH  19  20
ENDBRANCH  18  19
ENDBRANCH  12  18
ENDBRANCH   2   4
TORSDOF 7
ENDMDL
MODEL       89
REMARK 921   NORMALIZED FREE ENERGY PREDICTED BY IDOCK:   -4.99 KCAL/MOL
REMARK 922        TOTAL FREE ENERGY PREDICTED BY IDOCK:   -7.78 KCAL/MOL
REMARK 923 INTER-LIGAND FREE ENERGY PREDICTED BY IDOCK:   -7.14 KCAL/MOL
REMARK 924 INTRA-LIGAND FREE ENERGY PREDICTED BY IDOCK:   -0.65 KCAL/MOL
REMARK 927      BINDING AFFINITY PREDICTED BY RF-SCORE:    0.00 PKD
ROOT
HETATM    1  C   UNL     1      -7.599   7.693  64.507  1.00  0.00    -0.112 C  
HETATM    2  C   UNL     1      -8.179   6.449  65.122  1.00  0.00    -0.134 C  
HETATM    3  O   UNL     1      -8.135   5.367  64.539  1.00  0.00    -0.110 OA 
ENDROOT
BRANCH   2   4
HETATM    4  C   UNL     1      -8.814   6.546  66.467  1.00  0.00    -0.142 A  
HETATM    5  C   UNL     1      -8.787   5.492  67.371  1.00  0.00    -0.105 A  
HETATM    6  C   UNL     1      -9.391   5.649  68.612  1.00  0.00    -0.142 A  
HETATM    7  C   UNL     1     -10.030   6.845  68.972  1.00  0.00    -0.158 A  
HETATM    8  S   UNL     1     -10.735   6.849  70.597  1.00  0.00    -0.246 SA 
HETATM    9  C   UNL     1     -11.443   8.468  70.712  1.00  0.00    -0.253 A  
HETATM   10  C   UNL     1     -11.387   9.432  69.679  1.00  0.00     0.008 A  
HETATM   11  C   UNL     1     -12.010  10.666  69.974  1.00  0.00    -0.408 A  
HETATM   12  N   UNL     1     -10.747   9.155  68.430  1.00  0.00    -0.162 NA 
HETATM   13  C   UNL     1     -10.088   7.936  68.082  1.00  0.00    -0.191 A  
HETATM   14  C   UNL     1     -12.655  10.928  71.194  1.00  0.00    -0.532 A  
HETATM   15  C   UNL     1      -9.457   7.743  66.830  1.00  0.00    -0.251 A  
HETATM   16  C   UNL     1     -12.092   8.736  71.935  1.00  0.00    -0.433 A  
HETATM   17  C   UNL     1     -12.699   9.959  72.178  1.00  0.00    -0.387 A  
BRANCH  12  18
HETATM   18  C   UNL     1     -10.784  10.197  67.376  1.00  0.00    -0.277 C  
BRANCH  18  19
HETATM   19  C   UNL     1      -9.679  11.243  67.587  1.00  0.00    -0.183 C  
BRANCH  19  20
HETATM   20  C   UNL     1     -10.175  12.661  67.266  1.00  0.00    -0.224 C  
BRANCH  20  21
HETATM   21  N   UNL     1     -10.175  13.542  68.447  1.00  0.00    -0.242 NA 
HETATM   22  C   UNL     1      -9.030  14.471  68.458  1.00  0.00    -0.188 C  
HETATM   23  C   UNL     1      -9.130  15.576  67.392  1.00  0.00    -0.199 C  
HETATM   24  N   UNL     1     -10.325  16.427  67.556  1.00  0.00    -0.282 NA 
HETATM   25  C   UNL     1     -11.521  15.542  67.582  1.00  0.00    -0.209 C  
HETATM   26  C   UNL     1     -11.429  14.322  68.542  1.00  0.00    -0.298 C  
BRANCH  24  27
HETATM   27  C   UNL     1     -10.263  17.250  68.790  1.00  0.00    -0.353 C  
BRANCH  27  28
HETATM   28  C   UNL     1      -9.477  18.558  68.603  1.00  0.00    -0.345 C  
HETATM   29  O   UNL     1     -10.297  19.678  68.920  1.00  0.00    -0.577 OA 
HETATM   30  H   UNL     1      -9.811  20.486  68.804  1.00  0.00     0.000 HD 
ENDBRANCH  27  28
ENDBRANCH  24  27
ENDBRANCH  20  21
ENDBRANCH  19  20
ENDBRANCH  18  19
ENDBRANCH  12  18
ENDBRANCH   2   4
TORSDOF 7
ENDMDL
MODEL       90
REMARK 921   NORMALIZED FREE ENERGY PREDICTED BY IDOCK:   -4.98 KCAL/MOL
REMARK 922        TOTAL FREE ENERGY PREDICTED BY IDOCK:   -7.77 KCAL/MOL
REMARK 923 INTER-LIGAND FREE ENERGY PREDICTED BY IDOCK:   -6.85 KCAL/MOL
REMARK 924 INTRA-LIGAND FREE ENERGY PREDICTED BY IDOCK:   -0.92 KCAL/MOL
REMARK 927      BINDING AFFINITY PREDICTED BY RF-SCORE:    0.00 PKD
ROOT
HETATM    1  C   UNL     1     -11.084   6.347  67.094  1.00  0.00    -0.422 C  
HETATM    2  C   UNL     1      -9.679   6.613  67.564  1.00  0.00    -0.127 C  
HETATM    3  O   UNL     1      -8.988   5.718  68.051  1.00  0.00    -0.113 OA 
ENDROOT
BRANCH   2   4
HETATM    4  C   UNL     1      -9.128   7.991  67.427  1.00  0.00    -0.147 A  
HETATM    5  C   UNL     1      -7.824   8.223  67.009  1.00  0.00    -0.096 A  
HETATM    6  C   UNL     1      -7.374   9.532  66.895  1.00  0.00    -0.087 A  
HETATM    7  C   UNL     1      -8.202  10.623  67.195  1.00  0.00    -0.121 A  
HETATM    8  S   UNL     1      -7.445  12.211  66.983  1.00  0.00    -0.030 SA 
HETATM    9  C   UNL     1      -8.741  13.327  67.442  1.00  0.00    -0.206 A  
HETATM   10  C   UNL     1     -10.029  12.916  67.859  1.00  0.00    -0.233 A  
HETATM   11  C   UNL     1     -10.920  13.966  68.177  1.00  0.00    -0.267 A  
HETATM   12  N   UNL     1     -10.380  11.534  67.953  1.00  0.00    -0.179 NA 
HETATM   13  C   UNL     1      -9.529  10.432  67.631  1.00  0.00    -0.148 A  
HETATM   14  C   UNL     1     -10.566  15.324  68.102  1.00  0.00    -0.254 A  
HETATM   15  C   UNL     1      -9.956   9.086  67.730  1.00  0.00    -0.235 A  
HETATM   16  C   UNL     1      -8.390  14.691  67.370  1.00  0.00    -0.223 A  
HETATM   17  C   UNL     1      -9.295  15.688  67.699  1.00  0.00    -0.206 A  
BRANCH  12  18
HETATM   18  C   UNL     1     -11.730  11.185  68.457  1.00  0.00    -0.298 C  
BRANCH  18  19
HETATM   19  C   UNL     1     -11.811  11.333  69.984  1.00  0.00    -0.448 C  
BRANCH  19  20
HETATM   20  C   UNL     1     -12.808  10.338  70.596  1.00  0.00    -0.285 C  
BRANCH  20  21
HETATM   21  N   UNL     1     -12.276   9.669  71.796  1.00  0.00    -0.388 NA 
HETATM   22  C   UNL     1     -13.222   8.689  72.361  1.00  0.00    -0.346 C  
HETATM   23  C   UNL     1     -13.386   7.429  71.493  1.00  0.00    -0.372 C  
HETATM   24  N   UNL     1     -12.121   6.689  71.307  1.00  0.00    -0.358 NA 
HETATM   25  C   UNL     1     -11.111   7.636  70.764  1.00  0.00    -0.264 C  
HETATM   26  C   UNL     1     -10.991   8.992  71.516  1.00  0.00    -0.348 C  
BRANCH  24  27
HETATM   27  C   UNL     1     -11.635   6.083  72.573  1.00  0.00    -0.267 C  
BRANCH  27  28
HETATM   28  C   UNL     1     -10.373   5.226  72.382  1.00  0.00    -0.209 C  
HETATM   29  O   UNL     1     -10.556   3.939  72.965  1.00  0.00    -0.167 OA 
HETATM   30  H   UNL     1      -9.776   3.410  72.848  1.00  0.00     0.000 HD 
ENDBRANCH  27  28
ENDBRANCH  24  27
ENDBRANCH  20  21
ENDBRANCH  19  20
ENDBRANCH  18  19
ENDBRANCH  12  18
ENDBRANCH   2   4
TORSDOF 7
ENDMDL
MODEL       91
REMARK 921   NORMALIZED FREE ENERGY PREDICTED BY IDOCK:   -4.96 KCAL/MOL
REMARK 922        TOTAL FREE ENERGY PREDICTED BY IDOCK:   -7.74 KCAL/MOL
REMARK 923 INTER-LIGAND FREE ENERGY PREDICTED BY IDOCK:   -6.80 KCAL/MOL
REMARK 924 INTRA-LIGAND FREE ENERGY PREDICTED BY IDOCK:   -0.94 KCAL/MOL
REMARK 927      BINDING AFFINITY PREDICTED BY RF-SCORE:    0.00 PKD
ROOT
HETATM    1  C   UNL     1     -12.006  15.624  69.183  1.00  0.00    -0.329 C  
HETATM    2  C   UNL     1     -11.914  14.131  69.021  1.00  0.00    -0.340 C  
HETATM    3  O   UNL     1     -12.028  13.375  69.985  1.00  0.00    -0.322 OA 
ENDROOT
BRANCH   2   4
HETATM    4  C   UNL     1     -11.684  13.572  67.659  1.00  0.00    -0.398 A  
HETATM    5  C   UNL     1     -12.445  13.965  66.565  1.00  0.00    -0.364 A  
HETATM    6  C   UNL     1     -12.175  13.411  65.320  1.00  0.00    -0.478 A  
HETATM    7  C   UNL     1     -11.157  12.463  65.142  1.00  0.00    -0.309 A  
HETATM    8  S   UNL     1     -10.967  11.881  63.479  1.00  0.00    -0.425 SA 
HETATM    9  C   UNL     1      -9.632  10.726  63.620  1.00  0.00    -0.305 A  
HETATM   10  C   UNL     1      -8.963  10.433  64.830  1.00  0.00    -0.199 A  
HETATM   11  C   UNL     1      -7.920   9.484  64.725  1.00  0.00    -0.123 A  
HETATM   12  N   UNL     1      -9.335  11.055  66.062  1.00  0.00    -0.194 NA 
HETATM   13  C   UNL     1     -10.367  12.030  66.226  1.00  0.00    -0.221 A  
HETATM   14  C   UNL     1      -7.569   8.859  63.517  1.00  0.00    -0.118 A  
HETATM   15  C   UNL     1     -10.665  12.620  67.478  1.00  0.00    -0.247 A  
HETATM   16  C   UNL     1      -9.276  10.095  62.410  1.00  0.00    -0.320 A  
HETATM   17  C   UNL     1      -8.251   9.163  62.355  1.00  0.00    -0.163 A  
BRANCH  12  18
HETATM   18  C   UNL     1      -8.625  10.648  67.298  1.00  0.00    -0.126 C  
BRANCH  18  19
HETATM   19  C   UNL     1      -7.380  11.517  67.538  1.00  0.00    -0.112 C  
BRANCH  19  20
HETATM   20  C   UNL     1      -7.513  12.352  68.819  1.00  0.00    -0.056 C  
BRANCH  20  21
HETATM   21  N   UNL     1      -6.679  13.567  68.792  1.00  0.00    -0.099 NA 
HETATM   22  C   UNL     1      -6.649  14.200  67.460  1.00  0.00    -0.076 C  
HETATM   23  C   UNL     1      -7.979  14.870  67.073  1.00  0.00    -0.135 C  
HETATM   24  N   UNL     1      -8.378  15.942  68.006  1.00  0.00    -0.158 NA 
HETATM   25  C   UNL     1      -8.399  15.371  69.380  1.00  0.00    -0.250 C  
HETATM   26  C   UNL     1      -7.136  14.561  69.788  1.00  0.00    -0.052 C  
BRANCH  24  27
HETATM   27  C   UNL     1      -7.462  17.109  67.945  1.00  0.00    -0.177 C  
BRANCH  27  28
HETATM   28  C   UNL     1      -8.132  18.370  67.376  1.00  0.00    -0.240 C  
HETATM   29  O   UNL     1      -8.662  18.108  66.081  1.00  0.00    -0.460 OA 
HETATM   30  H   UNL     1      -9.076  18.887  65.729  1.00  0.00     0.000 HD 
ENDBRANCH  27  28
ENDBRANCH  24  27
ENDBRANCH  20  21
ENDBRANCH  19  20
ENDBRANCH  18  19
ENDBRANCH  12  18
ENDBRANCH   2   4
TORSDOF 7
ENDMDL
MODEL       92
REMARK 921   NORMALIZED FREE ENERGY PREDICTED BY IDOCK:   -4.92 KCAL/MOL
REMARK 922        TOTAL FREE ENERGY PREDICTED BY IDOCK:   -7.69 KCAL/MOL
REMARK 923 INTER-LIGAND FREE ENERGY PREDICTED BY IDOCK:   -7.02 KCAL/MOL
REMARK 924 INTRA-LIGAND FREE ENERGY PREDICTED BY IDOCK:   -0.67 KCAL/MOL
REMARK 927      BINDING AFFINITY PREDICTED BY RF-SCORE:    0.00 PKD
ROOT
HETATM    1  C   UNL     1      -8.648   8.862  62.484  1.00  0.00    -0.195 C  
HETATM    2  C   UNL     1      -8.886   9.220  63.925  1.00  0.00    -0.126 C  
HETATM    3  O   UNL     1      -8.642   8.424  64.831  1.00  0.00    -0.161 OA 
ENDROOT
BRANCH   2   4
HETATM    4  C   UNL     1      -9.426  10.572  64.246  1.00  0.00    -0.337 A  
HETATM    5  C   UNL     1     -10.191  11.293  63.338  1.00  0.00    -0.454 A  
HETATM    6  C   UNL     1     -10.671  12.545  63.701  1.00  0.00    -0.469 A  
HETATM    7  C   UNL     1     -10.398  13.100  64.959  1.00  0.00    -0.330 A  
HETATM    8  S   UNL     1     -11.101  14.702  65.232  1.00  0.00    -0.382 SA 
HETATM    9  C   UNL     1     -10.567  15.089  66.876  1.00  0.00    -0.297 A  
HETATM   10  C   UNL     1      -9.771  14.233  67.672  1.00  0.00    -0.220 A  
HETATM   11  C   UNL     1      -9.458  14.729  68.958  1.00  0.00    -0.167 A  
HETATM   12  N   UNL     1      -9.320  12.965  67.189  1.00  0.00    -0.220 NA 
HETATM   13  C   UNL     1      -9.618  12.406  65.907  1.00  0.00    -0.187 A  
HETATM   14  C   UNL     1      -9.886  15.984  69.423  1.00  0.00    -0.254 A  
HETATM   15  C   UNL     1      -9.152  11.132  65.507  1.00  0.00    -0.211 A  
HETATM   16  C   UNL     1     -10.993  16.348  67.347  1.00  0.00    -0.145 A  
HETATM   17  C   UNL     1     -10.654  16.798  68.614  1.00  0.00    -0.353 A  
BRANCH  12  18
HETATM   18  C   UNL     1      -8.440  12.154  68.062  1.00  0.00    -0.170 C  
BRANCH  18  19
HETATM   19  C   UNL     1      -9.256  11.184  68.930  1.00  0.00    -0.106 C  
BRANCH  19  20
HETATM   20  C   UNL     1      -8.523   9.850  69.130  1.00  0.00    -0.148 C  
BRANCH  20  21
HETATM   21  N   UNL     1      -9.418   8.687  69.009  1.00  0.00    -0.152 NA 
HETATM   22  C   UNL     1      -8.836   7.464  69.592  1.00  0.00    -0.141 C  
HETATM   23  C   UNL     1      -8.766   7.494  71.129  1.00  0.00    -0.136 C  
HETATM   24  N   UNL     1     -10.092   7.637  71.763  1.00  0.00    -0.172 NA 
HETATM   25  C   UNL     1     -10.747   8.844  71.192  1.00  0.00    -0.263 C  
HETATM   26  C   UNL     1     -10.731   8.944  69.641  1.00  0.00    -0.217 C  
BRANCH  24  27
HETATM   27  C   UNL     1     -10.944   6.439  71.557  1.00  0.00    -0.263 C  
BRANCH  27  28
HETATM   28  C   UNL     1     -10.883   5.447  72.731  1.00  0.00    -0.263 C  
HETATM   29  O   UNL     1     -12.194   5.159  73.204  1.00  0.00    -0.481 OA 
HETATM   30  H   UNL     1     -12.156   4.546  73.930  1.00  0.00     0.000 HD 
ENDBRANCH  27  28
ENDBRANCH  24  27
ENDBRANCH  20  21
ENDBRANCH  19  20
ENDBRANCH  18  19
ENDBRANCH  12  18
ENDBRANCH   2   4
TORSDOF 7
ENDMDL
MODEL       93
REMARK 921   NORMALIZED FREE ENERGY PREDICTED BY IDOCK:   -4.89 KCAL/MOL
REMARK 922        TOTAL FREE ENERGY PREDICTED BY IDOCK:   -7.65 KCAL/MOL
REMARK 923 INTER-LIGAND FREE ENERGY PREDICTED BY IDOCK:   -7.14 KCAL/MOL
REMARK 924 INTRA-LIGAND FREE ENERGY PREDICTED BY IDOCK:   -0.50 KCAL/MOL
REMARK 927      BINDING AFFINITY PREDICTED BY RF-SCORE:    0.00 PKD
ROOT
HETATM    1  C   UNL     1      -6.367   8.286  63.112  1.00  0.00    -0.082 C  
HETATM    2  C   UNL     1      -7.801   8.587  63.453  1.00  0.00    -0.150 C  
HETATM    3  O   UNL     1      -8.610   8.913  62.585  1.00  0.00    -0.212 OA 
ENDROOT
BRANCH   2   4
HETATM    4  C   UNL     1      -8.235   8.480  64.875  1.00  0.00    -0.166 A  
HETATM    5  C   UNL     1      -7.789   7.460  65.705  1.00  0.00    -0.108 A  
HETATM    6  C   UNL     1      -8.226   7.420  67.023  1.00  0.00    -0.121 A  
HETATM    7  C   UNL     1      -9.110   8.382  67.533  1.00  0.00    -0.134 A  
HETATM    8  S   UNL     1      -9.545   8.161  69.236  1.00  0.00    -0.165 SA 
HETATM    9  C   UNL     1     -10.646   9.515  69.537  1.00  0.00    -0.221 A  
HETATM   10  C   UNL     1     -11.008  10.473  68.562  1.00  0.00    -0.252 A  
HETATM   11  C   UNL     1     -11.897  11.478  69.009  1.00  0.00    -0.408 A  
HETATM   12  N   UNL     1     -10.505  10.409  67.226  1.00  0.00    -0.236 NA 
HETATM   13  C   UNL     1      -9.594   9.429  66.723  1.00  0.00    -0.179 A  
HETATM   14  C   UNL     1     -12.405  11.528  70.318  1.00  0.00    -0.355 A  
HETATM   15  C   UNL     1      -9.123   9.442  65.388  1.00  0.00    -0.280 A  
HETATM   16  C   UNL     1     -11.160   9.569  70.849  1.00  0.00    -0.406 A  
HETATM   17  C   UNL     1     -12.037  10.569  71.242  1.00  0.00    -0.432 A  
BRANCH  12  18
HETATM   18  C   UNL     1     -10.980  11.416  66.247  1.00  0.00    -0.247 C  
BRANCH  18  19
HETATM   19  C   UNL     1      -9.893  12.462  65.952  1.00  0.00    -0.265 C  
BRANCH  19  20
HETATM   20  C   UNL     1      -9.514  13.254  67.212  1.00  0.00    -0.233 C  
BRANCH  20  21
HETATM   21  N   UNL     1     -10.441  14.367  67.481  1.00  0.00    -0.252 NA 
HETATM   22  C   UNL     1     -10.233  14.964  68.813  1.00  0.00    -0.243 C  
HETATM   23  C   UNL     1      -8.926  15.770  68.923  1.00  0.00    -0.226 C  
HETATM   24  N   UNL     1      -8.864  16.899  67.974  1.00  0.00    -0.211 NA 
HETATM   25  C   UNL     1      -9.097  16.364  66.606  1.00  0.00    -0.250 C  
HETATM   26  C   UNL     1     -10.329  15.427  66.455  1.00  0.00    -0.296 C  
BRANCH  24  27
HETATM   27  C   UNL     1      -9.858  17.955  68.293  1.00  0.00    -0.348 C  
BRANCH  27  28
HETATM   28  C   UNL     1     -10.063  18.956  67.143  1.00  0.00    -0.358 C  
HETATM   29  O   UNL     1      -9.002  19.905  67.119  1.00  0.00    -0.311 OA 
HETATM   30  H   UNL     1      -9.129  20.523  66.409  1.00  0.00     0.000 HD 
ENDBRANCH  27  28
ENDBRANCH  24  27
ENDBRANCH  20  21
ENDBRANCH  19  20
ENDBRANCH  18  19
ENDBRANCH  12  18
ENDBRANCH   2   4
TORSDOF 7
ENDMDL
MODEL       94
REMARK 921   NORMALIZED FREE ENERGY PREDICTED BY IDOCK:   -4.89 KCAL/MOL
REMARK 922        TOTAL FREE ENERGY PREDICTED BY IDOCK:   -7.64 KCAL/MOL
REMARK 923 INTER-LIGAND FREE ENERGY PREDICTED BY IDOCK:   -6.99 KCAL/MOL
REMARK 924 INTRA-LIGAND FREE ENERGY PREDICTED BY IDOCK:   -0.65 KCAL/MOL
REMARK 927      BINDING AFFINITY PREDICTED BY RF-SCORE:    0.00 PKD
ROOT
HETATM    1  C   UNL     1      -5.259  15.316  70.990  1.00  0.00    -0.132 C  
HETATM    2  C   UNL     1      -5.827  14.315  70.020  1.00  0.00    -0.131 C  
HETATM    3  O   UNL     1      -5.400  13.163  69.968  1.00  0.00    -0.088 OA 
ENDROOT
BRANCH   2   4
HETATM    4  C   UNL     1      -6.931  14.744  69.116  1.00  0.00    -0.138 A  
HETATM    5  C   UNL     1      -7.378  16.058  69.072  1.00  0.00    -0.191 A  
HETATM    6  C   UNL     1      -8.406  16.395  68.201  1.00  0.00    -0.186 A  
HETATM    7  C   UNL     1      -9.006  15.439  67.368  1.00  0.00    -0.191 A  
HETATM    8  S   UNL     1     -10.295  16.066  66.328  1.00  0.00    -0.331 SA 
HETATM    9  C   UNL     1     -10.815  14.626  65.439  1.00  0.00    -0.356 A  
HETATM   10  C   UNL     1     -10.251  13.341  65.613  1.00  0.00    -0.289 A  
HETATM   11  C   UNL     1     -10.807  12.326  64.802  1.00  0.00    -0.345 A  
HETATM   12  N   UNL     1      -9.200  13.105  66.553  1.00  0.00    -0.218 NA 
HETATM   13  C   UNL     1      -8.589  14.093  67.387  1.00  0.00    -0.210 A  
HETATM   14  C   UNL     1     -11.853  12.555  63.893  1.00  0.00    -0.544 A  
HETATM   15  C   UNL     1      -7.535  13.787  68.281  1.00  0.00    -0.120 A  
HETATM   16  C   UNL     1     -11.866  14.851  64.526  1.00  0.00    -0.404 A  
HETATM   17  C   UNL     1     -12.387  13.822  63.755  1.00  0.00    -0.313 A  
BRANCH  12  18
HETATM   18  C   UNL     1      -8.704  11.719  66.720  1.00  0.00    -0.192 C  
BRANCH  18  19
HETATM   19  C   UNL     1      -9.562  10.937  67.727  1.00  0.00    -0.176 C  
BRANCH  19  20
HETATM   20  C   UNL     1      -9.205   9.443  67.732  1.00  0.00    -0.128 C  
BRANCH  20  21
HETATM   21  N   UNL     1      -9.793   8.716  66.594  1.00  0.00    -0.243 NA 
HETATM   22  C   UNL     1      -8.789   8.353  65.577  1.00  0.00    -0.130 C  
HETATM   23  C   UNL     1      -7.826   7.245  66.039  1.00  0.00    -0.106 C  
HETATM   24  N   UNL     1      -8.516   5.983  66.372  1.00  0.00    -0.115 NA 
HETATM   25  C   UNL     1      -9.569   6.288  67.379  1.00  0.00    -0.119 C  
HETATM   26  C   UNL     1     -10.494   7.490  67.037  1.00  0.00    -0.338 C  
BRANCH  24  27
HETATM   27  C   UNL     1      -9.115   5.339  65.176  1.00  0.00    -0.056 C  
BRANCH  27  28
HETATM   28  C   UNL     1     -10.092   4.204  65.530  1.00  0.00    -0.187 C  
HETATM   29  O   UNL     1     -11.326   4.383  64.843  1.00  0.00    -1.015 OA 
HETATM   30  H   UNL     1     -11.930   3.682  65.062  1.00  0.00     0.000 HD 
ENDBRANCH  27  28
ENDBRANCH  24  27
ENDBRANCH  20  21
ENDBRANCH  19  20
ENDBRANCH  18  19
ENDBRANCH  12  18
ENDBRANCH   2   4
TORSDOF 7
ENDMDL
MODEL       95
REMARK 921   NORMALIZED FREE ENERGY PREDICTED BY IDOCK:   -4.88 KCAL/MOL
REMARK 922        TOTAL FREE ENERGY PREDICTED BY IDOCK:   -7.64 KCAL/MOL
REMARK 923 INTER-LIGAND FREE ENERGY PREDICTED BY IDOCK:   -7.19 KCAL/MOL
REMARK 924 INTRA-LIGAND FREE ENERGY PREDICTED BY IDOCK:   -0.45 KCAL/MOL
REMARK 927      BINDING AFFINITY PREDICTED BY RF-SCORE:    0.00 PKD
ROOT
HETATM    1  C   UNL     1     -12.072  12.945  65.743  1.00  0.00    -0.513 C  
HETATM    2  C   UNL     1     -11.649  12.606  64.339  1.00  0.00    -0.357 C  
HETATM    3  O   UNL     1     -12.154  13.166  63.367  1.00  0.00    -0.552 OA 
ENDROOT
BRANCH   2   4
HETATM    4  C   UNL     1     -10.594  11.572  64.140  1.00  0.00    -0.420 A  
HETATM    5  C   UNL     1      -9.742  11.591  63.044  1.00  0.00    -0.382 A  
HETATM    6  C   UNL     1      -8.775  10.602  62.921  1.00  0.00    -0.229 A  
HETATM    7  C   UNL     1      -8.641   9.583  63.875  1.00  0.00    -0.212 A  
HETATM    8  S   UNL     1      -7.346   8.420  63.542  1.00  0.00    -0.113 SA 
HETATM    9  C   UNL     1      -7.463   7.302  64.911  1.00  0.00    -0.091 A  
HETATM   10  C   UNL     1      -8.411   7.424  65.954  1.00  0.00    -0.140 A  
HETATM   11  C   UNL     1      -8.332   6.429  66.955  1.00  0.00    -0.112 A  
HETATM   12  N   UNL     1      -9.374   8.480  65.972  1.00  0.00    -0.215 NA 
HETATM   13  C   UNL     1      -9.490   9.520  64.999  1.00  0.00    -0.204 A  
HETATM   14  C   UNL     1      -7.397   5.381  66.925  1.00  0.00    -0.083 A  
HETATM   15  C   UNL     1     -10.459  10.548  65.095  1.00  0.00    -0.225 A  
HETATM   16  C   UNL     1      -6.528   6.247  64.885  1.00  0.00    -0.038 A  
HETATM   17  C   UNL     1      -6.493   5.288  65.885  1.00  0.00    -0.040 A  
BRANCH  12  18
HETATM   18  C   UNL     1     -10.371   8.503  67.068  1.00  0.00    -0.309 C  
BRANCH  18  19
HETATM   19  C   UNL     1      -9.708   8.810  68.419  1.00  0.00    -0.175 C  
BRANCH  19  20
HETATM   20  C   UNL     1     -10.543   8.279  69.593  1.00  0.00    -0.222 C  
BRANCH  20  21
HETATM   21  N   UNL     1     -10.570   9.208  70.736  1.00  0.00    -0.237 NA 
HETATM   22  C   UNL     1     -10.732  10.613  70.317  1.00  0.00     0.003 C  
HETATM   23  C   UNL     1     -12.138  10.930  69.777  1.00  0.00    -0.338 C  
HETATM   24  N   UNL     1     -13.204  10.693  70.770  1.00  0.00    -0.212 NA 
HETATM   25  C   UNL     1     -13.076   9.293  71.257  1.00  0.00    -0.265 C  
HETATM   26  C   UNL     1     -11.646   8.863  71.691  1.00  0.00    -0.338 C  
BRANCH  24  27
HETATM   27  C   UNL     1     -13.132  11.644  71.908  1.00  0.00    -0.385 C  
BRANCH  27  28
HETATM   28  C   UNL     1     -13.162  13.116  71.464  1.00  0.00    -0.282 C  
HETATM   29  O   UNL     1     -14.018  13.872  72.315  1.00  0.00    -0.500 OA 
HETATM   30  H   UNL     1     -14.037  14.782  72.040  1.00  0.00     0.000 HD 
ENDBRANCH  27  28
ENDBRANCH  24  27
ENDBRANCH  20  21
ENDBRANCH  19  20
ENDBRANCH  18  19
ENDBRANCH  12  18
ENDBRANCH   2   4
TORSDOF 7
ENDMDL
MODEL       96
REMARK 921   NORMALIZED FREE ENERGY PREDICTED BY IDOCK:   -4.88 KCAL/MOL
REMARK 922        TOTAL FREE ENERGY PREDICTED BY IDOCK:   -7.63 KCAL/MOL
REMARK 923 INTER-LIGAND FREE ENERGY PREDICTED BY IDOCK:   -7.03 KCAL/MOL
REMARK 924 INTRA-LIGAND FREE ENERGY PREDICTED BY IDOCK:   -0.60 KCAL/MOL
REMARK 927      BINDING AFFINITY PREDICTED BY RF-SCORE:    0.00 PKD
ROOT
HETATM    1  C   UNL     1      -6.709  10.363  62.333  1.00  0.00    -0.148 C  
HETATM    2  C   UNL     1      -7.884  10.084  63.230  1.00  0.00    -0.150 C  
HETATM    3  O   UNL     1      -8.868  10.822  63.243  1.00  0.00    -0.188 OA 
ENDROOT
BRANCH   2   4
HETATM    4  C   UNL     1      -7.841   8.883  64.112  1.00  0.00    -0.135 A  
HETATM    5  C   UNL     1      -6.949   7.841  63.893  1.00  0.00    -0.063 A  
HETATM    6  C   UNL     1      -6.955   6.753  64.756  1.00  0.00    -0.055 A  
HETATM    7  C   UNL     1      -7.842   6.679  65.840  1.00  0.00    -0.102 A  
HETATM    8  S   UNL     1      -7.690   5.214  66.824  1.00  0.00    -0.093 SA 
HETATM    9  C   UNL     1      -8.930   5.448  68.067  1.00  0.00    -0.108 A  
HETATM   10  C   UNL     1      -9.772   6.581  68.141  1.00  0.00    -0.126 A  
HETATM   11  C   UNL     1     -10.693   6.576  69.214  1.00  0.00    -0.329 A  
HETATM   12  N   UNL     1      -9.688   7.642  67.186  1.00  0.00    -0.168 NA 
HETATM   13  C   UNL     1      -8.769   7.710  66.093  1.00  0.00    -0.156 A  
HETATM   14  C   UNL     1     -10.787   5.523  70.140  1.00  0.00    -0.299 A  
HETATM   15  C   UNL     1      -8.731   8.806  65.199  1.00  0.00    -0.202 A  
HETATM   16  C   UNL     1      -9.030   4.394  68.998  1.00  0.00    -0.154 A  
HETATM   17  C   UNL     1      -9.954   4.427  70.031  1.00  0.00    -0.245 A  
BRANCH  12  18
HETATM   18  C   UNL     1     -10.647   8.766  67.298  1.00  0.00    -0.233 C  
BRANCH  18  19
HETATM   19  C   UNL     1     -10.058   9.921  68.123  1.00  0.00    -0.193 C  
BRANCH  19  20
HETATM   20  C   UNL     1     -11.098  11.023  68.374  1.00  0.00    -0.251 C  
BRANCH  20  21
HETATM   21  N   UNL     1     -10.575  12.371  68.090  1.00  0.00    -0.209 NA 
HETATM   22  C   UNL     1      -9.683  12.393  66.916  1.00  0.00    -0.215 C  
HETATM   23  C   UNL     1     -10.423  12.187  65.582  1.00  0.00    -0.255 C  
HETATM   24  N   UNL     1     -11.438  13.226  65.321  1.00  0.00    -0.291 NA 
HETATM   25  C   UNL     1     -12.358  13.275  66.489  1.00  0.00    -0.248 C  
HETATM   26  C   UNL     1     -11.669  13.345  67.881  1.00  0.00    -0.361 C  
BRANCH  24  27
HETATM   27  C   UNL     1     -10.829  14.560  65.086  1.00  0.00    -0.395 C  
BRANCH  27  28
HETATM   28  C   UNL     1     -11.869  15.654  64.793  1.00  0.00    -0.047 C  
HETATM   29  O   UNL     1     -11.418  16.494  63.736  1.00  0.00    -1.615 OA 
HETATM   30  H   UNL     1     -12.061  17.171  63.555  1.00  0.00     0.000 HD 
ENDBRANCH  27  28
ENDBRANCH  24  27
ENDBRANCH  20  21
ENDBRANCH  19  20
ENDBRANCH  18  19
ENDBRANCH  12  18
ENDBRANCH   2   4
TORSDOF 7
ENDMDL
MODEL       97
REMARK 921   NORMALIZED FREE ENERGY PREDICTED BY IDOCK:   -4.88 KCAL/MOL
REMARK 922        TOTAL FREE ENERGY PREDICTED BY IDOCK:   -7.63 KCAL/MOL
REMARK 923 INTER-LIGAND FREE ENERGY PREDICTED BY IDOCK:   -6.89 KCAL/MOL
REMARK 924 INTRA-LIGAND FREE ENERGY PREDICTED BY IDOCK:   -0.74 KCAL/MOL
REMARK 927      BINDING AFFINITY PREDICTED BY RF-SCORE:    0.00 PKD
ROOT
HETATM    1  C   UNL     1     -10.125   5.132  70.801  1.00  0.00    -0.303 C  
HETATM    2  C   UNL     1     -11.009   5.944  71.707  1.00  0.00    -0.269 C  
HETATM    3  O   UNL     1     -11.491   5.462  72.731  1.00  0.00    -0.300 OA 
ENDROOT
BRANCH   2   4
HETATM    4  C   UNL     1     -11.294   7.362  71.345  1.00  0.00    -0.282 A  
HETATM    5  C   UNL     1     -11.814   8.265  72.262  1.00  0.00    -0.451 A  
HETATM    6  C   UNL     1     -12.050   9.575  71.862  1.00  0.00    -0.409 A  
HETATM    7  C   UNL     1     -11.781  10.004  70.555  1.00  0.00    -0.318 A  
HETATM    8  S   UNL     1     -12.146  11.709  70.243  1.00  0.00    -0.328 SA 
HETATM    9  C   UNL     1     -11.701  11.899  68.540  1.00  0.00    -0.330 A  
HETATM   10  C   UNL     1     -11.186  10.857  67.735  1.00  0.00    -0.317 A  
HETATM   11  C   UNL     1     -10.889  11.219  66.401  1.00  0.00    -0.306 A  
HETATM   12  N   UNL     1     -10.995   9.537  68.250  1.00  0.00    -0.139 NA 
HETATM   13  C   UNL     1     -11.262   9.117  69.589  1.00  0.00    -0.009 A  
HETATM   14  C   UNL     1     -11.096  12.512  65.892  1.00  0.00    -0.334 A  
HETATM   15  C   UNL     1     -11.027   7.794  70.033  1.00  0.00    -0.218 A  
HETATM   16  C   UNL     1     -11.907  13.195  68.023  1.00  0.00    -0.398 A  
HETATM   17  C   UNL     1     -11.609  13.504  66.705  1.00  0.00    -0.397 A  
BRANCH  12  18
HETATM   18  C   UNL     1     -10.509   8.486  67.325  1.00  0.00    -0.296 C  
BRANCH  18  19
HETATM   19  C   UNL     1      -8.975   8.389  67.347  1.00  0.00    -0.143 C  
BRANCH  19  20
HETATM   20  C   UNL     1      -8.501   6.929  67.341  1.00  0.00    -0.121 C  
BRANCH  20  21
HETATM   21  N   UNL     1      -9.015   6.171  66.187  1.00  0.00    -0.155 NA 
HETATM   22  C   UNL     1      -7.958   5.846  65.211  1.00  0.00    -0.115 C  
HETATM   23  C   UNL     1      -6.967   4.783  65.715  1.00  0.00    -0.063 C  
HETATM   24  N   UNL     1      -7.615   3.495  66.032  1.00  0.00    -0.080 NA 
HETATM   25  C   UNL     1      -8.717   3.759  66.996  1.00  0.00    -0.114 C  
HETATM   26  C   UNL     1      -9.679   4.919  66.612  1.00  0.00    -0.184 C  
BRANCH  24  27
HETATM   27  C   UNL     1      -8.141   2.819  64.819  1.00  0.00    -0.086 C  
BRANCH  27  28
HETATM   28  C   UNL     1      -9.275   1.827  65.127  1.00  0.00    -0.075 C  
HETATM   29  O   UNL     1     -10.389   2.069  64.274  1.00  0.00    -0.348 OA 
HETATM   30  H   UNL     1     -11.090   1.457  64.464  1.00  0.00     0.000 HD 
ENDBRANCH  27  28
ENDBRANCH  24  27
ENDBRANCH  20  21
ENDBRANCH  19  20
ENDBRANCH  18  19
ENDBRANCH  12  18
ENDBRANCH   2   4
TORSDOF 7
ENDMDL
MODEL       98
REMARK 921   NORMALIZED FREE ENERGY PREDICTED BY IDOCK:   -4.87 KCAL/MOL
REMARK 922        TOTAL FREE ENERGY PREDICTED BY IDOCK:   -7.62 KCAL/MOL
REMARK 923 INTER-LIGAND FREE ENERGY PREDICTED BY IDOCK:   -6.77 KCAL/MOL
REMARK 924 INTRA-LIGAND FREE ENERGY PREDICTED BY IDOCK:   -0.85 KCAL/MOL
REMARK 927      BINDING AFFINITY PREDICTED BY RF-SCORE:    0.00 PKD
ROOT
HETATM    1  C   UNL     1     -11.105  16.269  69.298  1.00  0.00    -0.325 C  
HETATM    2  C   UNL     1     -11.603  15.024  68.617  1.00  0.00    -0.325 C  
HETATM    3  O   UNL     1     -11.811  14.998  67.404  1.00  0.00    -0.309 OA 
ENDROOT
BRANCH   2   4
HETATM    4  C   UNL     1     -11.842  13.805  69.441  1.00  0.00    -0.392 A  
HETATM    5  C   UNL     1     -12.545  13.852  70.638  1.00  0.00    -0.405 A  
HETATM    6  C   UNL     1     -12.739  12.679  71.355  1.00  0.00    -0.347 A  
HETATM    7  C   UNL     1     -12.239  11.449  70.902  1.00  0.00    -0.344 A  
HETATM    8  S   UNL     1     -12.594  10.070  71.955  1.00  0.00    -0.192 SA 
HETATM    9  C   UNL     1     -11.831   8.719  71.102  1.00  0.00    -0.295 A  
HETATM   10  C   UNL     1     -11.135   8.848  69.878  1.00  0.00    -0.136 A  
HETATM   11  C   UNL     1     -10.603   7.645  69.359  1.00  0.00    -0.217 A  
HETATM   12  N   UNL     1     -10.984  10.114  69.231  1.00  0.00    -0.231 NA 
HETATM   13  C   UNL     1     -11.511  11.358  69.698  1.00  0.00    -0.309 A  
HETATM   14  C   UNL     1     -10.736   6.405  70.007  1.00  0.00    -0.316 A  
HETATM   15  C   UNL     1     -11.339  12.571  68.990  1.00  0.00    -0.342 A  
HETATM   16  C   UNL     1     -11.960   7.472  71.748  1.00  0.00    -0.334 A  
HETATM   17  C   UNL     1     -11.414   6.318  71.207  1.00  0.00    -0.352 A  
BRANCH  12  18
HETATM   18  C   UNL     1     -10.189  10.175  67.982  1.00  0.00    -0.173 C  
BRANCH  18  19
HETATM   19  C   UNL     1      -8.687  10.023  68.269  1.00  0.00    -0.119 C  
BRANCH  19  20
HETATM   20  C   UNL     1      -8.073  11.335  68.780  1.00  0.00    -0.130 C  
BRANCH  20  21
HETATM   21  N   UNL     1      -7.444  12.122  67.706  1.00  0.00    -0.111 NA 
HETATM   22  C   UNL     1      -8.173  13.372  67.422  1.00  0.00    -0.183 C  
HETATM   23  C   UNL     1      -8.039  14.424  68.538  1.00  0.00    -0.146 C  
HETATM   24  N   UNL     1      -6.641  14.833  68.777  1.00  0.00    -0.085 NA 
HETATM   25  C   UNL     1      -5.842  13.607  69.043  1.00  0.00    -0.077 C  
HETATM   26  C   UNL     1      -6.036  12.448  68.024  1.00  0.00    -0.075 C  
BRANCH  24  27
HETATM   27  C   UNL     1      -6.071  15.584  67.630  1.00  0.00    -0.133 C  
BRANCH  27  28
HETATM   28  C   UNL     1      -6.479  17.066  67.618  1.00  0.00    -0.145 C  
HETATM   29  O   UNL     1      -7.367  17.326  66.536  1.00  0.00    -0.219 OA 
HETATM   30  H   UNL     1      -7.619  18.243  66.529  1.00  0.00     0.000 HD 
ENDBRANCH  27  28
ENDBRANCH  24  27
ENDBRANCH  20  21
ENDBRANCH  19  20
ENDBRANCH  18  19
ENDBRANCH  12  18
ENDBRANCH   2   4
TORSDOF 7
ENDMDL
MODEL       99
REMARK 921   NORMALIZED FREE ENERGY PREDICTED BY IDOCK:   -4.87 KCAL/MOL
REMARK 922        TOTAL FREE ENERGY PREDICTED BY IDOCK:   -7.62 KCAL/MOL
REMARK 923 INTER-LIGAND FREE ENERGY PREDICTED BY IDOCK:   -6.61 KCAL/MOL
REMARK 924 INTRA-LIGAND FREE ENERGY PREDICTED BY IDOCK:   -1.01 KCAL/MOL
REMARK 927      BINDING AFFINITY PREDICTED BY RF-SCORE:    0.00 PKD
ROOT
HETATM    1  C   UNL     1      -7.231  13.887  67.518  1.00  0.00    -0.178 C  
HETATM    2  C   UNL     1      -6.699  13.289  68.792  1.00  0.00    -0.099 C  
HETATM    3  O   UNL     1      -6.063  13.967  69.599  1.00  0.00    -0.106 OA 
ENDROOT
BRANCH   2   4
HETATM    4  C   UNL     1      -6.958  11.848  69.068  1.00  0.00    -0.098 A  
HETATM    5  C   UNL     1      -6.401  11.196  70.161  1.00  0.00    -0.137 A  
HETATM    6  C   UNL     1      -6.689   9.853  70.366  1.00  0.00    -0.136 A  
HETATM    7  C   UNL     1      -7.524   9.138  69.494  1.00  0.00    -0.077 A  
HETATM    8  S   UNL     1      -7.770   7.439  69.928  1.00  0.00    -0.100 SA 
HETATM    9  C   UNL     1      -8.843   6.859  68.644  1.00  0.00    -0.124 A  
HETATM   10  C   UNL     1      -9.317   7.665  67.584  1.00  0.00    -0.142 A  
HETATM   11  C   UNL     1     -10.168   7.010  66.665  1.00  0.00    -0.218 A  
HETATM   12  N   UNL     1      -8.944   9.040  67.464  1.00  0.00    -0.123 NA 
HETATM   13  C   UNL     1      -8.102   9.759  68.368  1.00  0.00    -0.104 A  
HETATM   14  C   UNL     1     -10.517   5.653  66.775  1.00  0.00    -0.353 A  
HETATM   15  C   UNL     1      -7.793  11.129  68.194  1.00  0.00    -0.118 A  
HETATM   16  C   UNL     1      -9.196   5.498  68.749  1.00  0.00    -0.142 A  
HETATM   17  C   UNL     1     -10.028   4.893  67.819  1.00  0.00    -0.186 A  
BRANCH  12  18
HETATM   18  C   UNL     1      -9.434   9.801  66.290  1.00  0.00    -0.195 C  
BRANCH  18  19
HETATM   19  C   UNL     1     -10.776  10.486  66.590  1.00  0.00    -0.222 C  
BRANCH  19  20
HETATM   20  C   UNL     1     -10.791  11.941  66.098  1.00  0.00    -0.292 C  
BRANCH  20  21
HETATM   21  N   UNL     1     -11.915  12.715  66.653  1.00  0.00    -0.529 NA 
HETATM   22  C   UNL     1     -11.906  12.744  68.127  1.00  0.00    -0.324 C  
HETATM   23  C   UNL     1     -10.772  13.603  68.714  1.00  0.00    -0.244 C  
HETATM   24  N   UNL     1     -10.844  15.017  68.296  1.00  0.00    -0.252 NA 
HETATM   25  C   UNL     1     -10.885  15.055  66.809  1.00  0.00    -0.318 C  
HETATM   26  C   UNL     1     -11.920  14.104  66.144  1.00  0.00    -0.422 C  
BRANCH  24  27
HETATM   27  C   UNL     1     -12.027  15.710  68.864  1.00  0.00    -0.279 C  
BRANCH  27  28
HETATM   28  C   UNL     1     -12.186  15.488  70.377  1.00  0.00    -0.406 C  
HETATM   29  O   UNL     1     -13.538  15.172  70.692  1.00  0.00    -0.681 OA 
HETATM   30  H   UNL     1     -13.636  15.035  71.627  1.00  0.00     0.000 HD 
ENDBRANCH  27  28
ENDBRANCH  24  27
ENDBRANCH  20  21
ENDBRANCH  19  20
ENDBRANCH  18  19
ENDBRANCH  12  18
ENDBRANCH   2   4
TORSDOF 7
ENDMDL
MODEL      100
REMARK 921   NORMALIZED FREE ENERGY PREDICTED BY IDOCK:   -4.86 KCAL/MOL
REMARK 922        TOTAL FREE ENERGY PREDICTED BY IDOCK:   -7.61 KCAL/MOL
REMARK 923 INTER-LIGAND FREE ENERGY PREDICTED BY IDOCK:   -6.79 KCAL/MOL
REMARK 924 INTRA-LIGAND FREE ENERGY PREDICTED BY IDOCK:   -0.82 KCAL/MOL
REMARK 927      BINDING AFFINITY PREDICTED BY RF-SCORE:    0.00 PKD
ROOT
HETATM    1  C   UNL     1     -13.453  13.026  72.155  1.00  0.00    -0.638 C  
HETATM    2  C   UNL     1     -12.692  12.343  71.052  1.00  0.00    -0.223 C  
HETATM    3  O   UNL     1     -12.295  12.967  70.068  1.00  0.00    -0.250 OA 
ENDROOT
BRANCH   2   4
HETATM    4  C   UNL     1     -12.418  10.883  71.169  1.00  0.00    -0.511 A  
HETATM    5  C   UNL     1     -13.307  10.016  71.790  1.00  0.00    -0.492 A  
HETATM    6  C   UNL     1     -12.996   8.664  71.860  1.00  0.00    -0.409 A  
HETATM    7  C   UNL     1     -11.804   8.155  71.324  1.00  0.00    -0.287 A  
HETATM    8  S   UNL     1     -11.594   6.406  71.511  1.00  0.00    -0.297 SA 
HETATM    9  C   UNL     1     -10.024   6.117  70.743  1.00  0.00    -0.189 A  
HETATM   10  C   UNL     1      -9.230   7.131  70.158  1.00  0.00    -0.155 A  
HETATM   11  C   UNL     1      -8.012   6.689  69.594  1.00  0.00    -0.124 A  
HETATM   12  N   UNL     1      -9.645   8.499  70.154  1.00  0.00    -0.167 NA 
HETATM   13  C   UNL     1     -10.870   9.001  70.694  1.00  0.00    -0.243 A  
HETATM   14  C   UNL     1      -7.597   5.347  69.616  1.00  0.00    -0.070 A  
HETATM   15  C   UNL     1     -11.222  10.371  70.634  1.00  0.00    -0.358 A  
HETATM   16  C   UNL     1      -9.603   4.772  70.764  1.00  0.00    -0.249 A  
HETATM   17  C   UNL     1      -8.394   4.384  70.205  1.00  0.00    -0.079 A  
BRANCH  12  18
HETATM   18  C   UNL     1      -8.729   9.510  69.575  1.00  0.00    -0.174 C  
BRANCH  18  19
HETATM   19  C   UNL     1      -8.881   9.590  68.048  1.00  0.00    -0.123 C  
BRANCH  19  20
HETATM   20  C   UNL     1      -8.405  10.945  67.503  1.00  0.00    -0.117 C  
BRANCH  20  21
HETATM   21  N   UNL     1      -8.586  12.040  68.471  1.00  0.00    -0.134 NA 
HETATM   22  C   UNL     1      -7.362  12.842  68.651  1.00  0.00    -0.099 C  
HETATM   23  C   UNL     1      -7.021  13.716  67.431  1.00  0.00    -0.057 C  
HETATM   24  N   UNL     1      -8.082  14.690  67.106  1.00  0.00    -0.205 NA 
HETATM   25  C   UNL     1      -9.358  13.943  66.941  1.00  0.00    -0.258 C  
HETATM   26  C   UNL     1      -9.695  12.936  68.077  1.00  0.00    -0.224 C  
BRANCH  24  27
HETATM   27  C   UNL     1      -8.225  15.734  68.153  1.00  0.00    -0.141 C  
BRANCH  27  28
HETATM   28  C   UNL     1      -8.950  16.994  67.651  1.00  0.00    -0.221 C  
HETATM   29  O   UNL     1     -10.083  17.271  68.467  1.00  0.00    -0.298 OA 
HETATM   30  H   UNL     1     -10.530  18.050  68.156  1.00  0.00     0.000 HD 
ENDBRANCH  27  28
ENDBRANCH  24  27
ENDBRANCH  20  21
ENDBRANCH  19  20
ENDBRANCH  18  19
ENDBRANCH  12  18
ENDBRANCH   2   4
TORSDOF 7
ENDMDL
MODEL      101
REMARK 921   NORMALIZED FREE ENERGY PREDICTED BY IDOCK:   -4.84 KCAL/MOL
REMARK 922        TOTAL FREE ENERGY PREDICTED BY IDOCK:   -7.58 KCAL/MOL
REMARK 923 INTER-LIGAND FREE ENERGY PREDICTED BY IDOCK:   -6.88 KCAL/MOL
REMARK 924 INTRA-LIGAND FREE ENERGY PREDICTED BY IDOCK:   -0.70 KCAL/MOL
REMARK 927      BINDING AFFINITY PREDICTED BY RF-SCORE:    0.00 PKD
ROOT
HETATM    1  C   UNL     1     -12.076  11.069  69.227  1.00  0.00    -0.363 C  
HETATM    2  C   UNL     1     -12.302  12.105  70.295  1.00  0.00    -0.191 C  
HETATM    3  O   UNL     1     -12.861  11.821  71.353  1.00  0.00    -0.404 OA 
ENDROOT
BRANCH   2   4
HETATM    4  C   UNL     1     -11.831  13.498  70.050  1.00  0.00    -0.371 A  
HETATM    5  C   UNL     1     -12.285  14.572  70.805  1.00  0.00    -0.403 A  
HETATM    6  C   UNL     1     -11.800  15.844  70.531  1.00  0.00    -0.374 A  
HETATM    7  C   UNL     1     -10.866  16.071  69.509  1.00  0.00    -0.317 A  
HETATM    8  S   UNL     1     -10.369  17.760  69.320  1.00  0.00     0.136 SA 
HETATM    9  C   UNL     1      -9.220  17.681  67.975  1.00  0.00    -0.271 A  
HETATM   10  C   UNL     1      -8.871  16.488  67.301  1.00  0.00    -0.192 A  
HETATM   11  C   UNL     1      -7.930  16.641  66.257  1.00  0.00    -0.340 A  
HETATM   12  N   UNL     1      -9.445  15.229  67.660  1.00  0.00    -0.204 NA 
HETATM   13  C   UNL     1     -10.386  15.011  68.713  1.00  0.00    -0.240 A  
HETATM   14  C   UNL     1      -7.381  17.882  65.893  1.00  0.00    -0.247 A  
HETATM   15  C   UNL     1     -10.896  13.728  69.024  1.00  0.00    -0.247 A  
HETATM   16  C   UNL     1      -8.667  18.924  67.605  1.00  0.00    -0.312 A  
HETATM   17  C   UNL     1      -7.753  19.029  66.568  1.00  0.00    -0.272 A  
BRANCH  12  18
HETATM   18  C   UNL     1      -9.073  14.034  66.865  1.00  0.00    -0.248 C  
BRANCH  18  19
HETATM   19  C   UNL     1     -10.152  13.699  65.823  1.00  0.00    -0.311 C  
BRANCH  19  20
HETATM   20  C   UNL     1     -10.241  12.188  65.568  1.00  0.00    -0.265 C  
BRANCH  20  21
HETATM   21  N   UNL     1      -9.069  11.457  66.082  1.00  0.00    -0.204 NA 
HETATM   22  C   UNL     1      -9.432  10.462  67.108  1.00  0.00    -0.159 C  
HETATM   23  C   UNL     1     -10.185   9.246  66.540  1.00  0.00    -0.246 C  
HETATM   24  N   UNL     1      -9.402   8.502  65.534  1.00  0.00    -0.057 NA 
HETATM   25  C   UNL     1      -8.979   9.462  64.479  1.00  0.00    -0.181 C  
HETATM   26  C   UNL     1      -8.332  10.779  64.993  1.00  0.00    -0.046 C  
BRANCH  24  27
HETATM   27  C   UNL     1      -8.218   7.831  66.128  1.00  0.00    -0.123 C  
BRANCH  27  28
HETATM   28  C   UNL     1      -8.294   6.297  66.051  1.00  0.00    -0.138 C  
HETATM   29  O   UNL     1      -8.592   5.882  64.722  1.00  0.00    -0.287 OA 
HETATM   30  H   UNL     1      -8.639   4.934  64.675  1.00  0.00     0.000 HD 
ENDBRANCH  27  28
ENDBRANCH  24  27
ENDBRANCH  20  21
ENDBRANCH  19  20
ENDBRANCH  18  19
ENDBRANCH  12  18
ENDBRANCH   2   4
TORSDOF 7
ENDMDL
MODEL      102
REMARK 921   NORMALIZED FREE ENERGY PREDICTED BY IDOCK:   -4.84 KCAL/MOL
REMARK 922        TOTAL FREE ENERGY PREDICTED BY IDOCK:   -7.58 KCAL/MOL
REMARK 923 INTER-LIGAND FREE ENERGY PREDICTED BY IDOCK:   -6.66 KCAL/MOL
REMARK 924 INTRA-LIGAND FREE ENERGY PREDICTED BY IDOCK:   -0.92 KCAL/MOL
REMARK 927      BINDING AFFINITY PREDICTED BY RF-SCORE:    0.00 PKD
ROOT
HETATM    1  C   UNL     1     -10.671   4.911  66.013  1.00  0.00    -0.247 C  
HETATM    2  C   UNL     1      -9.270   4.731  65.496  1.00  0.00    -0.154 C  
HETATM    3  O   UNL     1      -8.887   3.651  65.050  1.00  0.00    -0.116 OA 
ENDROOT
BRANCH   2   4
HETATM    4  C   UNL     1      -8.341   5.896  65.529  1.00  0.00    -0.145 A  
HETATM    5  C   UNL     1      -7.176   5.930  64.774  1.00  0.00    -0.063 A  
HETATM    6  C   UNL     1      -6.356   7.049  64.845  1.00  0.00    -0.037 A  
HETATM    7  C   UNL     1      -6.675   8.144  65.662  1.00  0.00    -0.055 A  
HETATM    8  S   UNL     1      -5.507   9.474  65.610  1.00  0.00    -0.045 SA 
HETATM    9  C   UNL     1      -6.205  10.652  66.733  1.00  0.00    -0.076 A  
HETATM   10  C   UNL     1      -7.415  10.453  67.438  1.00  0.00    -0.094 A  
HETATM   11  C   UNL     1      -7.800  11.519  68.282  1.00  0.00    -0.138 A  
HETATM   12  N   UNL     1      -8.174   9.249  67.299  1.00  0.00    -0.120 NA 
HETATM   13  C   UNL     1      -7.843   8.147  66.451  1.00  0.00    -0.093 A  
HETATM   14  C   UNL     1      -7.043  12.693  68.432  1.00  0.00    -0.101 A  
HETATM   15  C   UNL     1      -8.658   6.994  66.350  1.00  0.00    -0.136 A  
HETATM   16  C   UNL     1      -5.448  11.831  66.888  1.00  0.00    -0.122 A  
HETATM   17  C   UNL     1      -5.860  12.849  67.735  1.00  0.00    -0.139 A  
BRANCH  12  18
HETATM   18  C   UNL     1      -9.399   9.093  68.118  1.00  0.00    -0.138 C  
BRANCH  18  19
HETATM   19  C   UNL     1     -10.646   9.558  67.351  1.00  0.00    -0.337 C  
BRANCH  19  20
HETATM   20  C   UNL     1     -11.185  10.887  67.901  1.00  0.00    -0.321 C  
BRANCH  20  21
HETATM   21  N   UNL     1     -11.829  11.710  66.864  1.00  0.00    -0.547 NA 
HETATM   22  C   UNL     1     -11.959  13.124  67.265  1.00  0.00    -0.335 C  
HETATM   23  C   UNL     1     -10.615  13.873  67.300  1.00  0.00    -0.276 C  
HETATM   24  N   UNL     1      -9.936  13.900  65.989  1.00  0.00    -0.307 NA 
HETATM   25  C   UNL     1      -9.801  12.497  65.513  1.00  0.00    -0.183 C  
HETATM   26  C   UNL     1     -11.096  11.640  65.581  1.00  0.00    -0.249 C  
BRANCH  24  27
HETATM   27  C   UNL     1     -10.673  14.716  64.992  1.00  0.00    -0.430 C  
BRANCH  27  28
HETATM   28  C   UNL     1     -10.665  16.219  65.320  1.00  0.00    -0.332 C  
HETATM   29  O   UNL     1     -11.243  16.961  64.251  1.00  0.00    -1.325 OA 
HETATM   30  H   UNL     1     -11.237  17.890  64.453  1.00  0.00     0.000 HD 
ENDBRANCH  27  28
ENDBRANCH  24  27
ENDBRANCH  20  21
ENDBRANCH  19  20
ENDBRANCH  18  19
ENDBRANCH  12  18
ENDBRANCH   2   4
TORSDOF 7
ENDMDL
MODEL      103
REMARK 921   NORMALIZED FREE ENERGY PREDICTED BY IDOCK:   -4.80 KCAL/MOL
REMARK 922        TOTAL FREE ENERGY PREDICTED BY IDOCK:   -7.52 KCAL/MOL
REMARK 923 INTER-LIGAND FREE ENERGY PREDICTED BY IDOCK:   -7.01 KCAL/MOL
REMARK 924 INTRA-LIGAND FREE ENERGY PREDICTED BY IDOCK:   -0.51 KCAL/MOL
REMARK 927      BINDING AFFINITY PREDICTED BY RF-SCORE:    0.00 PKD
ROOT
HETATM    1  C   UNL     1      -8.369   5.633  66.496  1.00  0.00    -0.110 C  
HETATM    2  C   UNL     1      -7.732   6.995  66.535  1.00  0.00    -0.104 C  
HETATM    3  O   UNL     1      -6.745   7.219  67.235  1.00  0.00    -0.063 OA 
ENDROOT
BRANCH   2   4
HETATM    4  C   UNL     1      -8.317   8.083  65.701  1.00  0.00    -0.146 A  
HETATM    5  C   UNL     1      -8.033   8.206  64.348  1.00  0.00    -0.145 A  
HETATM    6  C   UNL     1      -8.617   9.238  63.625  1.00  0.00    -0.208 A  
HETATM    7  C   UNL     1      -9.484  10.160  64.230  1.00  0.00    -0.305 A  
HETATM    8  S   UNL     1     -10.129  11.399  63.140  1.00  0.00    -0.323 SA 
HETATM    9  C   UNL     1     -11.153  12.368  64.211  1.00  0.00    -0.349 A  
HETATM   10  C   UNL     1     -11.328  12.106  65.589  1.00  0.00    -0.347 A  
HETATM   11  C   UNL     1     -12.192  12.997  66.265  1.00  0.00    -0.390 A  
HETATM   12  N   UNL     1     -10.663  11.018  66.236  1.00  0.00    -0.244 NA 
HETATM   13  C   UNL     1      -9.792  10.077  65.603  1.00  0.00    -0.295 A  
HETATM   14  C   UNL     1     -12.830  14.077  65.632  1.00  0.00    -0.442 A  
HETATM   15  C   UNL     1      -9.185   9.010  66.306  1.00  0.00    -0.258 A  
HETATM   16  C   UNL     1     -11.794  13.454  63.581  1.00  0.00    -0.451 A  
HETATM   17  C   UNL     1     -12.628  14.309  64.285  1.00  0.00    -0.154 A  
BRANCH  12  18
HETATM   18  C   UNL     1     -10.851  10.847  67.696  1.00  0.00    -0.266 C  
BRANCH  18  19
HETATM   19  C   UNL     1      -9.736  11.548  68.488  1.00  0.00    -0.191 C  
BRANCH  19  20
HETATM   20  C   UNL     1      -9.923  13.072  68.497  1.00  0.00    -0.172 C  
BRANCH  20  21
HETATM   21  N   UNL     1      -8.808  13.784  67.850  1.00  0.00    -0.176 NA 
HETATM   22  C   UNL     1      -9.269  14.757  66.842  1.00  0.00    -0.245 C  
HETATM   23  C   UNL     1      -9.956  15.991  67.454  1.00  0.00    -0.241 C  
HETATM   24  N   UNL     1      -9.072  16.753  68.358  1.00  0.00    -0.225 NA 
HETATM   25  C   UNL     1      -8.547  15.816  69.387  1.00  0.00    -0.225 C  
HETATM   26  C   UNL     1      -7.961  14.483  68.841  1.00  0.00    -0.126 C  
BRANCH  24  27
HETATM   27  C   UNL     1      -7.952  17.403  67.631  1.00  0.00    -0.193 C  
BRANCH  27  28
HETATM   28  C   UNL     1      -8.167  18.911  67.419  1.00  0.00    -0.270 C  
HETATM   29  O   UNL     1      -8.823  19.480  68.547  1.00  0.00    -0.350 OA 
HETATM   30  H   UNL     1      -8.955  20.412  68.416  1.00  0.00     0.000 HD 
ENDBRANCH  27  28
ENDBRANCH  24  27
ENDBRANCH  20  21
ENDBRANCH  19  20
ENDBRANCH  18  19
ENDBRANCH  12  18
ENDBRANCH   2   4
TORSDOF 7
ENDMDL
MODEL      104
REMARK 921   NORMALIZED FREE ENERGY PREDICTED BY IDOCK:   -4.79 KCAL/MOL
REMARK 922        TOTAL FREE ENERGY PREDICTED BY IDOCK:   -7.50 KCAL/MOL
REMARK 923 INTER-LIGAND FREE ENERGY PREDICTED BY IDOCK:   -6.60 KCAL/MOL
REMARK 924 INTRA-LIGAND FREE ENERGY PREDICTED BY IDOCK:   -0.90 KCAL/MOL
REMARK 927      BINDING AFFINITY PREDICTED BY RF-SCORE:    0.00 PKD
ROOT
HETATM    1  C   UNL     1      -6.582  14.574  68.881  1.00  0.00    -0.095 C  
HETATM    2  C   UNL     1      -6.394  13.215  68.264  1.00  0.00    -0.096 C  
HETATM    3  O   UNL     1      -6.006  13.087  67.104  1.00  0.00    -0.326 OA 
ENDROOT
BRANCH   2   4
HETATM    4  C   UNL     1      -6.686  12.009  69.090  1.00  0.00    -0.101 A  
HETATM    5  C   UNL     1      -5.919  11.672  70.197  1.00  0.00    -0.161 A  
HETATM    6  C   UNL     1      -6.248  10.539  70.930  1.00  0.00     0.061 A  
HETATM    7  C   UNL     1      -7.334   9.725  70.575  1.00  0.00    -0.112 A  
HETATM    8  S   UNL     1      -7.593   8.330  71.636  1.00  0.00    -0.103 SA 
HETATM    9  C   UNL     1      -9.004   7.543  70.910  1.00  0.00    -0.149 A  
HETATM   10  C   UNL     1      -9.671   8.021  69.758  1.00  0.00    -0.176 A  
HETATM   11  C   UNL     1     -10.780   7.248  69.344  1.00  0.00    -0.236 A  
HETATM   12  N   UNL     1      -9.235   9.197  69.073  1.00  0.00    -0.142 NA 
HETATM   13  C   UNL     1      -8.134  10.025  69.454  1.00  0.00    -0.149 A  
HETATM   14  C   UNL     1     -11.195   6.082  70.007  1.00  0.00    -0.425 A  
HETATM   15  C   UNL     1      -7.774  11.190  68.735  1.00  0.00    -0.136 A  
HETATM   16  C   UNL     1      -9.424   6.371  71.572  1.00  0.00    -0.162 A  
HETATM   17  C   UNL     1     -10.513   5.639  71.125  1.00  0.00    -0.306 A  
BRANCH  12  18
HETATM   18  C   UNL     1      -9.951   9.597  67.838  1.00  0.00    -0.166 C  
BRANCH  18  19
HETATM   19  C   UNL     1     -11.129  10.531  68.155  1.00  0.00    -0.346 C  
BRANCH  19  20
HETATM   20  C   UNL     1     -11.171  11.732  67.199  1.00  0.00    -0.316 C  
BRANCH  20  21
HETATM   21  N   UNL     1     -11.956  12.857  67.737  1.00  0.00    -0.329 NA 
HETATM   22  C   UNL     1     -11.388  13.394  68.988  1.00  0.00    -0.287 C  
HETATM   23  C   UNL     1     -10.069  14.159  68.779  1.00  0.00    -0.198 C  
HETATM   24  N   UNL     1     -10.214  15.325  67.885  1.00  0.00    -0.233 NA 
HETATM   25  C   UNL     1     -10.814  14.852  66.608  1.00  0.00    -0.319 C  
HETATM   26  C   UNL     1     -12.076  13.955  66.753  1.00  0.00    -0.439 C  
BRANCH  24  27
HETATM   27  C   UNL     1     -11.053  16.392  68.486  1.00  0.00    -0.357 C  
BRANCH  27  28
HETATM   28  C   UNL     1     -10.388  17.778  68.438  1.00  0.00    -0.376 C  
HETATM   29  O   UNL     1     -10.774  18.471  67.256  1.00  0.00    -0.419 OA 
HETATM   30  H   UNL     1     -10.363  19.327  67.226  1.00  0.00     0.000 HD 
ENDBRANCH  27  28
ENDBRANCH  24  27
ENDBRANCH  20  21
ENDBRANCH  19  20
ENDBRANCH  18  19
ENDBRANCH  12  18
ENDBRANCH   2   4
TORSDOF 7
ENDMDL
MODEL      105
REMARK 921   NORMALIZED FREE ENERGY PREDICTED BY IDOCK:   -4.73 KCAL/MOL
REMARK 922        TOTAL FREE ENERGY PREDICTED BY IDOCK:   -7.42 KCAL/MOL
REMARK 923 INTER-LIGAND FREE ENERGY PREDICTED BY IDOCK:   -6.90 KCAL/MOL
REMARK 924 INTRA-LIGAND FREE ENERGY PREDICTED BY IDOCK:   -0.53 KCAL/MOL
REMARK 927      BINDING AFFINITY PREDICTED BY RF-SCORE:    0.00 PKD
ROOT
HETATM    1  C   UNL     1     -12.394  14.629  64.133  1.00  0.00    -0.294 C  
HETATM    2  C   UNL     1     -11.553  13.409  64.393  1.00  0.00    -0.384 C  
HETATM    3  O   UNL     1     -11.755  12.354  63.794  1.00  0.00    -0.397 OA 
ENDROOT
BRANCH   2   4
HETATM    4  C   UNL     1     -10.454  13.499  65.396  1.00  0.00    -0.322 A  
HETATM    5  C   UNL     1      -9.907  14.717  65.779  1.00  0.00    -0.359 A  
HETATM    6  C   UNL     1      -8.889  14.733  66.725  1.00  0.00    -0.281 A  
HETATM    7  C   UNL     1      -8.398  13.550  67.297  1.00  0.00    -0.179 A  
HETATM    8  S   UNL     1      -7.104  13.781  68.484  1.00  0.00    -0.114 SA 
HETATM    9  C   UNL     1      -6.733  12.123  68.985  1.00  0.00    -0.103 A  
HETATM   10  C   UNL     1      -7.390  10.978  68.480  1.00  0.00    -0.101 A  
HETATM   11  C   UNL     1      -6.947   9.747  69.015  1.00  0.00    -0.058 A  
HETATM   12  N   UNL     1      -8.420  11.078  67.494  1.00  0.00    -0.126 NA 
HETATM   13  C   UNL     1      -8.919  12.293  66.929  1.00  0.00    -0.207 A  
HETATM   14  C   UNL     1      -5.921   9.649  69.970  1.00  0.00    -0.043 A  
HETATM   15  C   UNL     1      -9.959  12.314  65.969  1.00  0.00    -0.270 A  
HETATM   16  C   UNL     1      -5.703  12.020  69.942  1.00  0.00    -0.126 A  
HETATM   17  C   UNL     1      -5.294  10.789  70.434  1.00  0.00    -0.074 A  
BRANCH  12  18
HETATM   18  C   UNL     1      -9.017   9.826  66.971  1.00  0.00    -0.138 C  
BRANCH  18  19
HETATM   19  C   UNL     1     -10.425   9.599  67.543  1.00  0.00    -0.321 C  
BRANCH  19  20
HETATM   20  C   UNL     1     -10.376   8.860  68.888  1.00  0.00    -0.212 C  
BRANCH  20  21
HETATM   21  N   UNL     1     -10.348   9.779  70.039  1.00  0.00    -0.245 NA 
HETATM   22  C   UNL     1     -11.047  11.048  69.764  1.00  0.00    -0.235 C  
HETATM   23  C   UNL     1     -12.576  10.895  69.676  1.00  0.00    -0.007 C  
HETATM   24  N   UNL     1     -13.176  10.380  70.922  1.00  0.00    -0.334 NA 
HETATM   25  C   UNL     1     -12.489   9.107  71.272  1.00  0.00    -0.300 C  
HETATM   26  C   UNL     1     -10.935   9.157  71.245  1.00  0.00    -0.330 C  
BRANCH  24  27
HETATM   27  C   UNL     1     -13.067  11.351  72.041  1.00  0.00    -0.318 C  
BRANCH  27  28
HETATM   28  C   UNL     1     -13.333  12.802  71.606  1.00  0.00    -0.254 C  
HETATM   29  O   UNL     1     -14.044  13.500  72.623  1.00  0.00    -0.762 OA 
HETATM   30  H   UNL     1     -14.208  14.397  72.354  1.00  0.00     0.000 HD 
ENDBRANCH  27  28
ENDBRANCH  24  27
ENDBRANCH  20  21
ENDBRANCH  19  20
ENDBRANCH  18  19
ENDBRANCH  12  18
ENDBRANCH   2   4
TORSDOF 7
ENDMDL
MODEL      106
REMARK 921   NORMALIZED FREE ENERGY PREDICTED BY IDOCK:   -4.73 KCAL/MOL
REMARK 922        TOTAL FREE ENERGY PREDICTED BY IDOCK:   -7.42 KCAL/MOL
REMARK 923 INTER-LIGAND FREE ENERGY PREDICTED BY IDOCK:   -6.62 KCAL/MOL
REMARK 924 INTRA-LIGAND FREE ENERGY PREDICTED BY IDOCK:   -0.80 KCAL/MOL
REMARK 927      BINDING AFFINITY PREDICTED BY RF-SCORE:    0.00 PKD
ROOT
HETATM    1  C   UNL     1     -10.924  12.153  63.987  1.00  0.00    -0.438 C  
HETATM    2  C   UNL     1     -11.340  12.844  65.258  1.00  0.00    -0.300 C  
HETATM    3  O   UNL     1     -12.089  12.297  66.066  1.00  0.00    -0.623 OA 
ENDROOT
BRANCH   2   4
HETATM    4  C   UNL     1     -10.823  14.215  65.528  1.00  0.00    -0.312 A  
HETATM    5  C   UNL     1     -11.285  15.326  64.835  1.00  0.00    -0.422 A  
HETATM    6  C   UNL     1     -10.767  16.578  65.140  1.00  0.00    -0.261 A  
HETATM    7  C   UNL     1      -9.785  16.746  66.128  1.00  0.00    -0.291 A  
HETATM    8  S   UNL     1      -9.256  18.419  66.372  1.00  0.00    -0.229 SA 
HETATM    9  C   UNL     1      -8.044  18.263  67.653  1.00  0.00    -0.245 A  
HETATM   10  C   UNL     1      -7.680  17.036  68.253  1.00  0.00    -0.209 A  
HETATM   11  C   UNL     1      -6.694  17.130  69.262  1.00  0.00    -0.228 A  
HETATM   12  N   UNL     1      -8.272  15.799  67.849  1.00  0.00    -0.143 NA 
HETATM   13  C   UNL     1      -9.282  15.644  66.849  1.00  0.00    -0.236 A  
HETATM   14  C   UNL     1      -6.099  18.344  69.644  1.00  0.00    -0.255 A  
HETATM   15  C   UNL     1      -9.837  14.385  66.517  1.00  0.00    -0.298 A  
HETATM   16  C   UNL     1      -7.443  19.479  68.040  1.00  0.00    -0.321 A  
HETATM   17  C   UNL     1      -6.473  19.523  69.029  1.00  0.00    -0.342 A  
BRANCH  12  18
HETATM   18  C   UNL     1      -7.792  14.549  68.485  1.00  0.00    -0.136 C  
BRANCH  18  19
HETATM   19  C   UNL     1      -6.493  14.053  67.831  1.00  0.00    -0.170 C  
BRANCH  19  20
HETATM   20  C   UNL     1      -6.380  12.523  67.888  1.00  0.00    -0.103 C  
BRANCH  20  21
HETATM   21  N   UNL     1      -6.780  11.878  66.626  1.00  0.00     0.001 NA 
HETATM   22  C   UNL     1      -5.762  10.936  66.126  1.00  0.00    -0.142 C  
HETATM   23  C   UNL     1      -5.649   9.654  66.972  1.00  0.00    -0.047 C  
HETATM   24  N   UNL     1      -6.906   8.882  67.018  1.00  0.00    -0.073 NA 
HETATM   25  C   UNL     1      -7.986   9.790  67.489  1.00  0.00    -0.106 C  
HETATM   26  C   UNL     1      -8.069  11.164  66.766  1.00  0.00    -0.155 C  
BRANCH  24  27
HETATM   27  C   UNL     1      -7.257   8.302  65.697  1.00  0.00    -0.071 C  
BRANCH  27  28
HETATM   28  C   UNL     1      -8.752   7.969  65.564  1.00  0.00    -0.102 C  
HETATM   29  O   UNL     1      -8.926   6.594  65.240  1.00  0.00    -0.364 OA 
HETATM   30  H   UNL     1      -9.850   6.388  65.157  1.00  0.00     0.000 HD 
ENDBRANCH  27  28
ENDBRANCH  24  27
ENDBRANCH  20  21
ENDBRANCH  19  20
ENDBRANCH  18  19
ENDBRANCH  12  18
ENDBRANCH   2   4
TORSDOF 7
ENDMDL
MODEL      107
REMARK 921   NORMALIZED FREE ENERGY PREDICTED BY IDOCK:   -4.71 KCAL/MOL
REMARK 922        TOTAL FREE ENERGY PREDICTED BY IDOCK:   -7.39 KCAL/MOL
REMARK 923 INTER-LIGAND FREE ENERGY PREDICTED BY IDOCK:   -6.68 KCAL/MOL
REMARK 924 INTRA-LIGAND FREE ENERGY PREDICTED BY IDOCK:   -0.70 KCAL/MOL
REMARK 927      BINDING AFFINITY PREDICTED BY RF-SCORE:    0.00 PKD
ROOT
HETATM    1  C   UNL     1     -12.371  14.281  70.087  1.00  0.00    -0.413 C  
HETATM    2  C   UNL     1     -11.950  14.724  68.713  1.00  0.00    -0.257 C  
HETATM    3  O   UNL     1     -12.004  15.906  68.377  1.00  0.00    -0.251 OA 
ENDROOT
BRANCH   2   4
HETATM    4  C   UNL     1     -11.456  13.697  67.752  1.00  0.00    -0.351 A  
HETATM    5  C   UNL     1     -11.619  13.835  66.379  1.00  0.00    -0.380 A  
HETATM    6  C   UNL     1     -11.129  12.846  65.537  1.00  0.00    -0.306 A  
HETATM    7  C   UNL     1     -10.477  11.710  66.039  1.00  0.00    -0.251 A  
HETATM    8  S   UNL     1      -9.922  10.567  64.805  1.00  0.00    -0.342 SA 
HETATM    9  C   UNL     1      -9.169   9.286  65.768  1.00  0.00    -0.224 A  
HETATM   10  C   UNL     1      -9.095   9.297  67.180  1.00  0.00    -0.130 A  
HETATM   11  C   UNL     1      -8.447   8.181  67.757  1.00  0.00    -0.132 A  
HETATM   12  N   UNL     1      -9.649  10.367  67.951  1.00  0.00    -0.142 NA 
HETATM   13  C   UNL     1     -10.299  11.526  67.425  1.00  0.00    -0.207 A  
HETATM   14  C   UNL     1      -7.922   7.121  66.998  1.00  0.00    -0.113 A  
HETATM   15  C   UNL     1     -10.804  12.556  68.253  1.00  0.00    -0.258 A  
HETATM   16  C   UNL     1      -8.641   8.220  65.012  1.00  0.00    -0.102 A  
HETATM   17  C   UNL     1      -8.020   7.139  65.620  1.00  0.00    -0.126 A  
BRANCH  12  18
HETATM   18  C   UNL     1      -9.584  10.274  69.429  1.00  0.00    -0.218 C  
BRANCH  18  19
HETATM   19  C   UNL     1     -10.918   9.789  70.017  1.00  0.00    -0.319 C  
BRANCH  19  20
HETATM   20  C   UNL     1     -10.737   9.216  71.430  1.00  0.00    -0.343 C  
BRANCH  20  21
HETATM   21  N   UNL     1     -11.496   7.971  71.638  1.00  0.00    -0.257 NA 
HETATM   22  C   UNL     1     -11.077   6.895  70.720  1.00  0.00    -0.275 C  
HETATM   23  C   UNL     1      -9.682   6.328  71.042  1.00  0.00    -0.176 C  
HETATM   24  N   UNL     1      -9.596   5.743  72.394  1.00  0.00    -0.149 NA 
HETATM   25  C   UNL     1     -10.037   6.775  73.371  1.00  0.00    -0.240 C  
HETATM   26  C   UNL     1     -11.377   7.488  73.031  1.00  0.00    -0.263 C  
BRANCH  24  27
HETATM   27  C   UNL     1     -10.423   4.517  72.529  1.00  0.00    -0.186 C  
BRANCH  27  28
HETATM   28  C   UNL     1      -9.584   3.229  72.586  1.00  0.00    -0.123 C  
HETATM   29  O   UNL     1     -10.046   2.294  71.617  1.00  0.00    -0.151 OA 
HETATM   30  H   UNL     1      -9.528   1.499  71.652  1.00  0.00     0.000 HD 
ENDBRANCH  27  28
ENDBRANCH  24  27
ENDBRANCH  20  21
ENDBRANCH  19  20
ENDBRANCH  18  19
ENDBRANCH  12  18
ENDBRANCH   2   4
TORSDOF 7
ENDMDL
MODEL      108
REMARK 921   NORMALIZED FREE ENERGY PREDICTED BY IDOCK:   -4.71 KCAL/MOL
REMARK 922        TOTAL FREE ENERGY PREDICTED BY IDOCK:   -7.39 KCAL/MOL
REMARK 923 INTER-LIGAND FREE ENERGY PREDICTED BY IDOCK:   -6.57 KCAL/MOL
REMARK 924 INTRA-LIGAND FREE ENERGY PREDICTED BY IDOCK:   -0.82 KCAL/MOL
REMARK 927      BINDING AFFINITY PREDICTED BY RF-SCORE:    0.00 PKD
ROOT
HETATM    1  C   UNL     1      -5.158  16.467  71.100  1.00  0.00    -0.130 C  
HETATM    2  C   UNL     1      -6.089  16.629  69.930  1.00  0.00    -0.192 C  
HETATM    3  O   UNL     1      -6.423  17.743  69.528  1.00  0.00    -0.245 OA 
ENDROOT
BRANCH   2   4
HETATM    4  C   UNL     1      -6.605  15.406  69.252  1.00  0.00    -0.143 A  
HETATM    5  C   UNL     1      -6.214  14.130  69.639  1.00  0.00    -0.126 A  
HETATM    6  C   UNL     1      -6.738  13.031  68.972  1.00  0.00    -0.099 A  
HETATM    7  C   UNL     1      -7.648  13.177  67.914  1.00  0.00    -0.147 A  
HETATM    8  S   UNL     1      -8.202  11.656  67.196  1.00  0.00    -0.171 SA 
HETATM    9  C   UNL     1      -9.306  12.204  65.924  1.00  0.00    -0.130 A  
HETATM   10  C   UNL     1      -9.589  13.563  65.653  1.00  0.00     0.010 A  
HETATM   11  C   UNL     1     -10.503  13.786  64.598  1.00  0.00    -0.433 A  
HETATM   12  N   UNL     1      -8.979  14.619  66.399  1.00  0.00    -0.212 NA 
HETATM   13  C   UNL     1      -8.064  14.454  67.483  1.00  0.00    -0.190 A  
HETATM   14  C   UNL     1     -11.086  12.747  63.853  1.00  0.00    -0.477 A  
HETATM   15  C   UNL     1      -7.516  15.551  68.190  1.00  0.00    -0.119 A  
HETATM   16  C   UNL     1      -9.893  11.165  65.173  1.00  0.00    -0.307 A  
HETATM   17  C   UNL     1     -10.779  11.431  64.140  1.00  0.00    -0.434 A  
BRANCH  12  18
HETATM   18  C   UNL     1      -9.282  16.017  66.013  1.00  0.00    -0.340 C  
BRANCH  18  19
HETATM   19  C   UNL     1     -10.638  16.470  66.577  1.00  0.00    -0.217 C  
BRANCH  19  20
HETATM   20  C   UNL     1     -10.696  16.314  68.103  1.00  0.00    -0.322 C  
BRANCH  20  21
HETATM   21  N   UNL     1     -11.994  15.798  68.571  1.00  0.00    -0.228 NA 
HETATM   22  C   UNL     1     -12.202  14.383  68.211  1.00  0.00    -0.125 C  
HETATM   23  C   UNL     1     -11.311  13.414  69.007  1.00  0.00    -0.287 C  
HETATM   24  N   UNL     1     -11.542  13.484  70.464  1.00  0.00    -0.048 NA 
HETATM   25  C   UNL     1     -11.374  14.900  70.888  1.00  0.00    -0.216 C  
HETATM   26  C   UNL     1     -12.143  15.949  70.035  1.00  0.00    -0.244 C  
BRANCH  24  27
HETATM   27  C   UNL     1     -12.888  12.986  70.844  1.00  0.00    -0.143 C  
BRANCH  27  28
HETATM   28  C   UNL     1     -12.903  11.483  71.169  1.00  0.00    -0.315 C  
HETATM   29  O   UNL     1     -13.592  11.248  72.392  1.00  0.00    -0.536 OA 
HETATM   30  H   UNL     1     -13.601  10.320  72.593  1.00  0.00     0.000 HD 
ENDBRANCH  27  28
ENDBRANCH  24  27
ENDBRANCH  20  21
ENDBRANCH  19  20
ENDBRANCH  18  19
ENDBRANCH  12  18
ENDBRANCH   2   4
TORSDOF 7
ENDMDL
MODEL      109
REMARK 921   NORMALIZED FREE ENERGY PREDICTED BY IDOCK:   -4.71 KCAL/MOL
REMARK 922        TOTAL FREE ENERGY PREDICTED BY IDOCK:   -7.39 KCAL/MOL
REMARK 923 INTER-LIGAND FREE ENERGY PREDICTED BY IDOCK:   -6.74 KCAL/MOL
REMARK 924 INTRA-LIGAND FREE ENERGY PREDICTED BY IDOCK:   -0.65 KCAL/MOL
REMARK 927      BINDING AFFINITY PREDICTED BY RF-SCORE:    0.00 PKD
ROOT
HETATM    1  C   UNL     1      -7.151  19.267  68.881  1.00  0.00    -0.385 C  
HETATM    2  C   UNL     1      -7.378  17.781  68.801  1.00  0.00    -0.271 C  
HETATM    3  O   UNL     1      -6.781  17.003  69.543  1.00  0.00    -0.235 OA 
ENDROOT
BRANCH   2   4
HETATM    4  C   UNL     1      -8.351  17.260  67.799  1.00  0.00    -0.212 A  
HETATM    5  C   UNL     1      -9.215  18.099  67.108  1.00  0.00    -0.256 A  
HETATM    6  C   UNL     1     -10.093  17.551  66.182  1.00  0.00    -0.317 A  
HETATM    7  C   UNL     1     -10.130  16.171  65.931  1.00  0.00    -0.354 A  
HETATM    8  S   UNL     1     -11.314  15.670  64.713  1.00  0.00    -0.264 SA 
HETATM    9  C   UNL     1     -11.095  13.914  64.654  1.00  0.00    -0.385 A  
HETATM   10  C   UNL     1     -10.161  13.206  65.445  1.00  0.00    -0.290 A  
HETATM   11  C   UNL     1     -10.141  11.807  65.243  1.00  0.00    -0.300 A  
HETATM   12  N   UNL     1      -9.312  13.874  66.381  1.00  0.00    -0.245 NA 
HETATM   13  C   UNL     1      -9.276  15.284  66.617  1.00  0.00    -0.274 A  
HETATM   14  C   UNL     1     -10.990  11.149  64.336  1.00  0.00    -0.270 A  
HETATM   15  C   UNL     1      -8.391  15.877  67.547  1.00  0.00    -0.180 A  
HETATM   16  C   UNL     1     -11.946  13.249  63.747  1.00  0.00    -0.551 A  
HETATM   17  C   UNL     1     -11.898  11.872  63.587  1.00  0.00    -0.573 A  
BRANCH  12  18
HETATM   18  C   UNL     1      -8.403  13.054  67.216  1.00  0.00    -0.185 C  
BRANCH  18  19
HETATM   19  C   UNL     1      -9.140  12.460  68.426  1.00  0.00    -0.141 C  
BRANCH  19  20
HETATM   20  C   UNL     1      -8.895  10.949  68.551  1.00  0.00    -0.153 C  
BRANCH  20  21
HETATM   21  N   UNL     1      -8.719  10.517  69.948  1.00  0.00     0.154 NA 
HETATM   22  C   UNL     1      -9.900   9.804  70.470  1.00  0.00    -0.163 C  
HETATM   23  C   UNL     1     -10.087   8.404  69.857  1.00  0.00    -0.195 C  
HETATM   24  N   UNL     1      -8.944   7.506  70.112  1.00  0.00    -0.147 NA 
HETATM   25  C   UNL     1      -7.710   8.185  69.631  1.00  0.00    -0.101 C  
HETATM   26  C   UNL     1      -7.528   9.655  70.104  1.00  0.00    -0.153 C  
BRANCH  24  27
HETATM   27  C   UNL     1      -8.815   7.155  71.548  1.00  0.00    -0.127 C  
BRANCH  27  28
HETATM   28  C   UNL     1      -7.541   6.352  71.859  1.00  0.00    -0.095 C  
HETATM   29  O   UNL     1      -6.810   6.971  72.913  1.00  0.00    -0.068 OA 
HETATM   30  H   UNL     1      -6.023   6.475  73.105  1.00  0.00     0.000 HD 
ENDBRANCH  27  28
ENDBRANCH  24  27
ENDBRANCH  20  21
ENDBRANCH  19  20
ENDBRANCH  18  19
ENDBRANCH  12  18
ENDBRANCH   2   4
TORSDOF 7
ENDMDL
MODEL      110
REMARK 921   NORMALIZED FREE ENERGY PREDICTED BY IDOCK:   -4.70 KCAL/MOL
REMARK 922        TOTAL FREE ENERGY PREDICTED BY IDOCK:   -7.39 KCAL/MOL
REMARK 923 INTER-LIGAND FREE ENERGY PREDICTED BY IDOCK:   -6.63 KCAL/MOL
REMARK 924 INTRA-LIGAND FREE ENERGY PREDICTED BY IDOCK:   -0.75 KCAL/MOL
REMARK 927      BINDING AFFINITY PREDICTED BY RF-SCORE:    0.00 PKD
ROOT
HETATM    1  C   UNL     1     -13.396   8.932  72.700  1.00  0.00    -0.375 C  
HETATM    2  C   UNL     1     -12.059   8.920  72.010  1.00  0.00    -0.371 C  
HETATM    3  O   UNL     1     -11.117   8.263  72.451  1.00  0.00    -0.334 OA 
ENDROOT
BRANCH   2   4
HETATM    4  C   UNL     1     -11.891   9.721  70.764  1.00  0.00    -0.400 A  
HETATM    5  C   UNL     1     -12.461  10.979  70.616  1.00  0.00    -0.465 A  
HETATM    6  C   UNL     1     -12.260  11.678  69.433  1.00  0.00    -0.246 A  
HETATM    7  C   UNL     1     -11.500  11.142  68.383  1.00  0.00    -0.306 A  
HETATM    8  S   UNL     1     -11.358  12.188  66.961  1.00  0.00    -0.347 SA 
HETATM    9  C   UNL     1     -10.362  11.221  65.862  1.00  0.00    -0.253 A  
HETATM   10  C   UNL     1      -9.863   9.934  66.171  1.00  0.00    -0.260 A  
HETATM   11  C   UNL     1      -9.083   9.333  65.156  1.00  0.00    -0.263 A  
HETATM   12  N   UNL     1     -10.145   9.302  67.421  1.00  0.00    -0.206 NA 
HETATM   13  C   UNL     1     -10.911   9.866  68.488  1.00  0.00    -0.217 A  
HETATM   14  C   UNL     1      -8.824   9.948  63.920  1.00  0.00    -0.250 A  
HETATM   15  C   UNL     1     -11.130   9.185  69.710  1.00  0.00    -0.140 A  
HETATM   16  C   UNL     1     -10.099  11.833  64.619  1.00  0.00    -0.310 A  
HETATM   17  C   UNL     1      -9.336  11.203  63.649  1.00  0.00    -0.226 A  
BRANCH  12  18
HETATM   18  C   UNL     1      -9.636   7.928  67.644  1.00  0.00    -0.150 C  
BRANCH  18  19
HETATM   19  C   UNL     1     -10.589   6.877  67.054  1.00  0.00    -0.403 C  
BRANCH  19  20
HETATM   20  C   UNL     1     -10.177   5.453  67.453  1.00  0.00    -0.201 C  
BRANCH  20  21
HETATM   21  N   UNL     1      -8.836   5.092  66.961  1.00  0.00    -0.110 NA 
HETATM   22  C   UNL     1      -8.343   3.829  67.542  1.00  0.00    -0.094 C  
HETATM   23  C   UNL     1      -9.083   2.586  67.016  1.00  0.00    -0.132 C  
HETATM   24  N   UNL     1      -8.960   2.418  65.555  1.00  0.00    -0.127 NA 
HETATM   25  C   UNL     1      -9.417   3.677  64.907  1.00  0.00    -0.161 C  
HETATM   26  C   UNL     1      -8.809   4.986  65.486  1.00  0.00    -0.146 C  
BRANCH  24  27
HETATM   27  C   UNL     1      -7.571   2.098  65.142  1.00  0.00    -0.068 C  
BRANCH  27  28
HETATM   28  C   UNL     1      -7.390   2.062  63.615  1.00  0.00    -0.053 C  
HETATM   29  O   UNL     1      -6.374   2.976  63.216  1.00  0.00    -0.020 OA 
HETATM   30  H   UNL     1      -6.262   2.954  62.272  1.00  0.00     0.000 HD 
ENDBRANCH  27  28
ENDBRANCH  24  27
ENDBRANCH  20  21
ENDBRANCH  19  20
ENDBRANCH  18  19
ENDBRANCH  12  18
ENDBRANCH   2   4
TORSDOF 7
ENDMDL
MODEL      111
REMARK 921   NORMALIZED FREE ENERGY PREDICTED BY IDOCK:   -4.68 KCAL/MOL
REMARK 922        TOTAL FREE ENERGY PREDICTED BY IDOCK:   -7.36 KCAL/MOL
REMARK 923 INTER-LIGAND FREE ENERGY PREDICTED BY IDOCK:   -6.72 KCAL/MOL
REMARK 924 INTRA-LIGAND FREE ENERGY PREDICTED BY IDOCK:   -0.64 KCAL/MOL
REMARK 927      BINDING AFFINITY PREDICTED BY RF-SCORE:    0.00 PKD
ROOT
HETATM    1  C   UNL     1     -12.534  13.580  71.021  1.00  0.00    -0.451 C  
HETATM    2  C   UNL     1     -11.749  14.472  70.098  1.00  0.00    -0.297 C  
HETATM    3  O   UNL     1     -11.252  15.525  70.495  1.00  0.00    -0.286 OA 
ENDROOT
BRANCH   2   4
HETATM    4  C   UNL     1     -11.577  14.055  68.677  1.00  0.00    -0.360 A  
HETATM    5  C   UNL     1     -12.142  14.768  67.628  1.00  0.00    -0.138 A  
HETATM    6  C   UNL     1     -11.938  14.330  66.325  1.00  0.00    -0.428 A  
HETATM    7  C   UNL     1     -11.179  13.185  66.045  1.00  0.00    -0.292 A  
HETATM    8  S   UNL     1     -11.032  12.794  64.324  1.00  0.00    -0.407 SA 
HETATM    9  C   UNL     1     -10.039  11.328  64.339  1.00  0.00    -0.303 A  
HETATM   10  C   UNL     1      -9.545  10.718  65.516  1.00  0.00    -0.222 A  
HETATM   11  C   UNL     1      -8.767   9.556  65.309  1.00  0.00    -0.193 A  
HETATM   12  N   UNL     1      -9.830  11.250  66.812  1.00  0.00    -0.196 NA 
HETATM   13  C   UNL     1     -10.595  12.427  67.081  1.00  0.00    -0.224 A  
HETATM   14  C   UNL     1      -8.505   9.024  64.035  1.00  0.00    -0.175 A  
HETATM   15  C   UNL     1     -10.818  12.905  68.394  1.00  0.00    -0.276 A  
HETATM   16  C   UNL     1      -9.773  10.789  63.063  1.00  0.00    -0.374 A  
HETATM   17  C   UNL     1      -9.011   9.641  62.908  1.00  0.00    -0.260 A  
BRANCH  12  18
HETATM   18  C   UNL     1      -9.327  10.518  67.998  1.00  0.00    -0.145 C  
BRANCH  18  19
HETATM   19  C   UNL     1     -10.437   9.675  68.646  1.00  0.00    -0.235 C  
BRANCH  19  20
HETATM   20  C   UNL     1      -9.859   8.503  69.451  1.00  0.00    -0.185 C  
BRANCH  20  21
HETATM   21  N   UNL     1      -8.941   7.668  68.657  1.00  0.00    -0.133 NA 
HETATM   22  C   UNL     1      -8.206   6.693  69.484  1.00  0.00    -0.130 C  
HETATM   23  C   UNL     1      -9.093   5.554  70.017  1.00  0.00    -0.135 C  
HETATM   24  N   UNL     1      -9.718   4.759  68.941  1.00  0.00    -0.169 NA 
HETATM   25  C   UNL     1     -10.456   5.694  68.049  1.00  0.00    -0.200 C  
HETATM   26  C   UNL     1      -9.657   6.944  67.583  1.00  0.00    -0.126 C  
BRANCH  24  27
HETATM   27  C   UNL     1      -8.719   3.982  68.164  1.00  0.00    -0.101 C  
BRANCH  27  28
HETATM   28  C   UNL     1      -9.294   3.393  66.865  1.00  0.00    -0.175 C  
HETATM   29  O   UNL     1      -8.626   2.180  66.535  1.00  0.00    -0.100 OA 
HETATM   30  H   UNL     1      -8.980   1.816  65.732  1.00  0.00     0.000 HD 
ENDBRANCH  27  28
ENDBRANCH  24  27
ENDBRANCH  20  21
ENDBRANCH  19  20
ENDBRANCH  18  19
ENDBRANCH  12  18
ENDBRANCH   2   4
TORSDOF 7
ENDMDL
MODEL      112
REMARK 921   NORMALIZED FREE ENERGY PREDICTED BY IDOCK:   -4.64 KCAL/MOL
REMARK 922        TOTAL FREE ENERGY PREDICTED BY IDOCK:   -7.30 KCAL/MOL
REMARK 923 INTER-LIGAND FREE ENERGY PREDICTED BY IDOCK:   -6.40 KCAL/MOL
REMARK 924 INTRA-LIGAND FREE ENERGY PREDICTED BY IDOCK:   -0.90 KCAL/MOL
REMARK 927      BINDING AFFINITY PREDICTED BY RF-SCORE:    0.00 PKD
ROOT
HETATM    1  C   UNL     1     -11.714  15.667  69.291  1.00  0.00    -0.388 C  
HETATM    2  C   UNL     1     -11.992  14.202  69.088  1.00  0.00    -0.349 C  
HETATM    3  O   UNL     1     -12.397  13.495  70.009  1.00  0.00    -0.307 OA 
ENDROOT
BRANCH   2   4
HETATM    4  C   UNL     1     -11.773  13.614  67.736  1.00  0.00    -0.397 A  
HETATM    5  C   UNL     1     -12.658  13.829  66.687  1.00  0.00    -0.171 A  
HETATM    6  C   UNL     1     -12.391  13.258  65.450  1.00  0.00    -0.528 A  
HETATM    7  C   UNL     1     -11.253  12.467  65.235  1.00  0.00    -0.318 A  
HETATM    8  S   UNL     1     -11.090  11.833  63.589  1.00  0.00    -0.435 SA 
HETATM    9  C   UNL     1      -9.585  10.903  63.675  1.00  0.00    -0.302 A  
HETATM   10  C   UNL     1      -8.798  10.778  64.843  1.00  0.00    -0.163 A  
HETATM   11  C   UNL     1      -7.630   9.994  64.699  1.00  0.00    -0.143 A  
HETATM   12  N   UNL     1      -9.177  11.401  66.073  1.00  0.00    -0.212 NA 
HETATM   13  C   UNL     1     -10.334  12.216  66.274  1.00  0.00    -0.221 A  
HETATM   14  C   UNL     1      -7.270   9.366  63.495  1.00  0.00    -0.100 A  
HETATM   15  C   UNL     1     -10.633  12.819  67.519  1.00  0.00    -0.240 A  
HETATM   16  C   UNL     1      -9.220  10.270  62.469  1.00  0.00    -0.321 A  
HETATM   17  C   UNL     1      -8.069   9.502  62.376  1.00  0.00    -0.139 A  
BRANCH  12  18
HETATM   18  C   UNL     1      -8.329  11.172  67.267  1.00  0.00    -0.135 C  
BRANCH  18  19
HETATM   19  C   UNL     1      -8.790   9.932  68.048  1.00  0.00    -0.125 C  
BRANCH  19  20
HETATM   20  C   UNL     1      -7.696   8.856  68.097  1.00  0.00    -0.100 C  
BRANCH  20  21
HETATM   21  N   UNL     1      -8.233   7.514  68.380  1.00  0.00    -0.124 NA 
HETATM   22  C   UNL     1      -9.510   7.260  67.688  1.00  0.00    -0.131 C  
HETATM   23  C   UNL     1      -9.355   7.089  66.166  1.00  0.00    -0.040 C  
HETATM   24  N   UNL     1      -8.481   5.958  65.799  1.00  0.00    -0.142 NA 
HETATM   25  C   UNL     1      -7.178   6.140  66.494  1.00  0.00    -0.073 C  
HETATM   26  C   UNL     1      -7.268   6.454  68.014  1.00  0.00    -0.087 C  
BRANCH  24  27
HETATM   27  C   UNL     1      -9.079   4.647  66.158  1.00  0.00    -0.128 C  
BRANCH  27  28
HETATM   28  C   UNL     1     -10.400   4.367  65.423  1.00  0.00    -0.216 C  
HETATM   29  O   UNL     1     -10.176   4.275  64.020  1.00  0.00    -0.363 OA 
HETATM   30  H   UNL     1     -10.993   4.103  63.565  1.00  0.00     0.000 HD 
ENDBRANCH  27  28
ENDBRANCH  24  27
ENDBRANCH  20  21
ENDBRANCH  19  20
ENDBRANCH  18  19
ENDBRANCH  12  18
ENDBRANCH   2   4
TORSDOF 7
ENDMDL
MODEL      113
REMARK 921   NORMALIZED FREE ENERGY PREDICTED BY IDOCK:   -4.63 KCAL/MOL
REMARK 922        TOTAL FREE ENERGY PREDICTED BY IDOCK:   -7.29 KCAL/MOL
REMARK 923 INTER-LIGAND FREE ENERGY PREDICTED BY IDOCK:   -6.75 KCAL/MOL
REMARK 924 INTRA-LIGAND FREE ENERGY PREDICTED BY IDOCK:   -0.54 KCAL/MOL
REMARK 927      BINDING AFFINITY PREDICTED BY RF-SCORE:    0.00 PKD
ROOT
HETATM    1  C   UNL     1     -10.830   6.567  71.017  1.00  0.00    -0.301 C  
HETATM    2  C   UNL     1     -12.157   7.173  71.388  1.00  0.00    -0.344 C  
HETATM    3  O   UNL     1     -13.109   6.470  71.725  1.00  0.00    -0.227 OA 
ENDROOT
BRANCH   2   4
HETATM    4  C   UNL     1     -12.301   8.656  71.346  1.00  0.00    -0.344 A  
HETATM    5  C   UNL     1     -13.001   9.354  72.321  1.00  0.00    -0.479 A  
HETATM    6  C   UNL     1     -13.093  10.737  72.228  1.00  0.00    -0.152 A  
HETATM    7  C   UNL     1     -12.500  11.444  71.171  1.00  0.00    -0.360 A  
HETATM    8  S   UNL     1     -12.727  13.199  71.232  1.00  0.00    -0.225 SA 
HETATM    9  C   UNL     1     -11.874  13.754  69.782  1.00  0.00    -0.331 A  
HETATM   10  C   UNL     1     -11.211  12.895  68.876  1.00  0.00    -0.279 A  
HETATM   11  C   UNL     1     -10.587  13.540  67.784  1.00  0.00    -0.252 A  
HETATM   12  N   UNL     1     -11.191  11.478  69.065  1.00  0.00    -0.240 NA 
HETATM   13  C   UNL     1     -11.789  10.773  70.155  1.00  0.00    -0.343 A  
HETATM   14  C   UNL     1     -10.624  14.931  67.590  1.00  0.00    -0.264 A  
HETATM   15  C   UNL     1     -11.710   9.366  70.286  1.00  0.00    -0.127 A  
HETATM   16  C   UNL     1     -11.909  15.150  69.582  1.00  0.00    -0.362 A  
HETATM   17  C   UNL     1     -11.290  15.740  68.491  1.00  0.00    -0.374 A  
BRANCH  12  18
HETATM   18  C   UNL     1     -10.527  10.641  68.038  1.00  0.00    -0.196 C  
BRANCH  18  19
HETATM   19  C   UNL     1      -9.039  10.434  68.364  1.00  0.00    -0.147 C  
BRANCH  19  20
HETATM   20  C   UNL     1      -8.728   8.963  68.674  1.00  0.00    -0.134 C  
BRANCH  20  21
HETATM   21  N   UNL     1      -8.276   8.217  67.486  1.00  0.00    -0.121 NA 
HETATM   22  C   UNL     1      -7.285   7.177  67.818  1.00  0.00    -0.091 C  
HETATM   23  C   UNL     1      -7.886   5.982  68.579  1.00  0.00    -0.100 C  
HETATM   24  N   UNL     1      -8.942   5.286  67.818  1.00  0.00    -0.109 NA 
HETATM   25  C   UNL     1      -9.965   6.293  67.427  1.00  0.00    -0.139 C  
HETATM   26  C   UNL     1      -9.411   7.591  66.773  1.00  0.00    -0.179 C  
BRANCH  24  27
HETATM   27  C   UNL     1      -8.407   4.598  66.617  1.00  0.00    -0.106 C  
BRANCH  27  28
HETATM   28  C   UNL     1      -9.401   4.575  65.443  1.00  0.00    -0.163 C  
HETATM   29  O   UNL     1      -8.792   5.101  64.269  1.00  0.00    -0.264 OA 
HETATM   30  H   UNL     1      -9.407   5.088  63.544  1.00  0.00     0.000 HD 
ENDBRANCH  27  28
ENDBRANCH  24  27
ENDBRANCH  20  21
ENDBRANCH  19  20
ENDBRANCH  18  19
ENDBRANCH  12  18
ENDBRANCH   2   4
TORSDOF 7
ENDMDL
MODEL      114
REMARK 921   NORMALIZED FREE ENERGY PREDICTED BY IDOCK:   -4.63 KCAL/MOL
REMARK 922        TOTAL FREE ENERGY PREDICTED BY IDOCK:   -7.28 KCAL/MOL
REMARK 923 INTER-LIGAND FREE ENERGY PREDICTED BY IDOCK:   -7.33 KCAL/MOL
REMARK 924 INTRA-LIGAND FREE ENERGY PREDICTED BY IDOCK:    0.05 KCAL/MOL
REMARK 927      BINDING AFFINITY PREDICTED BY RF-SCORE:    0.00 PKD
ROOT
HETATM    1  C   UNL     1     -10.108  15.194  65.964  1.00  0.00    -0.323 C  
HETATM    2  C   UNL     1     -10.631  15.978  67.137  1.00  0.00    -0.305 C  
HETATM    3  O   UNL     1     -10.549  17.205  67.174  1.00  0.00    -0.313 OA 
ENDROOT
BRANCH   2   4
HETATM    4  C   UNL     1     -11.262  15.238  68.267  1.00  0.00    -0.318 A  
HETATM    5  C   UNL     1     -12.008  15.883  69.244  1.00  0.00    -0.254 A  
HETATM    6  C   UNL     1     -12.576  15.134  70.267  1.00  0.00    -0.370 A  
HETATM    7  C   UNL     1     -12.410  13.743  70.339  1.00  0.00    -0.353 A  
HETATM    8  S   UNL     1     -13.214  12.970  71.714  1.00  0.00    -0.330 SA 
HETATM    9  C   UNL     1     -12.802  11.261  71.498  1.00  0.00    -0.414 A  
HETATM   10  C   UNL     1     -12.011  10.766  70.436  1.00  0.00    -0.357 A  
HETATM   11  C   UNL     1     -11.803   9.368  70.443  1.00  0.00    -0.140 A  
HETATM   12  N   UNL     1     -11.464  11.635  69.441  1.00  0.00    -0.283 NA 
HETATM   13  C   UNL     1     -11.653  13.050  69.373  1.00  0.00    -0.299 A  
HETATM   14  C   UNL     1     -12.326   8.519  71.433  1.00  0.00    -0.332 A  
HETATM   15  C   UNL     1     -11.095  13.843  68.342  1.00  0.00    -0.278 A  
HETATM   16  C   UNL     1     -13.323  10.405  72.490  1.00  0.00     0.165 A  
HETATM   17  C   UNL     1     -13.087   9.039  72.463  1.00  0.00    -0.450 A  
BRANCH  12  18
HETATM   18  C   UNL     1     -10.595  11.045  68.394  1.00  0.00    -0.193 C  
BRANCH  18  19
HETATM   19  C   UNL     1      -9.113  11.127  68.789  1.00  0.00    -0.144 C  
BRANCH  19  20
HETATM   20  C   UNL     1      -8.401   9.781  68.591  1.00  0.00    -0.111 C  
BRANCH  20  21
HETATM   21  N   UNL     1      -7.581   9.748  67.367  1.00  0.00    -0.091 NA 
HETATM   22  C   UNL     1      -7.905   8.598  66.502  1.00  0.00    -0.099 C  
HETATM   23  C   UNL     1      -9.276   8.720  65.814  1.00  0.00    -0.206 C  
HETATM   24  N   UNL     1      -9.379   9.906  64.941  1.00  0.00    -0.251 NA 
HETATM   25  C   UNL     1      -9.034  11.105  65.752  1.00  0.00    -0.196 C  
HETATM   26  C   UNL     1      -7.724  10.995  66.584  1.00  0.00    -0.153 C  
BRANCH  24  27
HETATM   27  C   UNL     1      -8.491   9.810  63.755  1.00  0.00    -0.184 C  
BRANCH  27  28
HETATM   28  C   UNL     1      -8.672  10.977  62.771  1.00  0.00    -0.230 C  
HETATM   29  O   UNL     1     -10.039  11.096  62.391  1.00  0.00    -0.519 OA 
HETATM   30  H   UNL     1     -10.151  11.817  61.783  1.00  0.00     0.000 HD 
ENDBRANCH  27  28
ENDBRANCH  24  27
ENDBRANCH  20  21
ENDBRANCH  19  20
ENDBRANCH  18  19
ENDBRANCH  12  18
ENDBRANCH   2   4
TORSDOF 7
ENDMDL
MODEL      115
REMARK 921   NORMALIZED FREE ENERGY PREDICTED BY IDOCK:   -4.53 KCAL/MOL
REMARK 922        TOTAL FREE ENERGY PREDICTED BY IDOCK:   -7.14 KCAL/MOL
REMARK 923 INTER-LIGAND FREE ENERGY PREDICTED BY IDOCK:   -6.47 KCAL/MOL
REMARK 924 INTRA-LIGAND FREE ENERGY PREDICTED BY IDOCK:   -0.67 KCAL/MOL
REMARK 927      BINDING AFFINITY PREDICTED BY RF-SCORE:    0.00 PKD
ROOT
HETATM    1  C   UNL     1      -6.838  12.419  68.405  1.00  0.00    -0.080 C  
HETATM    2  C   UNL     1      -6.492  11.728  69.696  1.00  0.00    -0.113 C  
HETATM    3  O   UNL     1      -5.992  12.344  70.637  1.00  0.00    -0.238 OA 
ENDROOT
BRANCH   2   4
HETATM    4  C   UNL     1      -6.771  10.270  69.823  1.00  0.00    -0.103 A  
HETATM    5  C   UNL     1      -6.388   9.541  70.941  1.00  0.00    -0.089 A  
HETATM    6  C   UNL     1      -6.685   8.186  71.000  1.00  0.00    -0.042 A  
HETATM    7  C   UNL     1      -7.358   7.534  69.956  1.00  0.00    -0.081 A  
HETATM    8  S   UNL     1      -7.646   5.807  70.223  1.00  0.00    -0.092 SA 
HETATM    9  C   UNL     1      -8.489   5.319  68.744  1.00  0.00    -0.092 A  
HETATM   10  C   UNL     1      -8.798   6.199  67.682  1.00  0.00    -0.103 A  
HETATM   11  C   UNL     1      -9.481   5.610  66.593  1.00  0.00    -0.158 A  
HETATM   12  N   UNL     1      -8.431   7.580  67.722  1.00  0.00    -0.118 NA 
HETATM   13  C   UNL     1      -7.757   8.234  68.799  1.00  0.00    -0.114 A  
HETATM   14  C   UNL     1      -9.823   4.248  66.547  1.00  0.00    -0.238 A  
HETATM   15  C   UNL     1      -7.444   9.614  68.776  1.00  0.00    -0.075 A  
HETATM   16  C   UNL     1      -8.834   3.953  68.693  1.00  0.00    -0.150 A  
HETATM   17  C   UNL     1      -9.497   3.415  67.600  1.00  0.00    -0.231 A  
BRANCH  12  18
HETATM   18  C   UNL     1      -8.737   8.423  66.542  1.00  0.00    -0.134 C  
BRANCH  18  19
HETATM   19  C   UNL     1     -10.233   8.768  66.476  1.00  0.00    -0.314 C  
BRANCH  19  20
HETATM   20  C   UNL     1     -10.488  10.245  66.812  1.00  0.00    -0.214 C  
BRANCH  20  21
HETATM   21  N   UNL     1     -10.000  11.157  65.762  1.00  0.00    -0.234 NA 
HETATM   22  C   UNL     1     -10.917  11.229  64.609  1.00  0.00    -0.211 C  
HETATM   23  C   UNL     1     -12.228  11.973  64.918  1.00  0.00    -0.110 C  
HETATM   24  N   UNL     1     -12.012  13.373  65.334  1.00  0.00    -0.364 NA 
HETATM   25  C   UNL     1     -11.067  13.370  66.483  1.00  0.00    -0.297 C  
HETATM   26  C   UNL     1      -9.779  12.522  66.288  1.00  0.00    -0.254 C  
BRANCH  24  27
HETATM   27  C   UNL     1     -11.482  14.211  64.229  1.00  0.00    -0.272 C  
BRANCH  27  28
HETATM   28  C   UNL     1     -11.047  15.612  64.692  1.00  0.00    -0.373 C  
HETATM   29  O   UNL     1     -11.647  16.611  63.875  1.00  0.00    -1.582 OA 
HETATM   30  H   UNL     1     -11.378  17.477  64.160  1.00  0.00     0.000 HD 
ENDBRANCH  27  28
ENDBRANCH  24  27
ENDBRANCH  20  21
ENDBRANCH  19  20
ENDBRANCH  18  19
ENDBRANCH  12  18
ENDBRANCH   2   4
TORSDOF 7
ENDMDL
MODEL      116
REMARK 921   NORMALIZED FREE ENERGY PREDICTED BY IDOCK:   -4.51 KCAL/MOL
REMARK 922        TOTAL FREE ENERGY PREDICTED BY IDOCK:   -7.12 KCAL/MOL
REMARK 923 INTER-LIGAND FREE ENERGY PREDICTED BY IDOCK:   -6.58 KCAL/MOL
REMARK 924 INTRA-LIGAND FREE ENERGY PREDICTED BY IDOCK:   -0.54 KCAL/MOL
REMARK 927      BINDING AFFINITY PREDICTED BY RF-SCORE:    0.00 PKD
ROOT
HETATM    1  C   UNL     1      -7.601   8.827  64.118  1.00  0.00    -0.122 C  
HETATM    2  C   UNL     1      -7.710   7.327  64.110  1.00  0.00    -0.120 C  
HETATM    3  O   UNL     1      -7.750   6.694  63.056  1.00  0.00    -0.091 OA 
ENDROOT
BRANCH   2   4
HETATM    4  C   UNL     1      -7.765   6.608  65.414  1.00  0.00    -0.100 A  
HETATM    5  C   UNL     1      -6.857   5.609  65.743  1.00  0.00    -0.057 A  
HETATM    6  C   UNL     1      -6.959   4.982  66.978  1.00  0.00    -0.064 A  
HETATM    7  C   UNL     1      -7.958   5.330  67.899  1.00  0.00    -0.095 A  
HETATM    8  S   UNL     1      -7.917   4.419  69.418  1.00  0.00    -0.060 SA 
HETATM    9  C   UNL     1      -9.284   5.098  70.317  1.00  0.00    -0.146 A  
HETATM   10  C   UNL     1     -10.126   6.121  69.824  1.00  0.00    -0.181 A  
HETATM   11  C   UNL     1     -11.158   6.524  70.703  1.00  0.00    -0.364 A  
HETATM   12  N   UNL     1      -9.937   6.687  68.525  1.00  0.00    -0.146 NA 
HETATM   13  C   UNL     1      -8.905   6.331  67.602  1.00  0.00    -0.111 A  
HETATM   14  C   UNL     1     -11.354   5.953  71.971  1.00  0.00    -0.325 A  
HETATM   15  C   UNL     1      -8.767   6.953  66.338  1.00  0.00    -0.147 A  
HETATM   16  C   UNL     1      -9.486   4.526  71.590  1.00  0.00    -0.210 A  
HETATM   17  C   UNL     1     -10.517   4.948  72.416  1.00  0.00    -0.269 A  
BRANCH  12  18
HETATM   18  C   UNL     1     -10.899   7.713  68.058  1.00  0.00    -0.001 C  
BRANCH  18  19
HETATM   19  C   UNL     1     -10.321   9.129  68.206  1.00  0.00    -0.256 C  
BRANCH  19  20
HETATM   20  C   UNL     1     -10.776  10.046  67.062  1.00  0.00    -0.178 C  
BRANCH  20  21
HETATM   21  N   UNL     1     -10.306  11.433  67.228  1.00  0.00    -0.192 NA 
HETATM   22  C   UNL     1      -9.378  11.845  66.158  1.00  0.00    -0.219 C  
HETATM   23  C   UNL     1     -10.066  12.035  64.794  1.00  0.00    -0.257 C  
HETATM   24  N   UNL     1     -11.118  13.070  64.818  1.00  0.00    -0.309 NA 
HETATM   25  C   UNL     1     -12.076  12.726  65.903  1.00  0.00    -0.426 C  
HETATM   26  C   UNL     1     -11.436  12.387  67.279  1.00  0.00    -0.354 C  
BRANCH  24  27
HETATM   27  C   UNL     1     -10.563  14.430  65.031  1.00  0.00    -0.432 C  
BRANCH  27  28
HETATM   28  C   UNL     1     -11.457  15.542  64.458  1.00  0.00    -0.308 C  
HETATM   29  O   UNL     1     -12.444  14.987  63.595  1.00  0.00    -1.036 OA 
HETATM   30  H   UNL     1     -12.997  15.674  63.240  1.00  0.00     0.000 HD 
ENDBRANCH  27  28
ENDBRANCH  24  27
ENDBRANCH  20  21
ENDBRANCH  19  20
ENDBRANCH  18  19
ENDBRANCH  12  18
ENDBRANCH   2   4
TORSDOF 7
ENDMDL
MODEL      117
REMARK 921   NORMALIZED FREE ENERGY PREDICTED BY IDOCK:   -4.51 KCAL/MOL
REMARK 922        TOTAL FREE ENERGY PREDICTED BY IDOCK:   -7.11 KCAL/MOL
REMARK 923 INTER-LIGAND FREE ENERGY PREDICTED BY IDOCK:   -6.26 KCAL/MOL
REMARK 924 INTRA-LIGAND FREE ENERGY PREDICTED BY IDOCK:   -0.85 KCAL/MOL
REMARK 927      BINDING AFFINITY PREDICTED BY RF-SCORE:    0.00 PKD
ROOT
HETATM    1  C   UNL     1      -9.709   4.047  73.202  1.00  0.00    -0.163 C  
HETATM    2  C   UNL     1      -9.694   5.339  72.432  1.00  0.00    -0.152 C  
HETATM    3  O   UNL     1      -9.845   6.422  72.996  1.00  0.00    -0.161 OA 
ENDROOT
BRANCH   2   4
HETATM    4  C   UNL     1      -9.486   5.289  70.957  1.00  0.00    -0.211 A  
HETATM    5  C   UNL     1      -9.695   4.129  70.223  1.00  0.00    -0.277 A  
HETATM    6  C   UNL     1      -9.491   4.151  68.849  1.00  0.00    -0.238 A  
HETATM    7  C   UNL     1      -9.073   5.314  68.187  1.00  0.00    -0.110 A  
HETATM    8  S   UNL     1      -8.872   5.140  66.436  1.00  0.00    -0.123 SA 
HETATM    9  C   UNL     1      -8.349   6.757  65.939  1.00  0.00    -0.137 A  
HETATM   10  C   UNL     1      -8.173   7.841  66.830  1.00  0.00    -0.116 A  
HETATM   11  C   UNL     1      -7.754   9.050  66.230  1.00  0.00    -0.095 A  
HETATM   12  N   UNL     1      -8.401   7.701  68.235  1.00  0.00    -0.124 NA 
HETATM   13  C   UNL     1      -8.840   6.511  68.894  1.00  0.00    -0.126 A  
HETATM   14  C   UNL     1      -7.512   9.180  64.852  1.00  0.00    -0.105 A  
HETATM   15  C   UNL     1      -9.065   6.455  70.290  1.00  0.00    -0.155 A  
HETATM   16  C   UNL     1      -8.103   6.893  64.557  1.00  0.00    -0.069 A  
HETATM   17  C   UNL     1      -7.684   8.097  64.012  1.00  0.00    -0.137 A  
BRANCH  12  18
HETATM   18  C   UNL     1      -8.137   8.868  69.109  1.00  0.00    -0.117 C  
BRANCH  18  19
HETATM   19  C   UNL     1      -9.403   9.715  69.306  1.00  0.00    -0.184 C  
BRANCH  19  20
HETATM   20  C   UNL     1      -9.161  11.186  68.936  1.00  0.00    -0.096 C  
BRANCH  20  21
HETATM   21  N   UNL     1     -10.391  11.869  68.499  1.00  0.00    -0.215 NA 
HETATM   22  C   UNL     1     -10.148  13.269  68.103  1.00  0.00    -0.241 C  
HETATM   23  C   UNL     1      -9.371  13.403  66.781  1.00  0.00    -0.256 C  
HETATM   24  N   UNL     1     -10.073  12.790  65.636  1.00  0.00    -0.276 NA 
HETATM   25  C   UNL     1     -10.375  11.376  65.986  1.00  0.00    -0.249 C  
HETATM   26  C   UNL     1     -11.038  11.157  67.375  1.00  0.00    -0.307 C  
BRANCH  24  27
HETATM   27  C   UNL     1     -11.321  13.515  65.289  1.00  0.00    -0.290 C  
BRANCH  27  28
HETATM   28  C   UNL     1     -12.112  12.842  64.155  1.00  0.00    -0.432 C  
HETATM   29  O   UNL     1     -12.325  13.761  63.088  1.00  0.00    -1.099 OA 
HETATM   30  H   UNL     1     -12.815  13.345  62.388  1.00  0.00     0.000 HD 
ENDBRANCH  27  28
ENDBRANCH  24  27
ENDBRANCH  20  21
ENDBRANCH  19  20
ENDBRANCH  18  19
ENDBRANCH  12  18
ENDBRANCH   2   4
TORSDOF 7
ENDMDL
MODEL      118
REMARK 921   NORMALIZED FREE ENERGY PREDICTED BY IDOCK:   -4.50 KCAL/MOL
REMARK 922        TOTAL FREE ENERGY PREDICTED BY IDOCK:   -7.09 KCAL/MOL
REMARK 923 INTER-LIGAND FREE ENERGY PREDICTED BY IDOCK:   -6.30 KCAL/MOL
REMARK 924 INTRA-LIGAND FREE ENERGY PREDICTED BY IDOCK:   -0.79 KCAL/MOL
REMARK 927      BINDING AFFINITY PREDICTED BY RF-SCORE:    0.00 PKD
ROOT
HETATM    1  C   UNL     1     -11.659  12.556  67.097  1.00  0.00    -0.437 C  
HETATM    2  C   UNL     1     -10.892  11.275  67.283  1.00  0.00    -0.267 C  
HETATM    3  O   UNL     1     -10.094  10.878  66.434  1.00  0.00    -0.216 OA 
ENDROOT
BRANCH   2   4
HETATM    4  C   UNL     1     -11.114  10.484  68.526  1.00  0.00    -0.329 A  
HETATM    5  C   UNL     1     -11.786  11.009  69.622  1.00  0.00    -0.401 A  
HETATM    6  C   UNL     1     -11.965  10.217  70.749  1.00  0.00    -0.456 A  
HETATM    7  C   UNL     1     -11.480   8.902  70.808  1.00  0.00    -0.275 A  
HETATM    8  S   UNL     1     -11.813   8.056  72.328  1.00  0.00    -0.374 SA 
HETATM    9  C   UNL     1     -11.077   6.468  72.061  1.00  0.00    -0.258 A  
HETATM   10  C   UNL     1     -10.412   6.094  70.871  1.00  0.00    -0.228 A  
HETATM   11  C   UNL     1      -9.898   4.777  70.858  1.00  0.00    -0.279 A  
HETATM   12  N   UNL     1     -10.274   6.999  69.773  1.00  0.00    -0.197 NA 
HETATM   13  C   UNL     1     -10.785   8.333  69.722  1.00  0.00    -0.221 A  
HETATM   14  C   UNL     1     -10.018   3.895  71.946  1.00  0.00    -0.238 A  
HETATM   15  C   UNL     1     -10.627   9.166  68.589  1.00  0.00    -0.207 A  
HETATM   16  C   UNL     1     -11.193   5.580  73.150  1.00  0.00    -0.321 A  
HETATM   17  C   UNL     1     -10.666   4.298  73.097  1.00  0.00    -0.285 A  
BRANCH  12  18
HETATM   18  C   UNL     1      -9.511   6.551  68.584  1.00  0.00    -0.123 C  
BRANCH  18  19
HETATM   19  C   UNL     1      -8.038   6.980  68.672  1.00  0.00    -0.121 C  
BRANCH  19  20
HETATM   20  C   UNL     1      -7.325   6.834  67.320  1.00  0.00    -0.091 C  
BRANCH  20  21
HETATM   21  N   UNL     1      -8.037   7.519  66.227  1.00  0.00    -0.108 NA 
HETATM   22  C   UNL     1      -7.326   8.723  65.759  1.00  0.00    -0.085 C  
HETATM   23  C   UNL     1      -6.036   8.406  64.981  1.00  0.00    -0.052 C  
HETATM   24  N   UNL     1      -6.278   7.599  63.769  1.00  0.00    -0.053 NA 
HETATM   25  C   UNL     1      -7.023   6.376  64.172  1.00  0.00    -0.047 C  
HETATM   26  C   UNL     1      -8.264   6.616  65.077  1.00  0.00    -0.105 C  
BRANCH  24  27
HETATM   27  C   UNL     1      -7.037   8.350  62.737  1.00  0.00    -0.091 C  
BRANCH  27  28
HETATM   28  C   UNL     1      -6.401   9.708  62.393  1.00  0.00    -0.097 C  
HETATM   29  O   UNL     1      -7.163  10.768  62.961  1.00  0.00    -0.343 OA 
HETATM   30  H   UNL     1      -6.770  11.607  62.747  1.00  0.00     0.000 HD 
ENDBRANCH  27  28
ENDBRANCH  24  27
ENDBRANCH  20  21
ENDBRANCH  19  20
ENDBRANCH  18  19
ENDBRANCH  12  18
ENDBRANCH   2   4
TORSDOF 7
ENDMDL
MODEL      119
REMARK 921   NORMALIZED FREE ENERGY PREDICTED BY IDOCK:   -4.46 KCAL/MOL
REMARK 922        TOTAL FREE ENERGY PREDICTED BY IDOCK:   -7.04 KCAL/MOL
REMARK 923 INTER-LIGAND FREE ENERGY PREDICTED BY IDOCK:   -6.35 KCAL/MOL
REMARK 924 INTRA-LIGAND FREE ENERGY PREDICTED BY IDOCK:   -0.69 KCAL/MOL
REMARK 927      BINDING AFFINITY PREDICTED BY RF-SCORE:    0.00 PKD
ROOT
HETATM    1  C   UNL     1      -5.202  13.317  71.470  1.00  0.00    -0.178 C  
HETATM    2  C   UNL     1      -5.829  12.483  70.386  1.00  0.00    -0.150 C  
HETATM    3  O   UNL     1      -5.701  11.259  70.366  1.00  0.00    -0.117 OA 
ENDROOT
BRANCH   2   4
HETATM    4  C   UNL     1      -6.623  13.168  69.327  1.00  0.00    -0.091 A  
HETATM    5  C   UNL     1      -6.248  14.400  68.808  1.00  0.00    -0.085 A  
HETATM    6  C   UNL     1      -7.027  14.982  67.816  1.00  0.00    -0.193 A  
HETATM    7  C   UNL     1      -8.184  14.357  67.330  1.00  0.00    -0.203 A  
HETATM    8  S   UNL     1      -9.037  15.257  66.064  1.00  0.00    -0.080 SA 
HETATM    9  C   UNL     1     -10.414  14.205  65.697  1.00  0.00    -0.321 A  
HETATM   10  C   UNL     1     -10.657  12.967  66.336  1.00  0.00    -0.284 A  
HETATM   11  C   UNL     1     -11.809  12.279  65.893  1.00  0.00    -0.420 A  
HETATM   12  N   UNL     1      -9.791  12.469  67.358  1.00  0.00    -0.199 NA 
HETATM   13  C   UNL     1      -8.606  13.111  67.835  1.00  0.00    -0.185 A  
HETATM   14  C   UNL     1     -12.670  12.780  64.901  1.00  0.00    -0.479 A  
HETATM   15  C   UNL     1      -7.785  12.544  68.839  1.00  0.00     0.085 A  
HETATM   16  C   UNL     1     -11.281  14.704  64.703  1.00  0.00    -0.353 A  
HETATM   17  C   UNL     1     -12.406  13.998  64.305  1.00  0.00    -0.393 A  
BRANCH  12  18
HETATM   18  C   UNL     1     -10.148  11.192  68.021  1.00  0.00    -0.174 C  
BRANCH  18  19
HETATM   19  C   UNL     1      -9.776   9.986  67.145  1.00  0.00    -0.217 C  
BRANCH  19  20
HETATM   20  C   UNL     1     -10.196   8.662  67.798  1.00  0.00    -0.225 C  
BRANCH  20  21
HETATM   21  N   UNL     1      -9.858   8.604  69.231  1.00  0.00    -0.184 NA 
HETATM   22  C   UNL     1     -10.970   8.092  70.053  1.00  0.00    -0.202 C  
HETATM   23  C   UNL     1     -11.233   6.588  69.855  1.00  0.00    -0.395 C  
HETATM   24  N   UNL     1     -10.069   5.749  70.206  1.00  0.00    -0.196 NA 
HETATM   25  C   UNL     1      -8.899   6.237  69.427  1.00  0.00    -0.127 C  
HETATM   26  C   UNL     1      -8.658   7.773  69.472  1.00  0.00    -0.135 C  
BRANCH  24  27
HETATM   27  C   UNL     1      -9.772   5.781  71.660  1.00  0.00    -0.161 C  
BRANCH  27  28
HETATM   28  C   UNL     1     -10.934   5.261  72.523  1.00  0.00    -0.240 C  
HETATM   29  O   UNL     1     -11.216   6.176  73.576  1.00  0.00    -0.447 OA 
HETATM   30  H   UNL     1     -11.934   5.854  74.110  1.00  0.00     0.000 HD 
ENDBRANCH  27  28
ENDBRANCH  24  27
ENDBRANCH  20  21
ENDBRANCH  19  20
ENDBRANCH  18  19
ENDBRANCH  12  18
ENDBRANCH   2   4
TORSDOF 7
ENDMDL
MODEL      120
REMARK 921   NORMALIZED FREE ENERGY PREDICTED BY IDOCK:   -4.45 KCAL/MOL
REMARK 922        TOTAL FREE ENERGY PREDICTED BY IDOCK:   -7.03 KCAL/MOL
REMARK 923 INTER-LIGAND FREE ENERGY PREDICTED BY IDOCK:   -6.15 KCAL/MOL
REMARK 924 INTRA-LIGAND FREE ENERGY PREDICTED BY IDOCK:   -0.88 KCAL/MOL
REMARK 927      BINDING AFFINITY PREDICTED BY RF-SCORE:    0.00 PKD
ROOT
HETATM    1  C   UNL     1      -6.200  11.047  68.289  1.00  0.00    -0.049 C  
HETATM    2  C   UNL     1      -6.193  12.107  69.358  1.00  0.00    -0.106 C  
HETATM    3  O   UNL     1      -6.151  11.811  70.551  1.00  0.00    -0.262 OA 
ENDROOT
BRANCH   2   4
HETATM    4  C   UNL     1      -6.234  13.538  68.945  1.00  0.00    -0.093 A  
HETATM    5  C   UNL     1      -5.130  14.371  69.066  1.00  0.00    -0.082 A  
HETATM    6  C   UNL     1      -5.232  15.694  68.656  1.00  0.00    -0.093 A  
HETATM    7  C   UNL     1      -6.424  16.210  68.126  1.00  0.00    -0.125 A  
HETATM    8  S   UNL     1      -6.352  17.916  67.658  1.00  0.00    -0.173 SA 
HETATM    9  C   UNL     1      -7.986  18.225  67.049  1.00  0.00    -0.225 A  
HETATM   10  C   UNL     1      -9.011  17.251  67.003  1.00  0.00    -0.232 A  
HETATM   11  C   UNL     1     -10.243  17.701  66.477  1.00  0.00    -0.355 A  
HETATM   12  N   UNL     1      -8.797  15.916  67.468  1.00  0.00    -0.187 NA 
HETATM   13  C   UNL     1      -7.572  15.401  67.993  1.00  0.00    -0.127 A  
HETATM   14  C   UNL     1     -10.456  19.019  66.039  1.00  0.00    -0.530 A  
HETATM   15  C   UNL     1      -7.430  14.058  68.415  1.00  0.00    -0.119 A  
HETATM   16  C   UNL     1      -8.206  19.547  66.610  1.00  0.00    -0.329 A  
HETATM   17  C   UNL     1      -9.435  19.947  66.108  1.00  0.00    -0.466 A  
BRANCH  12  18
HETATM   18  C   UNL     1      -9.939  14.972  67.442  1.00  0.00    -0.226 C  
BRANCH  18  19
HETATM   19  C   UNL     1     -10.079  14.303  66.065  1.00  0.00    -0.333 C  
BRANCH  19  20
HETATM   20  C   UNL     1     -10.468  12.823  66.193  1.00  0.00    -0.267 C  
BRANCH  20  21
HETATM   21  N   UNL     1      -9.404  12.009  66.805  1.00  0.00    -0.199 NA 
HETATM   22  C   UNL     1      -9.876  11.260  67.985  1.00  0.00    -0.178 C  
HETATM   23  C   UNL     1     -10.827  10.103  67.632  1.00  0.00    -0.290 C  
HETATM   24  N   UNL     1     -10.206   9.094  66.752  1.00  0.00    -0.262 NA 
HETATM   25  C   UNL     1      -9.680   9.794  65.549  1.00  0.00    -0.312 C  
HETATM   26  C   UNL     1      -8.820  11.058  65.833  1.00  0.00    -0.195 C  
BRANCH  24  27
HETATM   27  C   UNL     1      -9.117   8.348  67.434  1.00  0.00    -0.137 C  
BRANCH  27  28
HETATM   28  C   UNL     1      -8.353   7.404  66.491  1.00  0.00    -0.124 C  
HETATM   29  O   UNL     1      -6.986   7.315  66.881  1.00  0.00    -0.072 OA 
HETATM   30  H   UNL     1      -6.514   6.732  66.298  1.00  0.00     0.000 HD 
ENDBRANCH  27  28
ENDBRANCH  24  27
ENDBRANCH  20  21
ENDBRANCH  19  20
ENDBRANCH  18  19
ENDBRANCH  12  18
ENDBRANCH   2   4
TORSDOF 7
ENDMDL
MODEL      121
REMARK 921   NORMALIZED FREE ENERGY PREDICTED BY IDOCK:   -4.43 KCAL/MOL
REMARK 922        TOTAL FREE ENERGY PREDICTED BY IDOCK:   -7.00 KCAL/MOL
REMARK 923 INTER-LIGAND FREE ENERGY PREDICTED BY IDOCK:   -6.17 KCAL/MOL
REMARK 924 INTRA-LIGAND FREE ENERGY PREDICTED BY IDOCK:   -0.83 KCAL/MOL
REMARK 927      BINDING AFFINITY PREDICTED BY RF-SCORE:    0.00 PKD
ROOT
HETATM    1  C   UNL     1     -13.251   9.642  72.184  1.00  0.00    -0.535 C  
HETATM    2  C   UNL     1     -12.941  10.987  71.586  1.00  0.00    -0.456 C  
HETATM    3  O   UNL     1     -13.434  12.018  72.040  1.00  0.00    -0.447 OA 
ENDROOT
BRANCH   2   4
HETATM    4  C   UNL     1     -12.011  11.054  70.423  1.00  0.00    -0.459 A  
HETATM    5  C   UNL     1     -12.149  12.010  69.425  1.00  0.00    -0.261 A  
HETATM    6  C   UNL     1     -11.245  12.024  68.371  1.00  0.00    -0.313 A  
HETATM    7  C   UNL     1     -10.199  11.093  68.288  1.00  0.00    -0.182 A  
HETATM    8  S   UNL     1      -9.151  11.277  66.872  1.00  0.00    -0.171 SA 
HETATM    9  C   UNL     1      -7.975   9.970  67.082  1.00  0.00    -0.109 A  
HETATM   10  C   UNL     1      -7.983   9.066  68.169  1.00  0.00    -0.101 A  
HETATM   11  C   UNL     1      -6.953   8.098  68.152  1.00  0.00    -0.077 A  
HETATM   12  N   UNL     1      -8.975   9.137  69.196  1.00  0.00    -0.141 NA 
HETATM   13  C   UNL     1     -10.028  10.100  69.274  1.00  0.00    -0.219 A  
HETATM   14  C   UNL     1      -5.991   8.018  67.131  1.00  0.00    -0.049 A  
HETATM   15  C   UNL     1     -10.963  10.120  70.337  1.00  0.00    -0.386 A  
HETATM   16  C   UNL     1      -7.008   9.885  66.060  1.00  0.00    -0.104 A  
HETATM   17  C   UNL     1      -6.019   8.913  66.079  1.00  0.00    -0.051 A  
BRANCH  12  18
HETATM   18  C   UNL     1      -8.950   8.114  70.269  1.00  0.00    -0.146 C  
BRANCH  18  19
HETATM   19  C   UNL     1      -9.959   6.989  69.990  1.00  0.00    -0.188 C  
BRANCH  19  20
HETATM   20  C   UNL     1      -9.272   5.746  69.406  1.00  0.00    -0.125 C  
BRANCH  20  21
HETATM   21  N   UNL     1     -10.156   4.976  68.515  1.00  0.00    -0.144 NA 
HETATM   22  C   UNL     1     -10.638   5.773  67.372  1.00  0.00    -0.265 C  
HETATM   23  C   UNL     1      -9.540   6.081  66.337  1.00  0.00    -0.137 C  
HETATM   24  N   UNL     1      -8.951   4.865  65.744  1.00  0.00    -0.137 NA 
HETATM   25  C   UNL     1      -8.469   3.999  66.854  1.00  0.00    -0.101 C  
HETATM   26  C   UNL     1      -9.487   3.759  68.005  1.00  0.00    -0.164 C  
BRANCH  24  27
HETATM   27  C   UNL     1      -9.921   4.127  64.896  1.00  0.00    -0.199 C  
BRANCH  27  28
HETATM   28  C   UNL     1      -9.523   2.660  64.664  1.00  0.00    -0.135 C  
HETATM   29  O   UNL     1     -10.563   1.968  63.980  1.00  0.00    -0.368 OA 
HETATM   30  H   UNL     1     -10.317   1.061  63.838  1.00  0.00     0.000 HD 
ENDBRANCH  27  28
ENDBRANCH  24  27
ENDBRANCH  20  21
ENDBRANCH  19  20
ENDBRANCH  18  19
ENDBRANCH  12  18
ENDBRANCH   2   4
TORSDOF 7
ENDMDL
MODEL      122
REMARK 921   NORMALIZED FREE ENERGY PREDICTED BY IDOCK:   -4.42 KCAL/MOL
REMARK 922        TOTAL FREE ENERGY PREDICTED BY IDOCK:   -6.98 KCAL/MOL
REMARK 923 INTER-LIGAND FREE ENERGY PREDICTED BY IDOCK:   -6.38 KCAL/MOL
REMARK 924 INTRA-LIGAND FREE ENERGY PREDICTED BY IDOCK:   -0.61 KCAL/MOL
REMARK 927      BINDING AFFINITY PREDICTED BY RF-SCORE:    0.00 PKD
ROOT
HETATM    1  C   UNL     1      -6.267  14.852  70.087  1.00  0.00    -0.165 C  
HETATM    2  C   UNL     1      -6.664  16.129  69.399  1.00  0.00    -0.205 C  
HETATM    3  O   UNL     1      -6.126  17.200  69.678  1.00  0.00    -0.226 OA 
ENDROOT
BRANCH   2   4
HETATM    4  C   UNL     1      -7.730  16.079  68.359  1.00  0.00    -0.147 A  
HETATM    5  C   UNL     1      -8.374  17.224  67.909  1.00  0.00    -0.220 A  
HETATM    6  C   UNL     1      -9.354  17.109  66.931  1.00  0.00    -0.260 A  
HETATM    7  C   UNL     1      -9.712  15.864  66.392  1.00  0.00    -0.287 A  
HETATM    8  S   UNL     1     -10.979  15.928  65.156  1.00  0.00    -0.330 SA 
HETATM    9  C   UNL     1     -11.177  14.225  64.710  1.00  0.00    -0.385 A  
HETATM   10  C   UNL     1     -10.435  13.166  65.282  1.00  0.00    -0.307 A  
HETATM   11  C   UNL     1     -10.742  11.880  64.783  1.00  0.00    -0.356 A  
HETATM   12  N   UNL     1      -9.454  13.400  66.296  1.00  0.00    -0.227 NA 
HETATM   13  C   UNL     1      -9.091  14.676  66.827  1.00  0.00    -0.264 A  
HETATM   14  C   UNL     1     -11.720  11.651  63.800  1.00  0.00    -0.403 A  
HETATM   15  C   UNL     1      -8.092  14.831  67.818  1.00  0.00    -0.161 A  
HETATM   16  C   UNL     1     -12.158  13.990  63.725  1.00  0.00    -0.265 A  
HETATM   17  C   UNL     1     -12.432  12.709  63.270  1.00  0.00    -0.377 A  
BRANCH  12  18
HETATM   18  C   UNL     1      -8.763  12.230  66.888  1.00  0.00    -0.197 C  
BRANCH  18  19
HETATM   19  C   UNL     1      -9.706  11.426  67.796  1.00  0.00    -0.184 C  
BRANCH  19  20
HETATM   20  C   UNL     1      -9.382   9.925  67.759  1.00  0.00    -0.140 C  
BRANCH  20  21
HETATM   21  N   UNL     1      -8.174   9.587  68.532  1.00  0.00    -0.111 NA 
HETATM   22  C   UNL     1      -8.277   9.994  69.946  1.00  0.00    -0.159 C  
HETATM   23  C   UNL     1      -9.270   9.140  70.755  1.00  0.00    -0.262 C  
HETATM   24  N   UNL     1      -8.909   7.709  70.785  1.00  0.00    -0.143 NA 
HETATM   25  C   UNL     1      -8.760   7.243  69.380  1.00  0.00    -0.137 C  
HETATM   26  C   UNL     1      -7.876   8.139  68.468  1.00  0.00    -0.118 C  
BRANCH  24  27
HETATM   27  C   UNL     1      -7.659   7.463  71.548  1.00  0.00    -0.085 C  
BRANCH  27  28
HETATM   28  C   UNL     1      -7.743   7.933  73.009  1.00  0.00    -0.127 C  
HETATM   29  O   UNL     1      -8.639   7.106  73.744  1.00  0.00    -0.133 OA 
HETATM   30  H   UNL     1      -8.691   7.397  74.647  1.00  0.00     0.000 HD 
ENDBRANCH  27  28
ENDBRANCH  24  27
ENDBRANCH  20  21
ENDBRANCH  19  20
ENDBRANCH  18  19
ENDBRANCH  12  18
ENDBRANCH   2   4
TORSDOF 7
ENDMDL
MODEL      123
REMARK 921   NORMALIZED FREE ENERGY PREDICTED BY IDOCK:   -4.41 KCAL/MOL
REMARK 922        TOTAL FREE ENERGY PREDICTED BY IDOCK:   -6.97 KCAL/MOL
REMARK 923 INTER-LIGAND FREE ENERGY PREDICTED BY IDOCK:   -6.19 KCAL/MOL
REMARK 924 INTRA-LIGAND FREE ENERGY PREDICTED BY IDOCK:   -0.77 KCAL/MOL
REMARK 927      BINDING AFFINITY PREDICTED BY RF-SCORE:    0.00 PKD
ROOT
HETATM    1  C   UNL     1     -13.377   9.013  72.909  1.00  0.00    -0.048 C  
HETATM    2  C   UNL     1     -12.070   9.033  72.163  1.00  0.00    -0.342 C  
HETATM    3  O   UNL     1     -11.102   8.381  72.552  1.00  0.00    -0.361 OA 
ENDROOT
BRANCH   2   4
HETATM    4  C   UNL     1     -11.965   9.860  70.928  1.00  0.00    -0.434 A  
HETATM    5  C   UNL     1     -12.549  11.117  70.832  1.00  0.00    -0.483 A  
HETATM    6  C   UNL     1     -12.408  11.841  69.655  1.00  0.00    -0.142 A  
HETATM    7  C   UNL     1     -11.695  11.331  68.560  1.00  0.00    -0.308 A  
HETATM    8  S   UNL     1     -11.626  12.407  67.154  1.00  0.00    -0.353 SA 
HETATM    9  C   UNL     1     -10.678  11.468  65.990  1.00  0.00    -0.281 A  
HETATM   10  C   UNL     1     -10.158  10.179  66.248  1.00  0.00    -0.238 A  
HETATM   11  C   UNL     1      -9.424   9.603  65.186  1.00  0.00    -0.332 A  
HETATM   12  N   UNL     1     -10.377   9.519  67.498  1.00  0.00    -0.232 NA 
HETATM   13  C   UNL     1     -11.095  10.057  68.611  1.00  0.00    -0.174 A  
HETATM   14  C   UNL     1      -9.227  10.245  63.952  1.00  0.00    -0.312 A  
HETATM   15  C   UNL     1     -11.253   9.351  69.827  1.00  0.00    -0.139 A  
HETATM   16  C   UNL     1     -10.478  12.108  64.749  1.00  0.00    -0.332 A  
HETATM   17  C   UNL     1      -9.758  11.501  63.731  1.00  0.00    -0.298 A  
BRANCH  12  18
HETATM   18  C   UNL     1      -9.851   8.144  67.668  1.00  0.00    -0.169 C  
BRANCH  18  19
HETATM   19  C   UNL     1     -10.840   7.098  67.133  1.00  0.00    -0.403 C  
BRANCH  19  20
HETATM   20  C   UNL     1     -10.148   6.089  66.204  1.00  0.00     0.083 C  
BRANCH  20  21
HETATM   21  N   UNL     1     -10.241   4.706  66.701  1.00  0.00    -0.237 NA 
HETATM   22  C   UNL     1      -9.398   3.772  65.931  1.00  0.00    -0.167 C  
HETATM   23  C   UNL     1      -7.891   3.966  66.178  1.00  0.00    -0.090 C  
HETATM   24  N   UNL     1      -7.508   3.765  67.590  1.00  0.00    -0.066 NA 
HETATM   25  C   UNL     1      -8.349   4.662  68.427  1.00  0.00    -0.090 C  
HETATM   26  C   UNL     1      -9.875   4.617  68.132  1.00  0.00    -0.107 C  
BRANCH  24  27
HETATM   27  C   UNL     1      -7.671   2.353  68.020  1.00  0.00    -0.055 C  
BRANCH  27  28
HETATM   28  C   UNL     1      -7.369   2.140  69.512  1.00  0.00    -0.043 C  
HETATM   29  O   UNL     1      -8.495   1.565  70.168  1.00  0.00    -0.044 OA 
HETATM   30  H   UNL     1      -8.308   1.434  71.090  1.00  0.00     0.000 HD 
ENDBRANCH  27  28
ENDBRANCH  24  27
ENDBRANCH  20  21
ENDBRANCH  19  20
ENDBRANCH  18  19
ENDBRANCH  12  18
ENDBRANCH   2   4
TORSDOF 7
ENDMDL
MODEL      124
REMARK 921   NORMALIZED FREE ENERGY PREDICTED BY IDOCK:   -4.40 KCAL/MOL
REMARK 922        TOTAL FREE ENERGY PREDICTED BY IDOCK:   -6.96 KCAL/MOL
REMARK 923 INTER-LIGAND FREE ENERGY PREDICTED BY IDOCK:   -6.97 KCAL/MOL
REMARK 924 INTRA-LIGAND FREE ENERGY PREDICTED BY IDOCK:    0.01 KCAL/MOL
REMARK 927      BINDING AFFINITY PREDICTED BY RF-SCORE:    0.00 PKD
ROOT
HETATM    1  C   UNL     1      -6.602  11.050  69.748  1.00  0.00    -0.143 C  
HETATM    2  C   UNL     1      -6.739  11.856  68.485  1.00  0.00    -0.068 C  
HETATM    3  O   UNL     1      -6.813  11.312  67.384  1.00  0.00    -0.083 OA 
ENDROOT
BRANCH   2   4
HETATM    4  C   UNL     1      -6.789  13.342  68.587  1.00  0.00    -0.098 A  
HETATM    5  C   UNL     1      -5.770  14.073  69.183  1.00  0.00    -0.085 A  
HETATM    6  C   UNL     1      -5.874  15.457  69.240  1.00  0.00    -0.104 A  
HETATM    7  C   UNL     1      -6.986  16.133  68.715  1.00  0.00    -0.148 A  
HETATM    8  S   UNL     1      -6.929  17.895  68.882  1.00  0.00    -0.246 SA 
HETATM    9  C   UNL     1      -8.451  18.408  68.136  1.00  0.00    -0.285 A  
HETATM   10  C   UNL     1      -9.398  17.518  67.576  1.00  0.00    -0.246 A  
HETATM   11  C   UNL     1     -10.546  18.131  67.025  1.00  0.00    -0.346 A  
HETATM   12  N   UNL     1      -9.192  16.103  67.584  1.00  0.00    -0.204 NA 
HETATM   13  C   UNL     1      -8.047  15.429  68.111  1.00  0.00    -0.136 A  
HETATM   14  C   UNL     1     -10.755  19.521  67.036  1.00  0.00    -0.592 A  
HETATM   15  C   UNL     1      -7.904  14.022  68.064  1.00  0.00    -0.152 A  
HETATM   16  C   UNL     1      -8.667  19.801  68.145  1.00  0.00    -0.333 A  
HETATM   17  C   UNL     1      -9.813  20.359  67.600  1.00  0.00    -0.538 A  
BRANCH  12  18
HETATM   18  C   UNL     1     -10.259  15.235  67.032  1.00  0.00    -0.260 C  
BRANCH  18  19
HETATM   19  C   UNL     1     -10.014  14.925  65.547  1.00  0.00    -0.392 C  
BRANCH  19  20
HETATM   20  C   UNL     1     -11.333  14.773  64.777  1.00  0.00    -0.397 C  
BRANCH  20  21
HETATM   21  N   UNL     1     -11.554  13.398  64.297  1.00  0.00    -0.387 NA 
HETATM   22  C   UNL     1     -10.293  12.654  64.119  1.00  0.00    -0.387 C  
HETATM   23  C   UNL     1      -9.607  12.288  65.447  1.00  0.00    -0.063 C  
HETATM   24  N   UNL     1     -10.445  11.434  66.312  1.00  0.00    -0.247 NA 
HETATM   25  C   UNL     1     -11.751  12.120  66.508  1.00  0.00    -0.321 C  
HETATM   26  C   UNL     1     -12.435  12.639  65.212  1.00  0.00    -0.416 C  
BRANCH  24  27
HETATM   27  C   UNL     1     -10.652  10.082  65.735  1.00  0.00     0.119 C  
BRANCH  27  28
HETATM   28  C   UNL     1     -10.129   8.955  66.641  1.00  0.00    -0.287 C  
HETATM   29  O   UNL     1      -9.277   9.487  67.650  1.00  0.00    -0.125 OA 
HETATM   30  H   UNL     1      -8.953   8.790  68.210  1.00  0.00     0.000 HD 
ENDBRANCH  27  28
ENDBRANCH  24  27
ENDBRANCH  20  21
ENDBRANCH  19  20
ENDBRANCH  18  19
ENDBRANCH  12  18
ENDBRANCH   2   4
TORSDOF 7
ENDMDL
MODEL      125
REMARK 921   NORMALIZED FREE ENERGY PREDICTED BY IDOCK:   -4.39 KCAL/MOL
REMARK 922        TOTAL FREE ENERGY PREDICTED BY IDOCK:   -6.94 KCAL/MOL
REMARK 923 INTER-LIGAND FREE ENERGY PREDICTED BY IDOCK:   -6.87 KCAL/MOL
REMARK 924 INTRA-LIGAND FREE ENERGY PREDICTED BY IDOCK:   -0.07 KCAL/MOL
REMARK 927      BINDING AFFINITY PREDICTED BY RF-SCORE:    0.00 PKD
ROOT
HETATM    1  C   UNL     1      -9.579   8.991  66.728  1.00  0.00    -0.259 C  
HETATM    2  C   UNL     1      -9.216   9.688  65.445  1.00  0.00    -0.238 C  
HETATM    3  O   UNL     1      -8.457   9.168  64.628  1.00  0.00    -0.163 OA 
ENDROOT
BRANCH   2   4
HETATM    4  C   UNL     1      -9.797  11.033  65.173  1.00  0.00    -0.319 A  
HETATM    5  C   UNL     1     -10.865  11.210  64.302  1.00  0.00    -0.354 A  
HETATM    6  C   UNL     1     -11.366  12.490  64.097  1.00  0.00    -0.440 A  
HETATM    7  C   UNL     1     -10.817  13.606  64.745  1.00  0.00    -0.394 A  
HETATM    8  S   UNL     1     -11.597  15.148  64.355  1.00  0.00    -0.187 SA 
HETATM    9  C   UNL     1     -10.671  16.309  65.320  1.00  0.00    -0.332 A  
HETATM   10  C   UNL     1      -9.590  15.957  66.161  1.00  0.00    -0.333 A  
HETATM   11  C   UNL     1      -8.988  17.035  66.849  1.00  0.00    -0.248 A  
HETATM   12  N   UNL     1      -9.149  14.603  66.286  1.00  0.00    -0.217 NA 
HETATM   13  C   UNL     1      -9.727  13.472  65.629  1.00  0.00    -0.086 A  
HETATM   14  C   UNL     1      -9.411  18.367  66.709  1.00  0.00    -0.297 A  
HETATM   15  C   UNL     1      -9.247  12.154  65.819  1.00  0.00    -0.019 A  
HETATM   16  C   UNL     1     -11.091  17.648  65.183  1.00  0.00     0.580 A  
HETATM   17  C   UNL     1     -10.466  18.676  65.871  1.00  0.00    -0.395 A  
BRANCH  12  18
HETATM   18  C   UNL     1      -7.970  14.324  67.140  1.00  0.00    -0.101 C  
BRANCH  18  19
HETATM   19  C   UNL     1      -8.348  14.326  68.630  1.00  0.00    -0.135 C  
BRANCH  19  20
HETATM   20  C   UNL     1      -9.554  13.417  68.908  1.00  0.00     0.167 C  
BRANCH  20  21
HETATM   21  N   UNL     1     -10.841  14.104  68.703  1.00  0.00    -0.248 NA 
HETATM   22  C   UNL     1     -11.996  13.238  69.003  1.00  0.00    -0.293 C  
HETATM   23  C   UNL     1     -12.168  12.948  70.505  1.00  0.00    -0.314 C  
HETATM   24  N   UNL     1     -12.378  14.170  71.307  1.00  0.00    -0.360 NA 
HETATM   25  C   UNL     1     -11.253  15.103  71.025  1.00  0.00    -0.285 C  
HETATM   26  C   UNL     1     -10.937  15.334  69.520  1.00  0.00    -0.277 C  
BRANCH  24  27
HETATM   27  C   UNL     1     -13.678  14.822  71.008  1.00  0.00    -0.264 C  
BRANCH  27  28
HETATM   28  C   UNL     1     -14.381  15.365  72.263  1.00  0.00    -0.483 C  
HETATM   29  O   UNL     1     -13.438  15.991  73.126  1.00  0.00    -0.578 OA 
HETATM   30  H   UNL     1     -13.873  16.326  73.902  1.00  0.00     0.000 HD 
ENDBRANCH  27  28
ENDBRANCH  24  27
ENDBRANCH  20  21
ENDBRANCH  19  20
ENDBRANCH  18  19
ENDBRANCH  12  18
ENDBRANCH   2   4
TORSDOF 7
ENDMDL
MODEL      126
REMARK 921   NORMALIZED FREE ENERGY PREDICTED BY IDOCK:   -4.38 KCAL/MOL
REMARK 922        TOTAL FREE ENERGY PREDICTED BY IDOCK:   -6.93 KCAL/MOL
REMARK 923 INTER-LIGAND FREE ENERGY PREDICTED BY IDOCK:   -6.30 KCAL/MOL
REMARK 924 INTRA-LIGAND FREE ENERGY PREDICTED BY IDOCK:   -0.62 KCAL/MOL
REMARK 927      BINDING AFFINITY PREDICTED BY RF-SCORE:    0.00 PKD
ROOT
HETATM    1  C   UNL     1     -11.200  11.136  67.213  1.00  0.00    -0.347 C  
HETATM    2  C   UNL     1     -10.643   9.761  67.463  1.00  0.00    -0.275 C  
HETATM    3  O   UNL     1     -10.202   9.074  66.543  1.00  0.00    -0.278 OA 
ENDROOT
BRANCH   2   4
HETATM    4  C   UNL     1     -10.629   9.239  68.858  1.00  0.00    -0.222 A  
HETATM    5  C   UNL     1     -10.756  10.076  69.959  1.00  0.00    -0.348 A  
HETATM    6  C   UNL     1     -10.743   9.525  71.234  1.00  0.00    -0.386 A  
HETATM    7  C   UNL     1     -10.601   8.144  71.436  1.00  0.00    -0.220 A  
HETATM    8  S   UNL     1     -10.612   7.638  73.133  1.00  0.00    -0.348 SA 
HETATM    9  C   UNL     1     -10.413   5.882  73.019  1.00  0.00    -0.222 A  
HETATM   10  C   UNL     1     -10.287   5.177  71.799  1.00  0.00    -0.209 A  
HETATM   11  C   UNL     1     -10.142   3.777  71.927  1.00  0.00    -0.194 A  
HETATM   12  N   UNL     1     -10.301   5.852  70.539  1.00  0.00    -0.219 NA 
HETATM   13  C   UNL     1     -10.460   7.259  70.348  1.00  0.00    -0.220 A  
HETATM   14  C   UNL     1     -10.109   3.118  73.168  1.00  0.00    -0.210 A  
HETATM   15  C   UNL     1     -10.485   7.855  69.064  1.00  0.00    -0.210 A  
HETATM   16  C   UNL     1     -10.378   5.216  74.261  1.00  0.00    -0.314 A  
HETATM   17  C   UNL     1     -10.225   3.840  74.340  1.00  0.00    -0.237 A  
BRANCH  12  18
HETATM   18  C   UNL     1     -10.103   5.048  69.310  1.00  0.00    -0.200 C  
BRANCH  18  19
HETATM   19  C   UNL     1      -8.628   5.045  68.877  1.00  0.00    -0.091 C  
BRANCH  19  20
HETATM   20  C   UNL     1      -8.485   4.835  67.362  1.00  0.00    -0.104 C  
BRANCH  20  21
HETATM   21  N   UNL     1      -9.242   3.667  66.879  1.00  0.00    -0.171 NA 
HETATM   22  C   UNL     1     -10.029   3.968  65.669  1.00  0.00    -0.156 C  
HETATM   23  C   UNL     1      -9.164   4.172  64.412  1.00  0.00    -0.150 C  
HETATM   24  N   UNL     1      -8.359   2.983  64.069  1.00  0.00    -0.086 NA 
HETATM   25  C   UNL     1      -7.558   2.609  65.265  1.00  0.00    -0.076 C  
HETATM   26  C   UNL     1      -8.351   2.519  66.600  1.00  0.00    -0.091 C  
BRANCH  24  27
HETATM   27  C   UNL     1      -9.202   1.842  63.632  1.00  0.00    -0.099 C  
BRANCH  27  28
HETATM   28  C   UNL     1     -10.372   2.268  62.731  1.00  0.00    -0.119 C  
HETATM   29  O   UNL     1     -11.608   1.824  63.282  1.00  0.00    -0.496 OA 
HETATM   30  H   UNL     1     -12.331   2.087  62.724  1.00  0.00     0.000 HD 
ENDBRANCH  27  28
ENDBRANCH  24  27
ENDBRANCH  20  21
ENDBRANCH  19  20
ENDBRANCH  18  19
ENDBRANCH  12  18
ENDBRANCH   2   4
TORSDOF 7
ENDMDL
MODEL      127
REMARK 921   NORMALIZED FREE ENERGY PREDICTED BY IDOCK:   -4.37 KCAL/MOL
REMARK 922        TOTAL FREE ENERGY PREDICTED BY IDOCK:   -6.92 KCAL/MOL
REMARK 923 INTER-LIGAND FREE ENERGY PREDICTED BY IDOCK:   -7.21 KCAL/MOL
REMARK 924 INTRA-LIGAND FREE ENERGY PREDICTED BY IDOCK:    0.29 KCAL/MOL
REMARK 927      BINDING AFFINITY PREDICTED BY RF-SCORE:    0.00 PKD
ROOT
HETATM    1  C   UNL     1     -11.124  11.277  63.221  1.00  0.00    -0.091 C  
HETATM    2  C   UNL     1     -12.107  12.262  63.794  1.00  0.00    -0.532 C  
HETATM    3  O   UNL     1     -13.319  12.063  63.737  1.00  0.00    -0.681 OA 
ENDROOT
BRANCH   2   4
HETATM    4  C   UNL     1     -11.583  13.498  64.443  1.00  0.00    -0.429 A  
HETATM    5  C   UNL     1     -12.122  14.751  64.181  1.00  0.00    -0.323 A  
HETATM    6  C   UNL     1     -11.593  15.862  64.825  1.00  0.00    -0.137 A  
HETATM    7  C   UNL     1     -10.526  15.750  65.728  1.00  0.00    -0.367 A  
HETATM    8  S   UNL     1      -9.998  17.281  66.446  1.00  0.00    -0.312 SA 
HETATM    9  C   UNL     1      -8.669  16.778  67.504  1.00  0.00    -0.199 A  
HETATM   10  C   UNL     1      -8.235  15.440  67.649  1.00  0.00    -0.157 A  
HETATM   11  C   UNL     1      -7.161  15.251  68.548  1.00  0.00    -0.114 A  
HETATM   12  N   UNL     1      -8.847  14.371  66.923  1.00  0.00    -0.234 NA 
HETATM   13  C   UNL     1      -9.944  14.499  66.015  1.00  0.00    -0.322 A  
HETATM   14  C   UNL     1      -6.548  16.306  69.245  1.00  0.00    -0.197 A  
HETATM   15  C   UNL     1     -10.512  13.388  65.347  1.00  0.00    -0.310 A  
HETATM   16  C   UNL     1      -8.050  17.833  68.205  1.00  0.00    -0.283 A  
HETATM   17  C   UNL     1      -6.993  17.603  69.072  1.00  0.00    -0.233 A  
BRANCH  12  18
HETATM   18  C   UNL     1      -8.294  13.006  67.084  1.00  0.00    -0.150 C  
BRANCH  18  19
HETATM   19  C   UNL     1      -9.415  11.961  67.210  1.00  0.00    -0.176 C  
BRANCH  19  20
HETATM   20  C   UNL     1      -9.617  11.523  68.667  1.00  0.00    -0.152 C  
BRANCH  20  21
HETATM   21  N   UNL     1      -8.813  10.339  69.019  1.00  0.00    -0.158 NA 
HETATM   22  C   UNL     1      -9.277   9.693  70.262  1.00  0.00    -0.236 C  
HETATM   23  C   UNL     1     -10.627   8.970  70.107  1.00  0.00    -0.224 C  
HETATM   24  N   UNL     1     -10.592   7.895  69.096  1.00  0.00    -0.206 NA 
HETATM   25  C   UNL     1     -10.101   8.480  67.819  1.00  0.00    -0.211 C  
HETATM   26  C   UNL     1      -8.811   9.340  67.929  1.00  0.00    -0.124 C  
BRANCH  24  27
HETATM   27  C   UNL     1      -9.727   6.762  69.512  1.00  0.00    -0.150 C  
BRANCH  27  28
HETATM   28  C   UNL     1     -10.513   5.463  69.756  1.00  0.00    -0.307 C  
HETATM   29  O   UNL     1      -9.740   4.335  69.359  1.00  0.00    -0.192 OA 
HETATM   30  H   UNL     1     -10.226   3.532  69.510  1.00  0.00     0.000 HD 
ENDBRANCH  27  28
ENDBRANCH  24  27
ENDBRANCH  20  21
ENDBRANCH  19  20
ENDBRANCH  18  19
ENDBRANCH  12  18
ENDBRANCH   2   4
TORSDOF 7
ENDMDL
MODEL      128
REMARK 921   NORMALIZED FREE ENERGY PREDICTED BY IDOCK:   -4.36 KCAL/MOL
REMARK 922        TOTAL FREE ENERGY PREDICTED BY IDOCK:   -6.91 KCAL/MOL
REMARK 923 INTER-LIGAND FREE ENERGY PREDICTED BY IDOCK:   -6.29 KCAL/MOL
REMARK 924 INTRA-LIGAND FREE ENERGY PREDICTED BY IDOCK:   -0.61 KCAL/MOL
REMARK 927      BINDING AFFINITY PREDICTED BY RF-SCORE:    0.00 PKD
ROOT
HETATM    1  C   UNL     1     -13.339  12.797  72.082  1.00  0.00    -0.593 C  
HETATM    2  C   UNL     1     -12.580  11.955  71.092  1.00  0.00    -0.288 C  
HETATM    3  O   UNL     1     -12.103  12.445  70.069  1.00  0.00    -0.309 OA 
ENDROOT
BRANCH   2   4
HETATM    4  C   UNL     1     -12.408  10.502  71.374  1.00  0.00    -0.477 A  
HETATM    5  C   UNL     1     -13.368   9.766  72.057  1.00  0.00    -0.547 A  
HETATM    6  C   UNL     1     -13.150   8.413  72.281  1.00  0.00    -0.316 A  
HETATM    7  C   UNL     1     -11.983   7.773  71.839  1.00  0.00    -0.301 A  
HETATM    8  S   UNL     1     -11.895   6.045  72.219  1.00  0.00    -0.159 SA 
HETATM    9  C   UNL     1     -10.330   5.575  71.536  1.00  0.00    -0.222 A  
HETATM   10  C   UNL     1      -9.457   6.465  70.870  1.00  0.00    -0.175 A  
HETATM   11  C   UNL     1      -8.258   5.887  70.395  1.00  0.00    -0.111 A  
HETATM   12  N   UNL     1      -9.778   7.849  70.707  1.00  0.00    -0.172 NA 
HETATM   13  C   UNL     1     -10.979   8.484  71.151  1.00  0.00    -0.253 A  
HETATM   14  C   UNL     1      -7.935   4.531  70.573  1.00  0.00    -0.057 A  
HETATM   15  C   UNL     1     -11.237   9.859  70.934  1.00  0.00    -0.433 A  
HETATM   16  C   UNL     1     -10.001   4.215  71.714  1.00  0.00    -0.246 A  
HETATM   17  C   UNL     1      -8.808   3.692  71.237  1.00  0.00    -0.138 A  
BRANCH  12  18
HETATM   18  C   UNL     1      -8.783   8.729  70.051  1.00  0.00    -0.144 C  
BRANCH  18  19
HETATM   19  C   UNL     1      -9.121   8.945  68.568  1.00  0.00    -0.137 C  
BRANCH  19  20
HETATM   20  C   UNL     1      -8.050   9.789  67.862  1.00  0.00    -0.112 C  
BRANCH  20  21
HETATM   21  N   UNL     1      -7.452  10.803  68.748  1.00  0.00    -0.100 NA 
HETATM   22  C   UNL     1      -6.030  11.048  68.445  1.00  0.00    -0.042 C  
HETATM   23  C   UNL     1      -5.809  11.796  67.118  1.00  0.00    -0.136 C  
HETATM   24  N   UNL     1      -6.448  13.127  67.094  1.00  0.00    -0.167 NA 
HETATM   25  C   UNL     1      -7.889  12.951  67.423  1.00  0.00    -0.170 C  
HETATM   26  C   UNL     1      -8.187  12.085  68.680  1.00  0.00    -0.052 C  
BRANCH  24  27
HETATM   27  C   UNL     1      -5.812  14.073  68.045  1.00  0.00    -0.136 C  
BRANCH  27  28
HETATM   28  C   UNL     1      -6.726  15.250  68.424  1.00  0.00    -0.113 C  
HETATM   29  O   UNL     1      -7.111  15.156  69.792  1.00  0.00    -0.187 OA 
HETATM   30  H   UNL     1      -7.676  15.883  70.026  1.00  0.00     0.000 HD 
ENDBRANCH  27  28
ENDBRANCH  24  27
ENDBRANCH  20  21
ENDBRANCH  19  20
ENDBRANCH  18  19
ENDBRANCH  12  18
ENDBRANCH   2   4
TORSDOF 7
ENDMDL
MODEL      129
REMARK 921   NORMALIZED FREE ENERGY PREDICTED BY IDOCK:   -4.33 KCAL/MOL
REMARK 922        TOTAL FREE ENERGY PREDICTED BY IDOCK:   -6.86 KCAL/MOL
REMARK 923 INTER-LIGAND FREE ENERGY PREDICTED BY IDOCK:   -6.06 KCAL/MOL
REMARK 924 INTRA-LIGAND FREE ENERGY PREDICTED BY IDOCK:   -0.80 KCAL/MOL
REMARK 927      BINDING AFFINITY PREDICTED BY RF-SCORE:    0.00 PKD
ROOT
HETATM    1  C   UNL     1     -12.357  14.516  70.691  1.00  0.00    -0.407 C  
HETATM    2  C   UNL     1     -12.029  13.602  69.542  1.00  0.00    -0.341 C  
HETATM    3  O   UNL     1     -11.927  14.030  68.393  1.00  0.00    -0.349 OA 
ENDROOT
BRANCH   2   4
HETATM    4  C   UNL     1     -11.822  12.152  69.819  1.00  0.00    -0.397 A  
HETATM    5  C   UNL     1     -12.071  11.599  71.068  1.00  0.00    -0.212 A  
HETATM    6  C   UNL     1     -11.865  10.239  71.259  1.00  0.00    -0.425 A  
HETATM    7  C   UNL     1     -11.407   9.412  70.223  1.00  0.00    -0.220 A  
HETATM    8  S   UNL     1     -11.211   7.708  70.664  1.00  0.00    -0.257 SA 
HETATM    9  C   UNL     1     -10.631   6.978  69.158  1.00  0.00    -0.219 A  
HETATM   10  C   UNL     1     -10.419   7.698  67.960  1.00  0.00    -0.189 A  
HETATM   11  C   UNL     1      -9.958   6.926  66.869  1.00  0.00    -0.264 A  
HETATM   12  N   UNL     1     -10.653   9.106  67.881  1.00  0.00    -0.236 NA 
HETATM   13  C   UNL     1     -11.132   9.934  68.942  1.00  0.00    -0.140 A  
HETATM   14  C   UNL     1      -9.710   5.546  66.955  1.00  0.00    -0.158 A  
HETATM   15  C   UNL     1     -11.360  11.322  68.782  1.00  0.00    -0.335 A  
HETATM   16  C   UNL     1     -10.380   5.593  69.240  1.00  0.00    -0.340 A  
HETATM   17  C   UNL     1      -9.920   4.876  68.145  1.00  0.00    -0.171 A  
BRANCH  12  18
HETATM   18  C   UNL     1     -10.348   9.798  66.606  1.00  0.00    -0.206 C  
BRANCH  18  19
HETATM   19  C   UNL     1      -8.844   9.761  66.296  1.00  0.00    -0.165 C  
BRANCH  19  20
HETATM   20  C   UNL     1      -8.030  10.514  67.359  1.00  0.00    -0.110 C  
BRANCH  20  21
HETATM   21  N   UNL     1      -7.451  11.768  66.846  1.00  0.00    -0.134 NA 
HETATM   22  C   UNL     1      -8.135  12.963  67.377  1.00  0.00    -0.181 C  
HETATM   23  C   UNL     1      -7.853  13.215  68.869  1.00  0.00     0.118 C  
HETATM   24  N   UNL     1      -6.420  13.425  69.157  1.00  0.00    -0.102 NA 
HETATM   25  C   UNL     1      -5.668  12.260  68.617  1.00  0.00    -0.053 C  
HETATM   26  C   UNL     1      -6.007  11.865  67.152  1.00  0.00    -0.152 C  
BRANCH  24  27
HETATM   27  C   UNL     1      -5.909  14.689  68.569  1.00  0.00    -0.098 C  
BRANCH  27  28
HETATM   28  C   UNL     1      -6.434  15.942  69.289  1.00  0.00    -0.159 C  
HETATM   29  O   UNL     1      -6.803  16.939  68.341  1.00  0.00    -0.156 OA 
HETATM   30  H   UNL     1      -7.126  17.714  68.786  1.00  0.00     0.000 HD 
ENDBRANCH  27  28
ENDBRANCH  24  27
ENDBRANCH  20  21
ENDBRANCH  19  20
ENDBRANCH  18  19
ENDBRANCH  12  18
ENDBRANCH   2   4
TORSDOF 7
ENDMDL
MODEL      130
REMARK 921   NORMALIZED FREE ENERGY PREDICTED BY IDOCK:   -4.30 KCAL/MOL
REMARK 922        TOTAL FREE ENERGY PREDICTED BY IDOCK:   -6.82 KCAL/MOL
REMARK 923 INTER-LIGAND FREE ENERGY PREDICTED BY IDOCK:   -6.05 KCAL/MOL
REMARK 924 INTRA-LIGAND FREE ENERGY PREDICTED BY IDOCK:   -0.77 KCAL/MOL
REMARK 927      BINDING AFFINITY PREDICTED BY RF-SCORE:    0.00 PKD
ROOT
HETATM    1  C   UNL     1      -7.633   7.975  64.962  1.00  0.00    -0.104 C  
HETATM    2  C   UNL     1      -7.211   6.577  65.326  1.00  0.00    -0.073 C  
HETATM    3  O   UNL     1      -6.391   5.960  64.648  1.00  0.00    -0.032 OA 
ENDROOT
BRANCH   2   4
HETATM    4  C   UNL     1      -7.806   5.944  66.537  1.00  0.00    -0.101 A  
HETATM    5  C   UNL     1      -8.131   4.594  66.577  1.00  0.00    -0.103 A  
HETATM    6  C   UNL     1      -8.676   4.064  67.740  1.00  0.00    -0.119 A  
HETATM    7  C   UNL     1      -8.911   4.859  68.871  1.00  0.00    -0.093 A  
HETATM    8  S   UNL     1      -9.607   3.997  70.253  1.00  0.00    -0.197 SA 
HETATM    9  C   UNL     1      -9.769   5.274  71.469  1.00  0.00    -0.162 A  
HETATM   10  C   UNL     1      -9.393   6.621  71.257  1.00  0.00    -0.158 A  
HETATM   11  C   UNL     1      -9.601   7.482  72.359  1.00  0.00    -0.205 A  
HETATM   12  N   UNL     1      -8.852   7.061  70.010  1.00  0.00    -0.142 NA 
HETATM   13  C   UNL     1      -8.605   6.235  68.869  1.00  0.00    -0.125 A  
HETATM   14  C   UNL     1     -10.152   7.052  73.578  1.00  0.00    -0.348 A  
HETATM   15  C   UNL     1      -8.045   6.740  67.672  1.00  0.00    -0.116 A  
HETATM   16  C   UNL     1     -10.323   4.848  72.693  1.00  0.00    -0.250 A  
HETATM   17  C   UNL     1     -10.517   5.730  73.746  1.00  0.00    -0.291 A  
BRANCH  12  18
HETATM   18  C   UNL     1      -8.539   8.501  69.848  1.00  0.00    -0.131 C  
BRANCH  18  19
HETATM   19  C   UNL     1      -9.794   9.306  69.475  1.00  0.00    -0.188 C  
BRANCH  19  20
HETATM   20  C   UNL     1      -9.459  10.779  69.203  1.00  0.00    -0.134 C  
BRANCH  20  21
HETATM   21  N   UNL     1     -10.518  11.470  68.447  1.00  0.00    -0.199 NA 
HETATM   22  C   UNL     1     -10.035  12.706  67.803  1.00  0.00    -0.218 C  
HETATM   23  C   UNL     1      -9.088  12.447  66.618  1.00  0.00    -0.204 C  
HETATM   24  N   UNL     1      -9.718  11.664  65.537  1.00  0.00    -0.230 NA 
HETATM   25  C   UNL     1     -10.255  10.410  66.131  1.00  0.00    -0.223 C  
HETATM   26  C   UNL     1     -11.111  10.590  67.416  1.00  0.00    -0.252 C  
BRANCH  24  27
HETATM   27  C   UNL     1     -10.801  12.418  64.856  1.00  0.00    -0.297 C  
BRANCH  27  28
HETATM   28  C   UNL     1     -10.942  12.056  63.368  1.00  0.00    -0.403 C  
HETATM   29  O   UNL     1     -12.282  11.673  63.077  1.00  0.00    -0.949 OA 
HETATM   30  H   UNL     1     -12.369  11.449  62.158  1.00  0.00     0.000 HD 
ENDBRANCH  27  28
ENDBRANCH  24  27
ENDBRANCH  20  21
ENDBRANCH  19  20
ENDBRANCH  18  19
ENDBRANCH  12  18
ENDBRANCH   2   4
TORSDOF 7
ENDMDL
MODEL      131
REMARK 921   NORMALIZED FREE ENERGY PREDICTED BY IDOCK:   -4.25 KCAL/MOL
REMARK 922        TOTAL FREE ENERGY PREDICTED BY IDOCK:   -6.75 KCAL/MOL
REMARK 923 INTER-LIGAND FREE ENERGY PREDICTED BY IDOCK:   -6.12 KCAL/MOL
REMARK 924 INTRA-LIGAND FREE ENERGY PREDICTED BY IDOCK:   -0.63 KCAL/MOL
REMARK 927      BINDING AFFINITY PREDICTED BY RF-SCORE:    0.00 PKD
ROOT
HETATM    1  C   UNL     1     -11.054  11.778  63.044  1.00  0.00    -0.075 C  
HETATM    2  C   UNL     1     -11.720  12.924  63.756  1.00  0.00    -0.492 C  
HETATM    3  O   UNL     1     -12.880  13.246  63.504  1.00  0.00    -0.606 OA 
ENDROOT
BRANCH   2   4
HETATM    4  C   UNL     1     -10.946  13.672  64.788  1.00  0.00    -0.384 A  
HETATM    5  C   UNL     1     -11.082  15.043  64.959  1.00  0.00    -0.421 A  
HETATM    6  C   UNL     1     -10.336  15.679  65.944  1.00  0.00    -0.368 A  
HETATM    7  C   UNL     1      -9.447  14.971  66.765  1.00  0.00    -0.246 A  
HETATM    8  S   UNL     1      -8.594  15.960  67.961  1.00  0.00    -0.165 SA 
HETATM    9  C   UNL     1      -7.581  14.773  68.799  1.00  0.00    -0.137 A  
HETATM   10  C   UNL     1      -7.555  13.394  68.488  1.00  0.00    -0.127 A  
HETATM   11  C   UNL     1      -6.680  12.616  69.279  1.00  0.00    -0.054 A  
HETATM   12  N   UNL     1      -8.359  12.847  67.439  1.00  0.00    -0.181 NA 
HETATM   13  C   UNL     1      -9.272  13.580  66.619  1.00  0.00    -0.210 A  
HETATM   14  C   UNL     1      -5.877  13.158  70.296  1.00  0.00    -0.156 A  
HETATM   15  C   UNL     1     -10.052  12.964  65.611  1.00  0.00    -0.282 A  
HETATM   16  C   UNL     1      -6.771  15.313  69.819  1.00  0.00    -0.176 A  
HETATM   17  C   UNL     1      -5.920  14.512  70.566  1.00  0.00    -0.178 A  
BRANCH  12  18
HETATM   18  C   UNL     1      -8.230  11.402  67.136  1.00  0.00    -0.157 C  
BRANCH  18  19
HETATM   19  C   UNL     1      -9.260  10.573  67.920  1.00  0.00    -0.143 C  
BRANCH  19  20
HETATM   20  C   UNL     1      -8.584   9.468  68.745  1.00  0.00    -0.123 C  
BRANCH  20  21
HETATM   21  N   UNL     1      -8.097   8.356  67.910  1.00  0.00    -0.121 NA 
HETATM   22  C   UNL     1      -7.426   7.309  68.702  1.00  0.00    -0.102 C  
HETATM   23  C   UNL     1      -8.393   6.488  69.573  1.00  0.00    -0.130 C  
HETATM   24  N   UNL     1      -9.421   5.781  68.783  1.00  0.00    -0.121 NA 
HETATM   25  C   UNL     1     -10.119   6.785  67.935  1.00  0.00    -0.159 C  
HETATM   26  C   UNL     1      -9.194   7.741  67.131  1.00  0.00    -0.146 C  
BRANCH  24  27
HETATM   27  C   UNL     1      -8.840   4.706  67.940  1.00  0.00    -0.106 C  
BRANCH  27  28
HETATM   28  C   UNL     1      -9.281   3.298  68.373  1.00  0.00    -0.178 C  
HETATM   29  O   UNL     1      -9.428   2.454  67.235  1.00  0.00    -0.372 OA 
HETATM   30  H   UNL     1      -9.701   1.584  67.502  1.00  0.00     0.000 HD 
ENDBRANCH  27  28
ENDBRANCH  24  27
ENDBRANCH  20  21
ENDBRANCH  19  20
ENDBRANCH  18  19
ENDBRANCH  12  18
ENDBRANCH   2   4
TORSDOF 7
ENDMDL
MODEL      132
REMARK 921   NORMALIZED FREE ENERGY PREDICTED BY IDOCK:   -4.25 KCAL/MOL
REMARK 922        TOTAL FREE ENERGY PREDICTED BY IDOCK:   -6.75 KCAL/MOL
REMARK 923 INTER-LIGAND FREE ENERGY PREDICTED BY IDOCK:   -7.33 KCAL/MOL
REMARK 924 INTRA-LIGAND FREE ENERGY PREDICTED BY IDOCK:    0.59 KCAL/MOL
REMARK 927      BINDING AFFINITY PREDICTED BY RF-SCORE:    0.00 PKD
ROOT
HETATM    1  C   UNL     1     -11.585   8.035  71.891  1.00  0.00    -0.348 C  
HETATM    2  C   UNL     1     -12.623   9.120  71.990  1.00  0.00    -0.390 C  
HETATM    3  O   UNL     1     -13.608   8.997  72.717  1.00  0.00    -0.433 OA 
ENDROOT
BRANCH   2   4
HETATM    4  C   UNL     1     -12.436  10.363  71.190  1.00  0.00    -0.509 A  
HETATM    5  C   UNL     1     -12.662  11.624  71.726  1.00  0.00    -0.322 A  
HETATM    6  C   UNL     1     -12.463  12.744  70.928  1.00  0.00    -0.373 A  
HETATM    7  C   UNL     1     -12.044  12.631  69.594  1.00  0.00    -0.213 A  
HETATM    8  S   UNL     1     -11.844  14.174  68.747  1.00  0.00    -0.343 SA 
HETATM    9  C   UNL     1     -11.325  13.667  67.131  1.00  0.00    -0.319 A  
HETATM   10  C   UNL     1     -11.150  12.319  66.742  1.00  0.00    -0.296 A  
HETATM   11  C   UNL     1     -10.725  12.129  65.407  1.00  0.00    -0.323 A  
HETATM   12  N   UNL     1     -11.398  11.240  67.647  1.00  0.00    -0.382 NA 
HETATM   13  C   UNL     1     -11.812  11.370  69.008  1.00  0.00    -0.348 A  
HETATM   14  C   UNL     1     -10.501  13.191  64.514  1.00  0.00    -0.425 A  
HETATM   15  C   UNL     1     -12.018  10.252  69.851  1.00  0.00    -0.222 A  
HETATM   16  C   UNL     1     -11.100  14.728  66.230  1.00  0.00    -0.341 A  
HETATM   17  C   UNL     1     -10.691  14.496  64.926  1.00  0.00    -0.448 A  
BRANCH  12  18
HETATM   18  C   UNL     1     -11.250   9.853  67.144  1.00  0.00     0.279 C  
BRANCH  18  19
HETATM   19  C   UNL     1     -10.072   9.137  67.822  1.00  0.00    -0.253 C  
BRANCH  19  20
HETATM   20  C   UNL     1      -8.766   9.332  67.038  1.00  0.00    -0.124 C  
BRANCH  20  21
HETATM   21  N   UNL     1      -7.577   8.936  67.812  1.00  0.00    -0.093 NA 
HETATM   22  C   UNL     1      -7.286   9.870  68.916  1.00  0.00    -0.076 C  
HETATM   23  C   UNL     1      -8.303   9.788  70.069  1.00  0.00    -0.192 C  
HETATM   24  N   UNL     1      -8.360   8.451  70.693  1.00  0.00    -0.117 NA 
HETATM   25  C   UNL     1      -8.623   7.454  69.620  1.00  0.00    -0.137 C  
HETATM   26  C   UNL     1      -7.716   7.569  68.362  1.00  0.00    -0.120 C  
BRANCH  24  27
HETATM   27  C   UNL     1      -7.107   8.115  71.415  1.00  0.00    -0.068 C  
BRANCH  27  28
HETATM   28  C   UNL     1      -7.356   7.592  72.840  1.00  0.00    -0.077 C  
HETATM   29  O   UNL     1      -8.317   8.405  73.504  1.00  0.00    -0.320 OA 
HETATM   30  H   UNL     1      -8.471   8.081  74.385  1.00  0.00     0.000 HD 
ENDBRANCH  27  28
ENDBRANCH  24  27
ENDBRANCH  20  21
ENDBRANCH  19  20
ENDBRANCH  18  19
ENDBRANCH  12  18
ENDBRANCH   2   4
TORSDOF 7
ENDMDL
MODEL      133
REMARK 921   NORMALIZED FREE ENERGY PREDICTED BY IDOCK:   -4.24 KCAL/MOL
REMARK 922        TOTAL FREE ENERGY PREDICTED BY IDOCK:   -6.73 KCAL/MOL
REMARK 923 INTER-LIGAND FREE ENERGY PREDICTED BY IDOCK:   -6.03 KCAL/MOL
REMARK 924 INTRA-LIGAND FREE ENERGY PREDICTED BY IDOCK:   -0.70 KCAL/MOL
REMARK 927      BINDING AFFINITY PREDICTED BY RF-SCORE:    0.00 PKD
ROOT
HETATM    1  C   UNL     1     -13.376  12.491  71.947  1.00  0.00    -0.467 C  
HETATM    2  C   UNL     1     -12.618  11.579  71.022  1.00  0.00    -0.357 C  
HETATM    3  O   UNL     1     -12.108  12.000  69.984  1.00  0.00    -0.310 OA 
ENDROOT
BRANCH   2   4
HETATM    4  C   UNL     1     -12.488  10.139  71.386  1.00  0.00    -0.524 A  
HETATM    5  C   UNL     1     -13.596   9.341  71.636  1.00  0.00    -0.448 A  
HETATM    6  C   UNL     1     -13.407   8.004  71.965  1.00  0.00    -0.276 A  
HETATM    7  C   UNL     1     -12.125   7.444  72.054  1.00  0.00    -0.289 A  
HETATM    8  S   UNL     1     -12.094   5.725  72.481  1.00  0.00     0.149 SA 
HETATM    9  C   UNL     1     -10.361   5.360  72.507  1.00  0.00    -0.206 A  
HETATM   10  C   UNL     1      -9.348   6.307  72.233  1.00  0.00    -0.145 A  
HETATM   11  C   UNL     1      -8.027   5.810  72.303  1.00  0.00    -0.107 A  
HETATM   12  N   UNL     1      -9.659   7.667  71.918  1.00  0.00    -0.150 NA 
HETATM   13  C   UNL     1     -10.972   8.221  71.817  1.00  0.00    -0.278 A  
HETATM   14  C   UNL     1      -7.723   4.478  72.632  1.00  0.00    -0.086 A  
HETATM   15  C   UNL     1     -11.203   9.576  71.479  1.00  0.00    -0.437 A  
HETATM   16  C   UNL     1     -10.051   4.025  72.839  1.00  0.00    -0.214 A  
HETATM   17  C   UNL     1      -8.739   3.582  72.903  1.00  0.00    -0.094 A  
BRANCH  12  18
HETATM   18  C   UNL     1      -8.538   8.612  71.702  1.00  0.00    -0.189 C  
BRANCH  18  19
HETATM   19  C   UNL     1      -7.764   8.276  70.418  1.00  0.00    -0.084 C  
BRANCH  19  20
HETATM   20  C   UNL     1      -8.485   8.806  69.170  1.00  0.00    -0.123 C  
BRANCH  20  21
HETATM   21  N   UNL     1      -9.520   7.880  68.678  1.00  0.00    -0.149 NA 
HETATM   22  C   UNL     1      -9.978   8.218  67.317  1.00  0.00    -0.224 C  
HETATM   23  C   UNL     1      -8.928   7.928  66.231  1.00  0.00    -0.171 C  
HETATM   24  N   UNL     1      -8.539   6.505  66.170  1.00  0.00    -0.140 NA 
HETATM   25  C   UNL     1      -8.092   6.093  67.528  1.00  0.00    -0.109 C  
HETATM   26  C   UNL     1      -9.047   6.478  68.692  1.00  0.00    -0.128 C  
BRANCH  24  27
HETATM   27  C   UNL     1      -9.651   5.639  65.706  1.00  0.00     0.034 C  
BRANCH  27  28
HETATM   28  C   UNL     1      -9.384   4.142  65.935  1.00  0.00    -0.163 C  
HETATM   29  O   UNL     1     -10.047   3.364  64.944  1.00  0.00    -0.346 OA 
HETATM   30  H   UNL     1      -9.882   2.439  65.086  1.00  0.00     0.000 HD 
ENDBRANCH  27  28
ENDBRANCH  24  27
ENDBRANCH  20  21
ENDBRANCH  19  20
ENDBRANCH  18  19
ENDBRANCH  12  18
ENDBRANCH   2   4
TORSDOF 7
ENDMDL
MODEL      134
REMARK 921   NORMALIZED FREE ENERGY PREDICTED BY IDOCK:   -4.23 KCAL/MOL
REMARK 922        TOTAL FREE ENERGY PREDICTED BY IDOCK:   -6.72 KCAL/MOL
REMARK 923 INTER-LIGAND FREE ENERGY PREDICTED BY IDOCK:   -6.48 KCAL/MOL
REMARK 924 INTRA-LIGAND FREE ENERGY PREDICTED BY IDOCK:   -0.24 KCAL/MOL
REMARK 927      BINDING AFFINITY PREDICTED BY RF-SCORE:    0.00 PKD
ROOT
HETATM    1  C   UNL     1     -11.361   5.610  72.808  1.00  0.00    -0.350 C  
HETATM    2  C   UNL     1     -11.475   6.734  71.813  1.00  0.00    -0.281 C  
HETATM    3  O   UNL     1     -12.082   7.769  72.084  1.00  0.00    -0.301 OA 
ENDROOT
BRANCH   2   4
HETATM    4  C   UNL     1     -10.830   6.574  70.479  1.00  0.00    -0.323 A  
HETATM    5  C   UNL     1     -10.407   5.338  70.009  1.00  0.00    -0.365 A  
HETATM    6  C   UNL     1      -9.820   5.256  68.753  1.00  0.00    -0.224 A  
HETATM    7  C   UNL     1      -9.641   6.392  67.950  1.00  0.00    -0.121 A  
HETATM    8  S   UNL     1      -8.878   6.080  66.382  1.00  0.00    -0.140 SA 
HETATM    9  C   UNL     1      -8.807   7.693  65.654  1.00  0.00    -0.050 A  
HETATM   10  C   UNL     1      -9.283   8.867  66.282  1.00  0.00    -0.207 A  
HETATM   11  C   UNL     1      -9.137  10.053  65.527  1.00  0.00    -0.227 A  
HETATM   12  N   UNL     1      -9.860   8.836  67.590  1.00  0.00    -0.169 NA 
HETATM   13  C   UNL     1     -10.048   7.668  68.392  1.00  0.00    -0.186 A  
HETATM   14  C   UNL     1      -8.552  10.084  64.250  1.00  0.00    -0.197 A  
HETATM   15  C   UNL     1     -10.648   7.713  69.672  1.00  0.00    -0.243 A  
HETATM   16  C   UNL     1      -8.219   7.730  64.372  1.00  0.00    -0.041 A  
HETATM   17  C   UNL     1      -8.089   8.918  63.671  1.00  0.00    -0.167 A  
BRANCH  12  18
HETATM   18  C   UNL     1     -10.279  10.118  68.203  1.00  0.00    -0.171 C  
BRANCH  18  19
HETATM   19  C   UNL     1     -11.532  10.682  67.515  1.00  0.00    -0.097 C  
BRANCH  19  20
HETATM   20  C   UNL     1     -11.773  12.150  67.896  1.00  0.00    -0.336 C  
BRANCH  20  21
HETATM   21  N   UNL     1     -10.900  12.601  68.993  1.00  0.00    -0.192 NA 
HETATM   22  C   UNL     1     -10.664  14.057  68.964  1.00  0.00    -0.211 C  
HETATM   23  C   UNL     1     -11.903  14.884  69.350  1.00  0.00    -0.324 C  
HETATM   24  N   UNL     1     -12.387  14.594  70.714  1.00  0.00    -0.305 NA 
HETATM   25  C   UNL     1     -12.618  13.128  70.818  1.00  0.00    -0.260 C  
HETATM   26  C   UNL     1     -11.452  12.230  70.315  1.00  0.00     0.185 C  
BRANCH  24  27
HETATM   27  C   UNL     1     -11.429  15.043  71.756  1.00  0.00    -0.305 C  
BRANCH  27  28
HETATM   28  C   UNL     1     -11.725  16.460  72.275  1.00  0.00    -0.373 C  
HETATM   29  O   UNL     1     -12.244  16.403  73.600  1.00  0.00    -0.495 OA 
HETATM   30  H   UNL     1     -12.427  17.279  73.921  1.00  0.00     0.000 HD 
ENDBRANCH  27  28
ENDBRANCH  24  27
ENDBRANCH  20  21
ENDBRANCH  19  20
ENDBRANCH  18  19
ENDBRANCH  12  18
ENDBRANCH   2   4
TORSDOF 7
ENDMDL
MODEL      135
REMARK 921   NORMALIZED FREE ENERGY PREDICTED BY IDOCK:   -4.21 KCAL/MOL
REMARK 922        TOTAL FREE ENERGY PREDICTED BY IDOCK:   -6.69 KCAL/MOL
REMARK 923 INTER-LIGAND FREE ENERGY PREDICTED BY IDOCK:   -6.11 KCAL/MOL
REMARK 924 INTRA-LIGAND FREE ENERGY PREDICTED BY IDOCK:   -0.58 KCAL/MOL
REMARK 927      BINDING AFFINITY PREDICTED BY RF-SCORE:    0.00 PKD
ROOT
HETATM    1  C   UNL     1     -11.992  13.801  67.404  1.00  0.00    -0.423 C  
HETATM    2  C   UNL     1     -11.512  12.379  67.288  1.00  0.00    -0.354 C  
HETATM    3  O   UNL     1     -11.088  11.933  66.223  1.00  0.00    -0.290 OA 
ENDROOT
BRANCH   2   4
HETATM    4  C   UNL     1     -11.555  11.510  68.497  1.00  0.00    -0.377 A  
HETATM    5  C   UNL     1     -11.982  11.985  69.730  1.00  0.00    -0.370 A  
HETATM    6  C   UNL     1     -12.006  11.121  70.817  1.00  0.00    -0.415 A  
HETATM    7  C   UNL     1     -11.604   9.782  70.701  1.00  0.00    -0.313 A  
HETATM    8  S   UNL     1     -11.711   8.842  72.199  1.00  0.00    -0.287 SA 
HETATM    9  C   UNL     1     -11.139   7.243  71.698  1.00  0.00    -0.233 A  
HETATM   10  C   UNL     1     -10.726   6.925  70.383  1.00  0.00    -0.246 A  
HETATM   11  C   UNL     1     -10.309   5.588  70.191  1.00  0.00    -0.354 A  
HETATM   12  N   UNL     1     -10.730   7.903  69.340  1.00  0.00    -0.207 NA 
HETATM   13  C   UNL     1     -11.155   9.261  69.470  1.00  0.00    -0.080 A  
HETATM   14  C   UNL     1     -10.286   4.635  71.223  1.00  0.00    -0.148 A  
HETATM   15  C   UNL     1     -11.151  10.167  68.383  1.00  0.00    -0.273 A  
HETATM   16  C   UNL     1     -11.113   6.282  72.730  1.00  0.00    -0.284 A  
HETATM   17  C   UNL     1     -10.688   4.983  72.498  1.00  0.00    -0.271 A  
BRANCH  12  18
HETATM   18  C   UNL     1     -10.226   7.506  68.004  1.00  0.00    -0.195 C  
BRANCH  18  19
HETATM   19  C   UNL     1      -8.689   7.488  67.971  1.00  0.00    -0.121 C  
BRANCH  19  20
HETATM   20  C   UNL     1      -8.159   6.961  66.630  1.00  0.00    -0.110 C  
BRANCH  20  21
HETATM   21  N   UNL     1      -8.946   5.826  66.116  1.00  0.00    -0.147 NA 
HETATM   22  C   UNL     1      -8.587   5.472  64.730  1.00  0.00    -0.091 C  
HETATM   23  C   UNL     1      -7.199   4.817  64.609  1.00  0.00    -0.062 C  
HETATM   24  N   UNL     1      -7.087   3.560  65.375  1.00  0.00    -0.064 NA 
HETATM   25  C   UNL     1      -7.467   3.845  66.784  1.00  0.00    -0.076 C  
HETATM   26  C   UNL     1      -8.797   4.630  66.973  1.00  0.00    -0.111 C  
BRANCH  24  27
HETATM   27  C   UNL     1      -7.943   2.483  64.815  1.00  0.00    -0.081 C  
BRANCH  27  28
HETATM   28  C   UNL     1      -7.553   2.089  63.381  1.00  0.00    -0.055 C  
HETATM   29  O   UNL     1      -8.708   2.044  62.549  1.00  0.00    -0.072 OA 
HETATM   30  H   UNL     1      -8.467   1.800  61.663  1.00  0.00     0.000 HD 
ENDBRANCH  27  28
ENDBRANCH  24  27
ENDBRANCH  20  21
ENDBRANCH  19  20
ENDBRANCH  18  19
ENDBRANCH  12  18
ENDBRANCH   2   4
TORSDOF 7
ENDMDL
MODEL      136
REMARK 921   NORMALIZED FREE ENERGY PREDICTED BY IDOCK:   -4.20 KCAL/MOL
REMARK 922        TOTAL FREE ENERGY PREDICTED BY IDOCK:   -6.68 KCAL/MOL
REMARK 923 INTER-LIGAND FREE ENERGY PREDICTED BY IDOCK:   -5.71 KCAL/MOL
REMARK 924 INTRA-LIGAND FREE ENERGY PREDICTED BY IDOCK:   -0.97 KCAL/MOL
REMARK 927      BINDING AFFINITY PREDICTED BY RF-SCORE:    0.00 PKD
ROOT
HETATM    1  C   UNL     1      -6.123  10.778  70.331  1.00  0.00    -0.135 C  
HETATM    2  C   UNL     1      -7.328   9.988  69.898  1.00  0.00    -0.161 C  
HETATM    3  O   UNL     1      -8.218   9.691  70.694  1.00  0.00    -0.234 OA 
ENDROOT
BRANCH   2   4
HETATM    4  C   UNL     1      -7.433   9.569  68.472  1.00  0.00    -0.080 A  
HETATM    5  C   UNL     1      -7.313  10.476  67.427  1.00  0.00    -0.093 A  
HETATM    6  C   UNL     1      -7.413  10.019  66.119  1.00  0.00    -0.109 A  
HETATM    7  C   UNL     1      -7.637   8.666  65.829  1.00  0.00    -0.089 A  
HETATM    8  S   UNL     1      -7.729   8.283  64.102  1.00  0.00    -0.145 SA 
HETATM    9  C   UNL     1      -8.015   6.535  64.103  1.00  0.00    -0.088 A  
HETATM   10  C   UNL     1      -8.122   5.752  65.276  1.00  0.00    -0.130 A  
HETATM   11  C   UNL     1      -8.347   4.373  65.058  1.00  0.00    -0.117 A  
HETATM   12  N   UNL     1      -8.016   6.332  66.578  1.00  0.00    -0.107 NA 
HETATM   13  C   UNL     1      -7.774   7.713  66.859  1.00  0.00    -0.103 A  
HETATM   14  C   UNL     1      -8.470   3.808  63.778  1.00  0.00    -0.092 A  
HETATM   15  C   UNL     1      -7.660   8.212  68.178  1.00  0.00    -0.105 A  
HETATM   16  C   UNL     1      -8.142   5.963  62.821  1.00  0.00    -0.104 A  
HETATM   17  C   UNL     1      -8.370   4.605  62.654  1.00  0.00    -0.096 A  
BRANCH  12  18
HETATM   18  C   UNL     1      -8.200   5.453  67.756  1.00  0.00    -0.100 C  
BRANCH  18  19
HETATM   19  C   UNL     1      -9.690   5.214  68.047  1.00  0.00    -0.188 C  
BRANCH  19  20
HETATM   20  C   UNL     1      -9.944   4.984  69.543  1.00  0.00    -0.232 C  
BRANCH  20  21
HETATM   21  N   UNL     1      -9.736   6.202  70.346  1.00  0.00    -0.167 NA 
HETATM   22  C   UNL     1     -10.656   7.291  69.967  1.00  0.00    -0.233 C  
HETATM   23  C   UNL     1     -12.114   7.030  70.384  1.00  0.00    -0.153 C  
HETATM   24  N   UNL     1     -12.277   6.872  71.843  1.00  0.00    -0.334 NA 
HETATM   25  C   UNL     1     -11.348   5.801  72.295  1.00  0.00    -0.278 C  
HETATM   26  C   UNL     1      -9.882   5.930  71.793  1.00  0.00    -0.163 C  
BRANCH  24  27
HETATM   27  C   UNL     1     -12.008   8.134  72.578  1.00  0.00    -0.350 C  
BRANCH  27  28
HETATM   28  C   UNL     1     -13.031   9.240  72.269  1.00  0.00    -0.412 C  
HETATM   29  O   UNL     1     -14.231   9.023  73.003  1.00  0.00    -1.107 OA 
HETATM   30  H   UNL     1     -14.863   9.706  72.812  1.00  0.00     0.000 HD 
ENDBRANCH  27  28
ENDBRANCH  24  27
ENDBRANCH  20  21
ENDBRANCH  19  20
ENDBRANCH  18  19
ENDBRANCH  12  18
ENDBRANCH   2   4
TORSDOF 7
ENDMDL
MODEL      137
REMARK 921   NORMALIZED FREE ENERGY PREDICTED BY IDOCK:   -4.19 KCAL/MOL
REMARK 922        TOTAL FREE ENERGY PREDICTED BY IDOCK:   -6.66 KCAL/MOL
REMARK 923 INTER-LIGAND FREE ENERGY PREDICTED BY IDOCK:   -5.93 KCAL/MOL
REMARK 924 INTRA-LIGAND FREE ENERGY PREDICTED BY IDOCK:   -0.72 KCAL/MOL
REMARK 927      BINDING AFFINITY PREDICTED BY RF-SCORE:    0.00 PKD
ROOT
HETATM    1  C   UNL     1     -12.344   8.707  71.235  1.00  0.00    -0.298 C  
HETATM    2  C   UNL     1     -11.555   7.692  72.017  1.00  0.00    -0.291 C  
HETATM    3  O   UNL     1     -11.438   7.775  73.238  1.00  0.00    -0.295 OA 
ENDROOT
BRANCH   2   4
HETATM    4  C   UNL     1     -10.911   6.567  71.280  1.00  0.00    -0.309 A  
HETATM    5  C   UNL     1     -10.250   5.539  71.940  1.00  0.00    -0.251 A  
HETATM    6  C   UNL     1      -9.677   4.516  71.195  1.00  0.00    -0.256 A  
HETATM    7  C   UNL     1      -9.747   4.498  69.794  1.00  0.00    -0.215 A  
HETATM    8  S   UNL     1      -8.960   3.108  69.029  1.00  0.00    -0.137 SA 
HETATM    9  C   UNL     1      -9.233   3.404  67.305  1.00  0.00    -0.193 A  
HETATM   10  C   UNL     1      -9.930   4.524  66.794  1.00  0.00    -0.215 A  
HETATM   11  C   UNL     1     -10.042   4.570  65.386  1.00  0.00    -0.211 A  
HETATM   12  N   UNL     1     -10.469   5.528  67.657  1.00  0.00    -0.208 NA 
HETATM   13  C   UNL     1     -10.401   5.526  69.085  1.00  0.00    -0.248 A  
HETATM   14  C   UNL     1      -9.494   3.592  64.539  1.00  0.00    -0.157 A  
HETATM   15  C   UNL     1     -10.978   6.548  69.875  1.00  0.00    -0.393 A  
HETATM   16  C   UNL     1      -8.684   2.426  66.450  1.00  0.00    -0.125 A  
HETATM   17  C   UNL     1      -8.811   2.516  65.072  1.00  0.00    -0.121 A  
BRANCH  12  18
HETATM   18  C   UNL     1     -11.133   6.701  67.041  1.00  0.00    -0.325 C  
BRANCH  18  19
HETATM   19  C   UNL     1     -10.368   7.999  67.345  1.00  0.00    -0.354 C  
BRANCH  19  20
HETATM   20  C   UNL     1      -8.975   7.998  66.700  1.00  0.00    -0.150 C  
BRANCH  20  21
HETATM   21  N   UNL     1      -7.892   8.129  67.690  1.00  0.00    -0.112 NA 
HETATM   22  C   UNL     1      -6.630   8.594  67.087  1.00  0.00    -0.058 C  
HETATM   23  C   UNL     1      -6.671  10.069  66.647  1.00  0.00    -0.081 C  
HETATM   24  N   UNL     1      -6.934  10.996  67.765  1.00  0.00    -0.079 NA 
HETATM   25  C   UNL     1      -8.187  10.561  68.438  1.00  0.00    -0.121 C  
HETATM   26  C   UNL     1      -8.268   9.047  68.788  1.00  0.00    -0.117 C  
BRANCH  24  27
HETATM   27  C   UNL     1      -5.812  11.036  68.737  1.00  0.00    -0.039 C  
BRANCH  27  28
HETATM   28  C   UNL     1      -6.025  12.065  69.860  1.00  0.00    -0.149 C  
HETATM   29  O   UNL     1      -6.078  11.412  71.125  1.00  0.00    -0.427 OA 
HETATM   30  H   UNL     1      -6.210  12.048  71.819  1.00  0.00     0.000 HD 
ENDBRANCH  27  28
ENDBRANCH  24  27
ENDBRANCH  20  21
ENDBRANCH  19  20
ENDBRANCH  18  19
ENDBRANCH  12  18
ENDBRANCH   2   4
TORSDOF 7
ENDMDL
MODEL      138
REMARK 921   NORMALIZED FREE ENERGY PREDICTED BY IDOCK:   -4.17 KCAL/MOL
REMARK 922        TOTAL FREE ENERGY PREDICTED BY IDOCK:   -6.64 KCAL/MOL
REMARK 923 INTER-LIGAND FREE ENERGY PREDICTED BY IDOCK:   -5.79 KCAL/MOL
REMARK 924 INTRA-LIGAND FREE ENERGY PREDICTED BY IDOCK:   -0.85 KCAL/MOL
REMARK 927      BINDING AFFINITY PREDICTED BY RF-SCORE:    0.00 PKD
ROOT
HETATM    1  C   UNL     1      -7.447   9.857  63.475  1.00  0.00    -0.134 C  
HETATM    2  C   UNL     1      -7.633   9.254  64.841  1.00  0.00    -0.108 C  
HETATM    3  O   UNL     1      -6.985   8.272  65.200  1.00  0.00    -0.071 OA 
ENDROOT
BRANCH   2   4
HETATM    4  C   UNL     1      -8.624   9.873  65.766  1.00  0.00    -0.151 A  
HETATM    5  C   UNL     1      -9.185  11.119  65.517  1.00  0.00    -0.236 A  
HETATM    6  C   UNL     1     -10.109  11.637  66.416  1.00  0.00    -0.246 A  
HETATM    7  C   UNL     1     -10.484  10.934  67.570  1.00  0.00    -0.215 A  
HETATM    8  S   UNL     1     -11.676  11.761  68.587  1.00  0.00    -0.323 SA 
HETATM    9  C   UNL     1     -11.910  10.621  69.921  1.00  0.00    -0.315 A  
HETATM   10  C   UNL     1     -11.242   9.379  70.028  1.00  0.00    -0.190 A  
HETATM   11  C   UNL     1     -11.574   8.615  71.170  1.00  0.00    -0.330 A  
HETATM   12  N   UNL     1     -10.296   8.950  69.046  1.00  0.00    -0.210 NA 
HETATM   13  C   UNL     1      -9.932   9.671  67.866  1.00  0.00    -0.166 A  
HETATM   14  C   UNL     1     -12.490   9.047  72.144  1.00  0.00    -0.450 A  
HETATM   15  C   UNL     1      -9.001   9.171  66.926  1.00  0.00    -0.143 A  
HETATM   16  C   UNL     1     -12.827  11.050  70.903  1.00  0.00    -0.393 A  
HETATM   17  C   UNL     1     -13.117  10.270  72.012  1.00  0.00    -0.529 A  
BRANCH  12  18
HETATM   18  C   UNL     1      -9.593   7.663  69.262  1.00  0.00    -0.159 C  
BRANCH  18  19
HETATM   19  C   UNL     1     -10.379   6.490  68.655  1.00  0.00    -0.216 C  
BRANCH  19  20
HETATM   20  C   UNL     1      -9.467   5.290  68.363  1.00  0.00    -0.124 C  
BRANCH  20  21
HETATM   21  N   UNL     1     -10.077   4.329  67.429  1.00  0.00    -0.059 NA 
HETATM   22  C   UNL     1     -10.288   4.902  66.087  1.00  0.00    -0.292 C  
HETATM   23  C   UNL     1      -8.980   5.126  65.307  1.00  0.00    -0.142 C  
HETATM   24  N   UNL     1      -8.222   3.879  65.084  1.00  0.00    -0.100 NA 
HETATM   25  C   UNL     1      -8.001   3.233  66.406  1.00  0.00    -0.081 C  
HETATM   26  C   UNL     1      -9.263   3.100  67.305  1.00  0.00    -0.189 C  
BRANCH  24  27
HETATM   27  C   UNL     1      -8.927   2.950  64.165  1.00  0.00    -0.105 C  
BRANCH  27  28
HETATM   28  C   UNL     1      -8.614   3.217  62.684  1.00  0.00    -0.078 C  
HETATM   29  O   UNL     1      -7.226   3.031  62.430  1.00  0.00    -0.035 OA 
HETATM   30  H   UNL     1      -7.032   3.196  61.514  1.00  0.00     0.000 HD 
ENDBRANCH  27  28
ENDBRANCH  24  27
ENDBRANCH  20  21
ENDBRANCH  19  20
ENDBRANCH  18  19
ENDBRANCH  12  18
ENDBRANCH   2   4
TORSDOF 7
ENDMDL
MODEL      139
REMARK 921   NORMALIZED FREE ENERGY PREDICTED BY IDOCK:   -4.16 KCAL/MOL
REMARK 922        TOTAL FREE ENERGY PREDICTED BY IDOCK:   -6.62 KCAL/MOL
REMARK 923 INTER-LIGAND FREE ENERGY PREDICTED BY IDOCK:   -6.27 KCAL/MOL
REMARK 924 INTRA-LIGAND FREE ENERGY PREDICTED BY IDOCK:   -0.35 KCAL/MOL
REMARK 927      BINDING AFFINITY PREDICTED BY RF-SCORE:    0.00 PKD
ROOT
HETATM    1  C   UNL     1     -14.174   7.927  71.323  1.00  0.00    -0.376 C  
HETATM    2  C   UNL     1     -12.806   7.906  71.949  1.00  0.00    -0.308 C  
HETATM    3  O   UNL     1     -12.455   8.773  72.748  1.00  0.00    -0.308 OA 
ENDROOT
BRANCH   2   4
HETATM    4  C   UNL     1     -11.871   6.803  71.586  1.00  0.00    -0.370 A  
HETATM    5  C   UNL     1     -11.255   6.015  72.548  1.00  0.00    -0.333 A  
HETATM    6  C   UNL     1     -10.400   4.998  72.144  1.00  0.00    -0.276 A  
HETATM    7  C   UNL     1     -10.141   4.752  70.787  1.00  0.00    -0.216 A  
HETATM    8  S   UNL     1      -9.027   3.410  70.476  1.00  0.00    -0.108 SA 
HETATM    9  C   UNL     1      -8.928   3.386  68.708  1.00  0.00    -0.129 A  
HETATM   10  C   UNL     1      -9.625   4.281  67.864  1.00  0.00    -0.152 A  
HETATM   11  C   UNL     1      -9.412   4.090  66.480  1.00  0.00    -0.208 A  
HETATM   12  N   UNL     1     -10.472   5.304  68.393  1.00  0.00    -0.120 NA 
HETATM   13  C   UNL     1     -10.738   5.534  69.778  1.00  0.00    -0.285 A  
HETATM   14  C   UNL     1      -8.563   3.097  65.963  1.00  0.00    -0.119 A  
HETATM   15  C   UNL     1     -11.608   6.556  70.226  1.00  0.00    -0.473 A  
HETATM   16  C   UNL     1      -8.076   2.392  68.184  1.00  0.00    -0.067 A  
HETATM   17  C   UNL     1      -7.890   2.246  66.818  1.00  0.00    -0.071 A  
BRANCH  12  18
HETATM   18  C   UNL     1     -11.120   6.240  67.444  1.00  0.00    -0.287 C  
BRANCH  18  19
HETATM   19  C   UNL     1     -10.136   7.319  66.966  1.00  0.00    -0.316 C  
BRANCH  19  20
HETATM   20  C   UNL     1     -10.657   8.732  67.267  1.00  0.00    -0.233 C  
BRANCH  20  21
HETATM   21  N   UNL     1     -10.000   9.765  66.447  1.00  0.00    -0.233 NA 
HETATM   22  C   UNL     1      -9.353  10.807  67.266  1.00  0.00    -0.151 C  
HETATM   23  C   UNL     1      -8.094  10.312  68.000  1.00  0.00    -0.106 C  
HETATM   24  N   UNL     1      -7.044   9.829  67.081  1.00  0.00    -0.085 NA 
HETATM   25  C   UNL     1      -7.645   8.790  66.202  1.00  0.00    -0.094 C  
HETATM   26  C   UNL     1      -8.995   9.177  65.535  1.00  0.00    -0.205 C  
BRANCH  24  27
HETATM   27  C   UNL     1      -6.466  10.926  66.264  1.00  0.00    -0.129 C  
BRANCH  27  28
HETATM   28  C   UNL     1      -5.561  10.418  65.129  1.00  0.00    -0.137 C  
HETATM   29  O   UNL     1      -6.096  10.794  63.864  1.00  0.00    -0.371 OA 
HETATM   30  H   UNL     1      -5.537  10.480  63.163  1.00  0.00     0.000 HD 
ENDBRANCH  27  28
ENDBRANCH  24  27
ENDBRANCH  20  21
ENDBRANCH  19  20
ENDBRANCH  18  19
ENDBRANCH  12  18
ENDBRANCH   2   4
TORSDOF 7
ENDMDL
MODEL      140
REMARK 921   NORMALIZED FREE ENERGY PREDICTED BY IDOCK:   -4.15 KCAL/MOL
REMARK 922        TOTAL FREE ENERGY PREDICTED BY IDOCK:   -6.61 KCAL/MOL
REMARK 923 INTER-LIGAND FREE ENERGY PREDICTED BY IDOCK:   -6.32 KCAL/MOL
REMARK 924 INTRA-LIGAND FREE ENERGY PREDICTED BY IDOCK:   -0.29 KCAL/MOL
REMARK 927      BINDING AFFINITY PREDICTED BY RF-SCORE:    0.00 PKD
ROOT
HETATM    1  C   UNL     1      -6.827  18.719  66.313  1.00  0.00    -0.254 C  
HETATM    2  C   UNL     1      -7.974  17.744  66.283  1.00  0.00    -0.247 C  
HETATM    3  O   UNL     1      -9.068  18.059  65.818  1.00  0.00    -0.482 OA 
ENDROOT
BRANCH   2   4
HETATM    4  C   UNL     1      -7.760  16.374  66.828  1.00  0.00    -0.298 A  
HETATM    5  C   UNL     1      -6.571  16.002  67.441  1.00  0.00    -0.224 A  
HETATM    6  C   UNL     1      -6.439  14.711  67.934  1.00  0.00    -0.177 A  
HETATM    7  C   UNL     1      -7.475  13.772  67.824  1.00  0.00    -0.163 A  
HETATM    8  S   UNL     1      -7.113  12.183  68.518  1.00  0.00    -0.104 SA 
HETATM    9  C   UNL     1      -8.601  11.273  68.206  1.00  0.00    -0.153 A  
HETATM   10  C   UNL     1      -9.733  11.808  67.550  1.00  0.00    -0.180 A  
HETATM   11  C   UNL     1     -10.820  10.916  67.405  1.00  0.00    -0.333 A  
HETATM   12  N   UNL     1      -9.754  13.154  67.069  1.00  0.00    -0.234 NA 
HETATM   13  C   UNL     1      -8.695  14.104  67.201  1.00  0.00    -0.224 A  
HETATM   14  C   UNL     1     -10.790   9.587  67.861  1.00  0.00    -0.240 A  
HETATM   15  C   UNL     1      -8.798  15.430  66.716  1.00  0.00    -0.300 A  
HETATM   16  C   UNL     1      -8.575   9.938  68.661  1.00  0.00    -0.119 A  
HETATM   17  C   UNL     1      -9.662   9.095  68.490  1.00  0.00    -0.166 A  
BRANCH  12  18
HETATM   18  C   UNL     1     -10.957  13.620  66.339  1.00  0.00    -0.297 C  
BRANCH  18  19
HETATM   19  C   UNL     1     -12.064  14.060  67.310  1.00  0.00    -0.405 C  
BRANCH  19  20
HETATM   20  C   UNL     1     -11.580  14.033  68.767  1.00  0.00    -0.331 C  
BRANCH  20  21
HETATM   21  N   UNL     1     -11.830  15.303  69.471  1.00  0.00    -0.328 NA 
HETATM   22  C   UNL     1     -13.246  15.471  69.846  1.00  0.00     0.562 C  
HETATM   23  C   UNL     1     -13.693  14.530  70.979  1.00  0.00    -0.184 C  
HETATM   24  N   UNL     1     -12.931  14.732  72.228  1.00  0.00    -0.321 NA 
HETATM   25  C   UNL     1     -11.484  14.604  71.910  1.00  0.00     0.184 C  
HETATM   26  C   UNL     1     -10.993  15.426  70.684  1.00  0.00    -0.319 C  
BRANCH  24  27
HETATM   27  C   UNL     1     -13.210  16.052  72.848  1.00  0.00    -0.461 C  
BRANCH  27  28
HETATM   28  C   UNL     1     -12.356  16.323  74.098  1.00  0.00    -0.518 C  
HETATM   29  O   UNL     1     -11.661  17.559  73.964  1.00  0.00     0.004 OA 
HETATM   30  H   UNL     1     -11.133  17.725  74.736  1.00  0.00     0.000 HD 
ENDBRANCH  27  28
ENDBRANCH  24  27
ENDBRANCH  20  21
ENDBRANCH  19  20
ENDBRANCH  18  19
ENDBRANCH  12  18
ENDBRANCH   2   4
TORSDOF 7
ENDMDL
MODEL      141
REMARK 921   NORMALIZED FREE ENERGY PREDICTED BY IDOCK:   -4.14 KCAL/MOL
REMARK 922        TOTAL FREE ENERGY PREDICTED BY IDOCK:   -6.60 KCAL/MOL
REMARK 923 INTER-LIGAND FREE ENERGY PREDICTED BY IDOCK:   -5.83 KCAL/MOL
REMARK 924 INTRA-LIGAND FREE ENERGY PREDICTED BY IDOCK:   -0.76 KCAL/MOL
REMARK 927      BINDING AFFINITY PREDICTED BY RF-SCORE:    0.00 PKD
ROOT
HETATM    1  C   UNL     1      -7.010   8.546  72.401  1.00  0.00    -0.081 C  
HETATM    2  C   UNL     1      -8.386   8.121  71.965  1.00  0.00    -0.152 C  
HETATM    3  O   UNL     1      -9.384   8.769  72.276  1.00  0.00    -0.314 OA 
ENDROOT
BRANCH   2   4
HETATM    4  C   UNL     1      -8.525   6.889  71.137  1.00  0.00    -0.123 A  
HETATM    5  C   UNL     1      -8.614   5.626  71.707  1.00  0.00    -0.135 A  
HETATM    6  C   UNL     1      -8.749   4.518  70.880  1.00  0.00    -0.131 A  
HETATM    7  C   UNL     1      -8.793   4.644  69.484  1.00  0.00    -0.084 A  
HETATM    8  S   UNL     1      -8.972   3.117  68.606  1.00  0.00    -0.151 SA 
HETATM    9  C   UNL     1      -8.987   3.638  66.913  1.00  0.00    -0.144 A  
HETATM   10  C   UNL     1      -8.875   4.985  66.499  1.00  0.00    -0.112 A  
HETATM   11  C   UNL     1      -8.914   5.188  65.101  1.00  0.00    -0.129 A  
HETATM   12  N   UNL     1      -8.726   6.049  67.442  1.00  0.00    -0.106 NA 
HETATM   13  C   UNL     1      -8.696   5.907  68.864  1.00  0.00    -0.116 A  
HETATM   14  C   UNL     1      -9.041   4.139  64.175  1.00  0.00    -0.147 A  
HETATM   15  C   UNL     1      -8.567   7.013  69.737  1.00  0.00    -0.141 A  
HETATM   16  C   UNL     1      -9.113   2.588  65.980  1.00  0.00    -0.097 A  
HETATM   17  C   UNL     1      -9.139   2.833  64.616  1.00  0.00    -0.132 A  
BRANCH  12  18
HETATM   18  C   UNL     1      -8.554   7.427  66.925  1.00  0.00    -0.120 C  
BRANCH  18  19
HETATM   19  C   UNL     1      -9.911   8.113  66.700  1.00  0.00    -0.331 C  
BRANCH  19  20
HETATM   20  C   UNL     1      -9.767   9.388  65.858  1.00  0.00    -0.285 C  
BRANCH  20  21
HETATM   21  N   UNL     1      -9.413  10.566  66.669  1.00  0.00    -0.165 NA 
HETATM   22  C   UNL     1      -9.688  11.835  65.970  1.00  0.00    -0.232 C  
HETATM   23  C   UNL     1     -11.190  12.141  65.829  1.00  0.00    -0.339 C  
HETATM   24  N   UNL     1     -11.879  12.254  67.130  1.00  0.00    -0.566 NA 
HETATM   25  C   UNL     1     -11.614  11.009  67.901  1.00  0.00    -0.226 C  
HETATM   26  C   UNL     1     -10.125  10.566  67.966  1.00  0.00    -0.165 C  
BRANCH  24  27
HETATM   27  C   UNL     1     -11.433  13.443  67.900  1.00  0.00    -0.315 C  
BRANCH  27  28
HETATM   28  C   UNL     1     -12.155  13.593  69.249  1.00  0.00    -0.314 C  
HETATM   29  O   UNL     1     -11.211  13.613  70.315  1.00  0.00    -0.480 OA 
HETATM   30  H   UNL     1     -11.658  13.705  71.149  1.00  0.00     0.000 HD 
ENDBRANCH  27  28
ENDBRANCH  24  27
ENDBRANCH  20  21
ENDBRANCH  19  20
ENDBRANCH  18  19
ENDBRANCH  12  18
ENDBRANCH   2   4
TORSDOF 7
ENDMDL
MODEL      142
REMARK 921   NORMALIZED FREE ENERGY PREDICTED BY IDOCK:   -4.13 KCAL/MOL
REMARK 922        TOTAL FREE ENERGY PREDICTED BY IDOCK:   -6.58 KCAL/MOL
REMARK 923 INTER-LIGAND FREE ENERGY PREDICTED BY IDOCK:   -5.67 KCAL/MOL
REMARK 924 INTRA-LIGAND FREE ENERGY PREDICTED BY IDOCK:   -0.91 KCAL/MOL
REMARK 927      BINDING AFFINITY PREDICTED BY RF-SCORE:    0.00 PKD
ROOT
HETATM    1  C   UNL     1      -6.905   8.288  62.331  1.00  0.00    -0.090 C  
HETATM    2  C   UNL     1      -7.464   8.403  63.723  1.00  0.00    -0.120 C  
HETATM    3  O   UNL     1      -7.136   7.616  64.610  1.00  0.00    -0.060 OA 
ENDROOT
BRANCH   2   4
HETATM    4  C   UNL     1      -8.428   9.500  64.018  1.00  0.00    -0.192 A  
HETATM    5  C   UNL     1      -9.151  10.133  63.015  1.00  0.00    -0.296 A  
HETATM    6  C   UNL     1     -10.040  11.145  63.358  1.00  0.00    -0.439 A  
HETATM    7  C   UNL     1     -10.221  11.544  64.690  1.00  0.00    -0.285 A  
HETATM    8  S   UNL     1     -11.400  12.845  64.921  1.00  0.00    -0.322 SA 
HETATM    9  C   UNL     1     -11.373  13.091  66.674  1.00  0.00    -0.325 A  
HETATM   10  C   UNL     1     -10.558  12.355  67.564  1.00  0.00    -0.219 A  
HETATM   11  C   UNL     1     -10.691  12.703  68.928  1.00  0.00    -0.201 A  
HETATM   12  N   UNL     1      -9.665  11.340  67.098  1.00  0.00    -0.180 NA 
HETATM   13  C   UNL     1      -9.501  10.934  65.737  1.00  0.00    -0.211 A  
HETATM   14  C   UNL     1     -11.554  13.714  69.382  1.00  0.00    -0.368 A  
HETATM   15  C   UNL     1      -8.610   9.904  65.353  1.00  0.00    -0.164 A  
HETATM   16  C   UNL     1     -12.237  14.106  67.135  1.00  0.00    -0.348 A  
HETATM   17  C   UNL     1     -12.329  14.420  68.482  1.00  0.00    -0.039 A  
BRANCH  12  18
HETATM   18  C   UNL     1      -8.801  10.655  68.088  1.00  0.00    -0.134 C  
BRANCH  18  19
HETATM   19  C   UNL     1      -9.528   9.467  68.737  1.00  0.00    -0.147 C  
BRANCH  19  20
HETATM   20  C   UNL     1      -8.725   8.166  68.592  1.00  0.00    -0.134 C  
BRANCH  20  21
HETATM   21  N   UNL     1      -9.582   6.968  68.601  1.00  0.00    -0.138 NA 
HETATM   22  C   UNL     1     -10.548   6.956  67.486  1.00  0.00    -0.281 C  
HETATM   23  C   UNL     1      -9.893   6.716  66.115  1.00  0.00     0.145 C  
HETATM   24  N   UNL     1      -9.186   5.422  66.033  1.00  0.00    -0.157 NA 
HETATM   25  C   UNL     1      -8.212   5.358  67.155  1.00  0.00    -0.104 C  
HETATM   26  C   UNL     1      -8.779   5.726  68.555  1.00  0.00    -0.111 C  
BRANCH  24  27
HETATM   27  C   UNL     1     -10.119   4.268  66.091  1.00  0.00    -0.187 C  
BRANCH  27  28
HETATM   28  C   UNL     1     -10.154   3.455  64.786  1.00  0.00    -0.037 C  
HETATM   29  O   UNL     1     -11.382   3.673  64.100  1.00  0.00    -0.524 OA 
HETATM   30  H   UNL     1     -11.403   3.170  63.294  1.00  0.00     0.000 HD 
ENDBRANCH  27  28
ENDBRANCH  24  27
ENDBRANCH  20  21
ENDBRANCH  19  20
ENDBRANCH  18  19
ENDBRANCH  12  18
ENDBRANCH   2   4
TORSDOF 7
ENDMDL
MODEL      143
REMARK 921   NORMALIZED FREE ENERGY PREDICTED BY IDOCK:   -4.11 KCAL/MOL
REMARK 922        TOTAL FREE ENERGY PREDICTED BY IDOCK:   -6.54 KCAL/MOL
REMARK 923 INTER-LIGAND FREE ENERGY PREDICTED BY IDOCK:   -5.88 KCAL/MOL
REMARK 924 INTRA-LIGAND FREE ENERGY PREDICTED BY IDOCK:   -0.66 KCAL/MOL
REMARK 927      BINDING AFFINITY PREDICTED BY RF-SCORE:    0.00 PKD
ROOT
HETATM    1  C   UNL     1      -9.288   7.644  68.661  1.00  0.00    -0.147 C  
HETATM    2  C   UNL     1      -9.820   8.982  69.097  1.00  0.00    -0.175 C  
HETATM    3  O   UNL     1     -10.861   9.076  69.746  1.00  0.00    -0.231 OA 
ENDROOT
BRANCH   2   4
HETATM    4  C   UNL     1      -9.056  10.208  68.732  1.00  0.00    -0.153 A  
HETATM    5  C   UNL     1      -7.764  10.147  68.225  1.00  0.00    -0.088 A  
HETATM    6  C   UNL     1      -7.109  11.327  67.897  1.00  0.00    -0.078 A  
HETATM    7  C   UNL     1      -7.718  12.578  68.070  1.00  0.00    -0.140 A  
HETATM    8  S   UNL     1      -6.721  13.961  67.590  1.00  0.00    -0.127 SA 
HETATM    9  C   UNL     1      -7.775  15.342  67.938  1.00  0.00    -0.136 A  
HETATM   10  C   UNL     1      -9.080  15.228  68.470  1.00  0.00    -0.192 A  
HETATM   11  C   UNL     1      -9.756  16.453  68.669  1.00  0.00    -0.239 A  
HETATM   12  N   UNL     1      -9.652  13.956  68.784  1.00  0.00    -0.132 NA 
HETATM   13  C   UNL     1      -9.024  12.687  68.590  1.00  0.00     0.050 A  
HETATM   14  C   UNL     1      -9.184  17.702  68.378  1.00  0.00    -0.288 A  
HETATM   15  C   UNL     1      -9.664  11.465  68.907  1.00  0.00    -0.105 A  
HETATM   16  C   UNL     1      -7.205  16.599  67.649  1.00  0.00    -0.158 A  
HETATM   17  C   UNL     1      -7.903  17.777  67.868  1.00  0.00    -0.231 A  
BRANCH  12  18
HETATM   18  C   UNL     1     -11.002  13.925  69.396  1.00  0.00    -0.126 C  
BRANCH  18  19
HETATM   19  C   UNL     1     -12.035  13.312  68.436  1.00  0.00    -0.336 C  
BRANCH  19  20
HETATM   20  C   UNL     1     -12.161  14.132  67.144  1.00  0.00    -0.313 C  
BRANCH  20  21
HETATM   21  N   UNL     1     -12.484  13.298  65.974  1.00  0.00    -0.390 NA 
HETATM   22  C   UNL     1     -12.256  14.004  64.699  1.00  0.00    -0.435 C  
HETATM   23  C   UNL     1     -10.766  14.218  64.378  1.00  0.00    -0.095 C  
HETATM   24  N   UNL     1     -10.013  12.953  64.265  1.00  0.00    -0.211 NA 
HETATM   25  C   UNL     1     -10.227  12.177  65.516  1.00  0.00    -0.265 C  
HETATM   26  C   UNL     1     -11.707  12.039  65.973  1.00  0.00    -0.241 C  
BRANCH  24  27
HETATM   27  C   UNL     1     -10.430  12.156  63.084  1.00  0.00    -0.166 C  
BRANCH  27  28
HETATM   28  C   UNL     1      -9.445  11.026  62.743  1.00  0.00    -0.334 C  
HETATM   29  O   UNL     1      -9.972   9.769  63.155  1.00  0.00    -0.403 OA 
HETATM   30  H   UNL     1      -9.363   9.070  62.944  1.00  0.00     0.000 HD 
ENDBRANCH  27  28
ENDBRANCH  24  27
ENDBRANCH  20  21
ENDBRANCH  19  20
ENDBRANCH  18  19
ENDBRANCH  12  18
ENDBRANCH   2   4
TORSDOF 7
ENDMDL
MODEL      144
REMARK 921   NORMALIZED FREE ENERGY PREDICTED BY IDOCK:   -4.11 KCAL/MOL
REMARK 922        TOTAL FREE ENERGY PREDICTED BY IDOCK:   -6.54 KCAL/MOL
REMARK 923 INTER-LIGAND FREE ENERGY PREDICTED BY IDOCK:   -5.86 KCAL/MOL
REMARK 924 INTRA-LIGAND FREE ENERGY PREDICTED BY IDOCK:   -0.69 KCAL/MOL
REMARK 927      BINDING AFFINITY PREDICTED BY RF-SCORE:    0.00 PKD
ROOT
HETATM    1  C   UNL     1      -7.383   8.176  72.479  1.00  0.00    -0.138 C  
HETATM    2  C   UNL     1      -8.427   8.484  71.440  1.00  0.00    -0.172 C  
HETATM    3  O   UNL     1      -9.394   9.199  71.698  1.00  0.00    -0.302 OA 
ENDROOT
BRANCH   2   4
HETATM    4  C   UNL     1      -8.268   7.907  70.075  1.00  0.00    -0.119 A  
HETATM    5  C   UNL     1      -7.933   6.574  69.875  1.00  0.00    -0.116 A  
HETATM    6  C   UNL     1      -7.807   6.096  68.576  1.00  0.00    -0.104 A  
HETATM    7  C   UNL     1      -8.006   6.927  67.465  1.00  0.00    -0.112 A  
HETATM    8  S   UNL     1      -7.804   6.130  65.896  1.00  0.00    -0.112 SA 
HETATM    9  C   UNL     1      -8.117   7.441  64.747  1.00  0.00    -0.104 A  
HETATM   10  C   UNL     1      -8.442   8.764  65.126  1.00  0.00    -0.174 A  
HETATM   11  C   UNL     1      -8.659   9.659  64.053  1.00  0.00    -0.213 A  
HETATM   12  N   UNL     1      -8.532   9.150  66.499  1.00  0.00    -0.121 NA 
HETATM   13  C   UNL     1      -8.339   8.288  67.623  1.00  0.00    -0.127 A  
HETATM   14  C   UNL     1      -8.551   9.282  62.704  1.00  0.00    -0.224 A  
HETATM   15  C   UNL     1      -8.465   8.739  68.958  1.00  0.00    -0.130 A  
HETATM   16  C   UNL     1      -8.009   7.068  63.392  1.00  0.00    -0.062 A  
HETATM   17  C   UNL     1      -8.223   7.982  62.371  1.00  0.00    -0.150 A  
BRANCH  12  18
HETATM   18  C   UNL     1      -8.817  10.570  66.813  1.00  0.00    -0.131 C  
BRANCH  18  19
HETATM   19  C   UNL     1     -10.330  10.838  66.858  1.00  0.00    -0.290 C  
BRANCH  19  20
HETATM   20  C   UNL     1     -10.713  12.054  66.002  1.00  0.00    -0.279 C  
BRANCH  20  21
HETATM   21  N   UNL     1     -11.441  13.080  66.769  1.00  0.00    -0.327 NA 
HETATM   22  C   UNL     1     -10.587  13.746  67.770  1.00  0.00    -0.246 C  
HETATM   23  C   UNL     1      -9.532  14.679  67.150  1.00  0.00    -0.229 C  
HETATM   24  N   UNL     1     -10.127  15.772  66.355  1.00  0.00    -0.275 NA 
HETATM   25  C   UNL     1     -11.028  15.164  65.339  1.00  0.00    -0.374 C  
HETATM   26  C   UNL     1     -12.030  14.106  65.881  1.00  0.00    -0.409 C  
BRANCH  24  27
HETATM   27  C   UNL     1     -10.875  16.737  67.200  1.00  0.00    -0.102 C  
BRANCH  27  28
HETATM   28  C   UNL     1      -9.966  17.775  67.877  1.00  0.00    -0.322 C  
HETATM   29  O   UNL     1     -10.509  19.083  67.725  1.00  0.00    -0.392 OA 
HETATM   30  H   UNL     1      -9.947  19.724  68.143  1.00  0.00     0.000 HD 
ENDBRANCH  27  28
ENDBRANCH  24  27
ENDBRANCH  20  21
ENDBRANCH  19  20
ENDBRANCH  18  19
ENDBRANCH  12  18
ENDBRANCH   2   4
TORSDOF 7
ENDMDL
MODEL      145
REMARK 921   NORMALIZED FREE ENERGY PREDICTED BY IDOCK:   -4.09 KCAL/MOL
REMARK 922        TOTAL FREE ENERGY PREDICTED BY IDOCK:   -6.52 KCAL/MOL
REMARK 923 INTER-LIGAND FREE ENERGY PREDICTED BY IDOCK:   -5.56 KCAL/MOL
REMARK 924 INTRA-LIGAND FREE ENERGY PREDICTED BY IDOCK:   -0.96 KCAL/MOL
REMARK 927      BINDING AFFINITY PREDICTED BY RF-SCORE:    0.00 PKD
ROOT
HETATM    1  C   UNL     1     -13.325   8.935  72.708  1.00  0.00    -0.251 C  
HETATM    2  C   UNL     1     -11.927   8.978  72.153  1.00  0.00    -0.325 C  
HETATM    3  O   UNL     1     -10.975   8.520  72.782  1.00  0.00    -0.251 OA 
ENDROOT
BRANCH   2   4
HETATM    4  C   UNL     1     -11.710   9.589  70.810  1.00  0.00    -0.370 A  
HETATM    5  C   UNL     1     -12.491  10.638  70.345  1.00  0.00    -0.421 A  
HETATM    6  C   UNL     1     -12.233  11.168  69.087  1.00  0.00    -0.244 A  
HETATM    7  C   UNL     1     -11.206  10.665  68.275  1.00  0.00    -0.301 A  
HETATM    8  S   UNL     1     -11.033  11.476  66.709  1.00  0.00    -0.294 SA 
HETATM    9  C   UNL     1      -9.682  10.606  65.965  1.00  0.00    -0.208 A  
HETATM   10  C   UNL     1      -8.992   9.537  66.583  1.00  0.00    -0.146 A  
HETATM   11  C   UNL     1      -7.939   8.982  65.821  1.00  0.00    -0.103 A  
HETATM   12  N   UNL     1      -9.354   9.063  67.883  1.00  0.00    -0.140 NA 
HETATM   13  C   UNL     1     -10.395   9.595  68.705  1.00  0.00    -0.203 A  
HETATM   14  C   UNL     1      -7.598   9.436  64.536  1.00  0.00    -0.110 A  
HETATM   15  C   UNL     1     -10.682   9.085  69.993  1.00  0.00    -0.247 A  
HETATM   16  C   UNL     1      -9.336  11.057  64.675  1.00  0.00    -0.235 A  
HETATM   17  C   UNL     1      -8.300  10.477  63.959  1.00  0.00    -0.091 A  
BRANCH  12  18
HETATM   18  C   UNL     1      -8.621   7.900  68.435  1.00  0.00    -0.128 C  
BRANCH  18  19
HETATM   19  C   UNL     1      -9.325   6.579  68.085  1.00  0.00    -0.109 C  
BRANCH  19  20
HETATM   20  C   UNL     1      -8.646   5.380  68.762  1.00  0.00    -0.098 C  
BRANCH  20  21
HETATM   21  N   UNL     1      -9.522   4.710  69.738  1.00  0.00    -0.149 NA 
HETATM   22  C   UNL     1      -8.953   3.441  70.228  1.00  0.00    -0.108 C  
HETATM   23  C   UNL     1      -7.741   3.634  71.157  1.00  0.00    -0.051 C  
HETATM   24  N   UNL     1      -8.062   4.412  72.369  1.00  0.00    -0.099 NA 
HETATM   25  C   UNL     1      -8.671   5.700  71.941  1.00  0.00    -0.135 C  
HETATM   26  C   UNL     1      -9.815   5.584  70.895  1.00  0.00    -0.183 C  
BRANCH  24  27
HETATM   27  C   UNL     1      -8.983   3.681  73.277  1.00  0.00    -0.098 C  
BRANCH  27  28
HETATM   28  C   UNL     1      -9.431   4.522  74.484  1.00  0.00    -0.123 C  
HETATM   29  O   UNL     1     -10.851   4.606  74.529  1.00  0.00    -0.339 OA 
HETATM   30  H   UNL     1     -11.128   5.126  75.274  1.00  0.00     0.000 HD 
ENDBRANCH  27  28
ENDBRANCH  24  27
ENDBRANCH  20  21
ENDBRANCH  19  20
ENDBRANCH  18  19
ENDBRANCH  12  18
ENDBRANCH   2   4
TORSDOF 7
ENDMDL
MODEL      146
REMARK 921   NORMALIZED FREE ENERGY PREDICTED BY IDOCK:   -4.07 KCAL/MOL
REMARK 922        TOTAL FREE ENERGY PREDICTED BY IDOCK:   -6.49 KCAL/MOL
REMARK 923 INTER-LIGAND FREE ENERGY PREDICTED BY IDOCK:   -6.67 KCAL/MOL
REMARK 924 INTRA-LIGAND FREE ENERGY PREDICTED BY IDOCK:    0.17 KCAL/MOL
REMARK 927      BINDING AFFINITY PREDICTED BY RF-SCORE:    0.00 PKD
ROOT
HETATM    1  C   UNL     1     -12.492  14.769  64.353  1.00  0.00    -0.274 C  
HETATM    2  C   UNL     1     -12.310  13.445  65.044  1.00  0.00    -0.436 C  
HETATM    3  O   UNL     1     -13.186  12.582  65.012  1.00  0.00    -0.700 OA 
ENDROOT
BRANCH   2   4
HETATM    4  C   UNL     1     -11.036  13.188  65.773  1.00  0.00    -0.295 A  
HETATM    5  C   UNL     1     -10.313  14.211  66.373  1.00  0.00    -0.287 A  
HETATM    6  C   UNL     1      -9.136  13.904  67.044  1.00  0.00    -0.259 A  
HETATM    7  C   UNL     1      -8.659  12.588  67.126  1.00  0.00    -0.200 A  
HETATM    8  S   UNL     1      -7.145  12.403  68.027  1.00  0.00    -0.113 SA 
HETATM    9  C   UNL     1      -6.842  10.661  67.928  1.00  0.00    -0.073 A  
HETATM   10  C   UNL     1      -7.689   9.747  67.260  1.00  0.00    -0.095 A  
HETATM   11  C   UNL     1      -7.269   8.397  67.303  1.00  0.00    -0.084 A  
HETATM   12  N   UNL     1      -8.875  10.177  66.587  1.00  0.00    -0.132 NA 
HETATM   13  C   UNL     1      -9.356  11.521  66.523  1.00  0.00    -0.197 A  
HETATM   14  C   UNL     1      -6.093   7.979  67.948  1.00  0.00    -0.047 A  
HETATM   15  C   UNL     1     -10.554  11.869  65.855  1.00  0.00    -0.306 A  
HETATM   16  C   UNL     1      -5.662  10.236  68.573  1.00  0.00    -0.037 A  
HETATM   17  C   UNL     1      -5.285   8.902  68.584  1.00  0.00    -0.034 A  
BRANCH  12  18
HETATM   18  C   UNL     1      -9.676   9.166  65.858  1.00  0.00    -0.266 C  
BRANCH  18  19
HETATM   19  C   UNL     1     -10.332   8.170  66.828  1.00  0.00    -0.361 C  
BRANCH  19  20
HETATM   20  C   UNL     1     -10.845   8.869  68.094  1.00  0.00    -0.002 C  
BRANCH  20  21
HETATM   21  N   UNL     1     -10.191   8.376  69.319  1.00  0.00    -0.204 NA 
HETATM   22  C   UNL     1     -10.823   8.899  70.545  1.00  0.00    -0.236 C  
HETATM   23  C   UNL     1     -12.215   8.302  70.816  1.00  0.00     0.003 C  
HETATM   24  N   UNL     1     -12.191   6.836  70.984  1.00  0.00    -0.376 NA 
HETATM   25  C   UNL     1     -11.535   6.247  69.785  1.00  0.00    -0.379 C  
HETATM   26  C   UNL     1     -10.184   6.898  69.373  1.00  0.00    -0.182 C  
BRANCH  24  27
HETATM   27  C   UNL     1     -11.477   6.424  72.219  1.00  0.00    -0.298 C  
BRANCH  27  28
HETATM   28  C   UNL     1     -11.084   7.613  73.111  1.00  0.00    -0.317 C  
HETATM   29  O   UNL     1     -10.411   7.153  74.279  1.00  0.00    -0.477 OA 
HETATM   30  H   UNL     1     -10.169   7.888  74.831  1.00  0.00     0.000 HD 
ENDBRANCH  27  28
ENDBRANCH  24  27
ENDBRANCH  20  21
ENDBRANCH  19  20
ENDBRANCH  18  19
ENDBRANCH  12  18
ENDBRANCH   2   4
TORSDOF 7
ENDMDL
MODEL      147
REMARK 921   NORMALIZED FREE ENERGY PREDICTED BY IDOCK:   -4.01 KCAL/MOL
REMARK 922        TOTAL FREE ENERGY PREDICTED BY IDOCK:   -6.40 KCAL/MOL
REMARK 923 INTER-LIGAND FREE ENERGY PREDICTED BY IDOCK:   -5.75 KCAL/MOL
REMARK 924 INTRA-LIGAND FREE ENERGY PREDICTED BY IDOCK:   -0.65 KCAL/MOL
REMARK 927      BINDING AFFINITY PREDICTED BY RF-SCORE:    0.00 PKD
ROOT
HETATM    1  C   UNL     1      -5.137  11.700  70.924  1.00  0.00    -0.127 C  
HETATM    2  C   UNL     1      -6.115  10.958  70.055  1.00  0.00    -0.121 C  
HETATM    3  O   UNL     1      -6.668  11.506  69.102  1.00  0.00    -0.089 OA 
ENDROOT
BRANCH   2   4
HETATM    4  C   UNL     1      -6.406   9.529  70.365  1.00  0.00    -0.073 A  
HETATM    5  C   UNL     1      -5.492   8.518  70.100  1.00  0.00    -0.021 A  
HETATM    6  C   UNL     1      -5.821   7.207  70.419  1.00  0.00    -0.024 A  
HETATM    7  C   UNL     1      -7.056   6.880  70.999  1.00  0.00    -0.071 A  
HETATM    8  S   UNL     1      -7.285   5.156  71.335  1.00  0.00    -0.071 SA 
HETATM    9  C   UNL     1      -8.908   5.108  72.041  1.00  0.00    -0.130 A  
HETATM   10  C   UNL     1      -9.722   6.248  72.235  1.00  0.00    -0.155 A  
HETATM   11  C   UNL     1     -10.983   5.993  72.819  1.00  0.00    -0.299 A  
HETATM   12  N   UNL     1      -9.284   7.554  71.854  1.00  0.00    -0.132 NA 
HETATM   13  C   UNL     1      -8.016   7.874  71.276  1.00  0.00    -0.092 A  
HETATM   14  C   UNL     1     -11.419   4.705  73.174  1.00  0.00    -0.317 A  
HETATM   15  C   UNL     1      -7.644   9.199  70.944  1.00  0.00    -0.146 A  
HETATM   16  C   UNL     1      -9.351   3.817  72.398  1.00  0.00    -0.168 A  
HETATM   17  C   UNL     1     -10.601   3.612  72.962  1.00  0.00    -0.252 A  
BRANCH  12  18
HETATM   18  C   UNL     1     -10.219   8.689  72.035  1.00  0.00    -0.337 C  
BRANCH  18  19
HETATM   19  C   UNL     1     -11.005   8.976  70.746  1.00  0.00    -0.315 C  
BRANCH  19  20
HETATM   20  C   UNL     1     -10.749  10.400  70.232  1.00  0.00    -0.187 C  
BRANCH  20  21
HETATM   21  N   UNL     1     -11.729  10.821  69.216  1.00  0.00    -0.302 NA 
HETATM   22  C   UNL     1     -11.958  12.278  69.223  1.00  0.00    -0.253 C  
HETATM   23  C   UNL     1     -10.762  13.085  68.685  1.00  0.00    -0.248 C  
HETATM   24  N   UNL     1     -10.422  12.749  67.288  1.00  0.00    -0.232 NA 
HETATM   25  C   UNL     1     -10.207  11.279  67.208  1.00  0.00    -0.194 C  
HETATM   26  C   UNL     1     -11.316  10.404  67.858  1.00  0.00    -0.173 C  
BRANCH  24  27
HETATM   27  C   UNL     1     -11.481  13.170  66.336  1.00  0.00    -0.334 C  
BRANCH  27  28
HETATM   28  C   UNL     1     -10.965  14.124  65.246  1.00  0.00    -0.337 C  
HETATM   29  O   UNL     1      -9.542  14.179  65.269  1.00  0.00    -0.552 OA 
HETATM   30  H   UNL     1      -9.224  14.768  64.596  1.00  0.00     0.000 HD 
ENDBRANCH  27  28
ENDBRANCH  24  27
ENDBRANCH  20  21
ENDBRANCH  19  20
ENDBRANCH  18  19
ENDBRANCH  12  18
ENDBRANCH   2   4
TORSDOF 7
ENDMDL
MODEL      148
REMARK 921   NORMALIZED FREE ENERGY PREDICTED BY IDOCK:   -4.00 KCAL/MOL
REMARK 922        TOTAL FREE ENERGY PREDICTED BY IDOCK:   -6.40 KCAL/MOL
REMARK 923 INTER-LIGAND FREE ENERGY PREDICTED BY IDOCK:   -7.63 KCAL/MOL
REMARK 924 INTRA-LIGAND FREE ENERGY PREDICTED BY IDOCK:    1.23 KCAL/MOL
REMARK 927      BINDING AFFINITY PREDICTED BY RF-SCORE:    0.00 PKD
ROOT
HETATM    1  C   UNL     1     -14.067   9.339  72.128  1.00  0.00    -0.354 C  
HETATM    2  C   UNL     1     -12.771   9.876  71.584  1.00  0.00    -0.429 C  
HETATM    3  O   UNL     1     -11.819   9.132  71.353  1.00  0.00    -0.298 OA 
ENDROOT
BRANCH   2   4
HETATM    4  C   UNL     1     -12.657  11.338  71.322  1.00  0.00    -0.487 A  
HETATM    5  C   UNL     1     -13.217  12.284  72.171  1.00  0.00    -0.466 A  
HETATM    6  C   UNL     1     -13.068  13.633  71.873  1.00  0.00    -0.476 A  
HETATM    7  C   UNL     1     -12.371  14.062  70.734  1.00  0.00    -0.373 A  
HETATM    8  S   UNL     1     -12.289  15.820  70.533  1.00  0.00    -0.265 SA 
HETATM    9  C   UNL     1     -11.365  15.998  69.032  1.00  0.00    -0.363 A  
HETATM   10  C   UNL     1     -10.869  14.913  68.274  1.00  0.00    -0.257 A  
HETATM   11  C   UNL     1     -10.153  15.272  67.110  1.00  0.00    -0.240 A  
HETATM   12  N   UNL     1     -11.094  13.558  68.669  1.00  0.00    -0.258 NA 
HETATM   13  C   UNL     1     -11.796  13.135  69.841  1.00  0.00    -0.308 A  
HETATM   14  C   UNL     1      -9.950  16.604  66.713  1.00  0.00    -0.284 A  
HETATM   15  C   UNL     1     -11.960  11.771  70.179  1.00  0.00    -0.421 A  
HETATM   16  C   UNL     1     -11.160  17.334  68.629  1.00  0.00     0.037 A  
HETATM   17  C   UNL     1     -10.457  17.640  67.473  1.00  0.00    -0.365 A  
BRANCH  12  18
HETATM   18  C   UNL     1     -10.594  12.476  67.788  1.00  0.00    -0.219 C  
BRANCH  18  19
HETATM   19  C   UNL     1      -9.786  11.438  68.583  1.00  0.00    -0.199 C  
BRANCH  19  20
HETATM   20  C   UNL     1      -8.556  10.959  67.799  1.00  0.00    -0.128 C  
BRANCH  20  21
HETATM   21  N   UNL     1      -8.572  11.400  66.393  1.00  0.00    -0.178 NA 
HETATM   22  C   UNL     1      -7.278  11.186  65.720  1.00  0.00     0.193 C  
HETATM   23  C   UNL     1      -6.967   9.702  65.454  1.00  0.00    -0.095 C  
HETATM   24  N   UNL     1      -7.970   9.050  64.589  1.00  0.00    -0.121 NA 
HETATM   25  C   UNL     1      -9.310   9.256  65.202  1.00  0.00    -0.171 C  
HETATM   26  C   UNL     1      -9.635  10.718  65.622  1.00  0.00    -0.216 C  
BRANCH  24  27
HETATM   27  C   UNL     1      -7.947   9.582  63.203  1.00  0.00    -0.141 C  
BRANCH  27  28
HETATM   28  C   UNL     1      -9.259  10.277  62.804  1.00  0.00    -0.297 C  
HETATM   29  O   UNL     1      -8.998  11.598  62.339  1.00  0.00    -0.453 OA 
HETATM   30  H   UNL     1      -9.809  12.027  62.092  1.00  0.00     0.000 HD 
ENDBRANCH  27  28
ENDBRANCH  24  27
ENDBRANCH  20  21
ENDBRANCH  19  20
ENDBRANCH  18  19
ENDBRANCH  12  18
ENDBRANCH   2   4
TORSDOF 7
ENDMDL
MODEL      149
REMARK 921   NORMALIZED FREE ENERGY PREDICTED BY IDOCK:   -3.97 KCAL/MOL
REMARK 922        TOTAL FREE ENERGY PREDICTED BY IDOCK:   -6.35 KCAL/MOL
REMARK 923 INTER-LIGAND FREE ENERGY PREDICTED BY IDOCK:   -5.99 KCAL/MOL
REMARK 924 INTRA-LIGAND FREE ENERGY PREDICTED BY IDOCK:   -0.37 KCAL/MOL
REMARK 927      BINDING AFFINITY PREDICTED BY RF-SCORE:    0.00 PKD
ROOT
HETATM    1  C   UNL     1      -8.414   8.212  65.293  1.00  0.00    -0.157 C  
HETATM    2  C   UNL     1      -8.703   9.208  64.202  1.00  0.00    -0.141 C  
HETATM    3  O   UNL     1      -8.386   8.986  63.035  1.00  0.00    -0.179 OA 
ENDROOT
BRANCH   2   4
HETATM    4  C   UNL     1      -9.390  10.481  64.561  1.00  0.00    -0.299 A  
HETATM    5  C   UNL     1     -10.273  11.110  63.693  1.00  0.00    -0.444 A  
HETATM    6  C   UNL     1     -10.886  12.291  64.090  1.00  0.00    -0.412 A  
HETATM    7  C   UNL     1     -10.632  12.865  65.344  1.00  0.00    -0.289 A  
HETATM    8  S   UNL     1     -11.514  14.368  65.665  1.00  0.00    -0.341 SA 
HETATM    9  C   UNL     1     -10.965  14.804  67.291  1.00  0.00    -0.318 A  
HETATM   10  C   UNL     1     -10.039  14.045  68.044  1.00  0.00    -0.239 A  
HETATM   11  C   UNL     1      -9.737  14.565  69.324  1.00  0.00     0.007 A  
HETATM   12  N   UNL     1      -9.457  12.846  67.528  1.00  0.00    -0.192 NA 
HETATM   13  C   UNL     1      -9.736  12.265  66.252  1.00  0.00    -0.244 A  
HETATM   14  C   UNL     1     -10.295  15.754  69.821  1.00  0.00    -0.307 A  
HETATM   15  C   UNL     1      -9.135  11.060  65.817  1.00  0.00    -0.219 A  
HETATM   16  C   UNL     1     -11.521  15.998  67.795  1.00  0.00    -0.080 A  
HETATM   17  C   UNL     1     -11.189  16.475  69.054  1.00  0.00    -0.238 A  
BRANCH  12  18
HETATM   18  C   UNL     1      -8.450  12.141  68.356  1.00  0.00    -0.145 C  
BRANCH  18  19
HETATM   19  C   UNL     1      -7.023  12.580  67.992  1.00  0.00    -0.095 C  
BRANCH  19  20
HETATM   20  C   UNL     1      -7.008  13.973  67.348  1.00  0.00    -0.044 C  
BRANCH  20  21
HETATM   21  N   UNL     1      -5.769  14.717  67.636  1.00  0.00    -0.342 NA 
HETATM   22  C   UNL     1      -5.792  16.085  67.086  1.00  0.00     0.051 C  
HETATM   23  C   UNL     1      -6.759  17.025  67.827  1.00  0.00    -0.148 C  
HETATM   24  N   UNL     1      -6.425  17.184  69.256  1.00  0.00    -0.226 NA 
HETATM   25  C   UNL     1      -6.357  15.829  69.867  1.00  0.00    -0.146 C  
HETATM   26  C   UNL     1      -5.503  14.787  69.090  1.00  0.00    -0.095 C  
BRANCH  24  27
HETATM   27  C   UNL     1      -5.143  17.906  69.456  1.00  0.00    -0.182 C  
BRANCH  27  28
HETATM   28  C   UNL     1      -5.296  19.435  69.388  1.00  0.00    -0.189 C  
HETATM   29  O   UNL     1      -6.582  19.824  69.860  1.00  0.00    -0.336 OA 
HETATM   30  H   UNL     1      -6.676  20.769  69.817  1.00  0.00     0.000 HD 
ENDBRANCH  27  28
ENDBRANCH  24  27
ENDBRANCH  20  21
ENDBRANCH  19  20
ENDBRANCH  18  19
ENDBRANCH  12  18
ENDBRANCH   2   4
TORSDOF 7
ENDMDL
MODEL      150
REMARK 921   NORMALIZED FREE ENERGY PREDICTED BY IDOCK:   -3.97 KCAL/MOL
REMARK 922        TOTAL FREE ENERGY PREDICTED BY IDOCK:   -6.35 KCAL/MOL
REMARK 923 INTER-LIGAND FREE ENERGY PREDICTED BY IDOCK:   -5.72 KCAL/MOL
REMARK 924 INTRA-LIGAND FREE ENERGY PREDICTED BY IDOCK:   -0.64 KCAL/MOL
REMARK 927      BINDING AFFINITY PREDICTED BY RF-SCORE:    0.00 PKD
ROOT
HETATM    1  C   UNL     1     -10.059   7.168  73.785  1.00  0.00    -0.391 C  
HETATM    2  C   UNL     1      -9.120   7.504  72.658  1.00  0.00    -0.150 C  
HETATM    3  O   UNL     1      -7.946   7.137  72.674  1.00  0.00    -0.097 OA 
ENDROOT
BRANCH   2   4
HETATM    4  C   UNL     1      -9.639   8.294  71.506  1.00  0.00    -0.247 A  
HETATM    5  C   UNL     1     -10.775   9.086  71.610  1.00  0.00    -0.441 A  
HETATM    6  C   UNL     1     -11.203   9.804  70.501  1.00  0.00    -0.381 A  
HETATM    7  C   UNL     1     -10.519   9.744  69.278  1.00  0.00    -0.219 A  
HETATM    8  S   UNL     1     -11.220  10.733  67.986  1.00  0.00    -0.296 SA 
HETATM    9  C   UNL     1     -10.133  10.422  66.622  1.00  0.00    -0.224 A  
HETATM   10  C   UNL     1      -9.009   9.566  66.685  1.00  0.00    -0.146 A  
HETATM   11  C   UNL     1      -8.269   9.459  65.485  1.00  0.00    -0.127 A  
HETATM   12  N   UNL     1      -8.668   8.863  67.882  1.00  0.00    -0.129 NA 
HETATM   13  C   UNL     1      -9.367   8.945  69.126  1.00  0.00    -0.148 A  
HETATM   14  C   UNL     1      -8.618  10.135  64.304  1.00  0.00    -0.200 A  
HETATM   15  C   UNL     1      -8.956   8.233  70.278  1.00  0.00    -0.142 A  
HETATM   16  C   UNL     1     -10.479  11.097  65.434  1.00  0.00    -0.321 A  
HETATM   17  C   UNL     1      -9.728  10.956  64.277  1.00  0.00    -0.347 A  
BRANCH  12  18
HETATM   18  C   UNL     1      -7.510   7.939  67.848  1.00  0.00    -0.104 C  
BRANCH  18  19
HETATM   19  C   UNL     1      -7.967   6.478  67.711  1.00  0.00    -0.115 C  
BRANCH  19  20
HETATM   20  C   UNL     1      -6.983   5.655  66.867  1.00  0.00    -0.065 C  
BRANCH  20  21
HETATM   21  N   UNL     1      -7.287   5.711  65.427  1.00  0.00    -0.071 NA 
HETATM   22  C   UNL     1      -6.808   4.518  64.703  1.00  0.00    -0.045 C  
HETATM   23  C   UNL     1      -7.613   3.246  65.023  1.00  0.00    -0.077 C  
HETATM   24  N   UNL     1      -9.043   3.366  64.674  1.00  0.00    -0.127 NA 
HETATM   25  C   UNL     1      -9.582   4.575  65.354  1.00  0.00    -0.179 C  
HETATM   26  C   UNL     1      -8.738   5.870  65.185  1.00  0.00    -0.036 C  
BRANCH  24  27
HETATM   27  C   UNL     1      -9.257   3.459  63.208  1.00  0.00    -0.094 C  
BRANCH  27  28
HETATM   28  C   UNL     1     -10.720   3.222  62.797  1.00  0.00    -0.187 C  
HETATM   29  O   UNL     1     -11.310   2.224  63.624  1.00  0.00    -0.610 OA 
HETATM   30  H   UNL     1     -12.214   2.078  63.370  1.00  0.00     0.000 HD 
ENDBRANCH  27  28
ENDBRANCH  24  27
ENDBRANCH  20  21
ENDBRANCH  19  20
ENDBRANCH  18  19
ENDBRANCH  12  18
ENDBRANCH   2   4
TORSDOF 7
ENDMDL
MODEL      151
REMARK 921   NORMALIZED FREE ENERGY PREDICTED BY IDOCK:   -3.93 KCAL/MOL
REMARK 922        TOTAL FREE ENERGY PREDICTED BY IDOCK:   -6.29 KCAL/MOL
REMARK 923 INTER-LIGAND FREE ENERGY PREDICTED BY IDOCK:   -5.88 KCAL/MOL
REMARK 924 INTRA-LIGAND FREE ENERGY PREDICTED BY IDOCK:   -0.41 KCAL/MOL
REMARK 927      BINDING AFFINITY PREDICTED BY RF-SCORE:    0.00 PKD
ROOT
HETATM    1  C   UNL     1     -11.864  13.955  64.068  1.00  0.00    -0.372 C  
HETATM    2  C   UNL     1     -11.869  12.541  64.582  1.00  0.00    -0.378 C  
HETATM    3  O   UNL     1     -12.741  12.144  65.353  1.00  0.00    -0.384 OA 
ENDROOT
BRANCH   2   4
HETATM    4  C   UNL     1     -10.790  11.614  64.135  1.00  0.00    -0.433 A  
HETATM    5  C   UNL     1     -10.154  11.763  62.909  1.00  0.00    -0.101 A  
HETATM    6  C   UNL     1      -9.151  10.870  62.555  1.00  0.00    -0.361 A  
HETATM    7  C   UNL     1      -8.769   9.820  63.402  1.00  0.00    -0.226 A  
HETATM    8  S   UNL     1      -7.470   8.793  62.772  1.00  0.00    -0.111 SA 
HETATM    9  C   UNL     1      -7.253   7.602  64.064  1.00  0.00    -0.081 A  
HETATM   10  C   UNL     1      -8.003   7.587  65.263  1.00  0.00    -0.126 A  
HETATM   11  C   UNL     1      -7.669   6.554  66.168  1.00  0.00    -0.092 A  
HETATM   12  N   UNL     1      -9.026   8.553  65.518  1.00  0.00    -0.168 NA 
HETATM   13  C   UNL     1      -9.395   9.627  64.650  1.00  0.00    -0.207 A  
HETATM   14  C   UNL     1      -6.677   5.594  65.906  1.00  0.00    -0.056 A  
HETATM   15  C   UNL     1     -10.407  10.559  64.982  1.00  0.00    -0.310 A  
HETATM   16  C   UNL     1      -6.259   6.635  63.806  1.00  0.00    -0.034 A  
HETATM   17  C   UNL     1      -5.970   5.633  64.720  1.00  0.00    -0.022 A  
BRANCH  12  18
HETATM   18  C   UNL     1      -9.808   8.433  66.771  1.00  0.00    -0.259 C  
BRANCH  18  19
HETATM   19  C   UNL     1      -9.388   9.500  67.795  1.00  0.00    -0.143 C  
BRANCH  19  20
HETATM   20  C   UNL     1     -10.543  10.460  68.115  1.00  0.00    -0.211 C  
BRANCH  20  21
HETATM   21  N   UNL     1     -10.217  11.394  69.207  1.00  0.00    -0.059 NA 
HETATM   22  C   UNL     1      -9.309  12.472  68.774  1.00  0.00     0.132 C  
HETATM   23  C   UNL     1      -9.978  13.495  67.839  1.00  0.00    -0.245 C  
HETATM   24  N   UNL     1     -11.128  14.179  68.462  1.00  0.00    -0.245 NA 
HETATM   25  C   UNL     1     -12.073  13.138  68.949  1.00  0.00    -0.194 C  
HETATM   26  C   UNL     1     -11.436  11.996  69.789  1.00  0.00    -0.210 C  
BRANCH  24  27
HETATM   27  C   UNL     1     -10.715  15.066  69.579  1.00  0.00    -0.256 C  
BRANCH  27  28
HETATM   28  C   UNL     1     -11.885  15.465  70.495  1.00  0.00    -0.339 C  
HETATM   29  O   UNL     1     -11.408  15.773  71.800  1.00  0.00    -0.387 OA 
HETATM   30  H   UNL     1     -12.131  16.019  72.366  1.00  0.00     0.000 HD 
ENDBRANCH  27  28
ENDBRANCH  24  27
ENDBRANCH  20  21
ENDBRANCH  19  20
ENDBRANCH  18  19
ENDBRANCH  12  18
ENDBRANCH   2   4
TORSDOF 7
ENDMDL
MODEL      152
REMARK 921   NORMALIZED FREE ENERGY PREDICTED BY IDOCK:   -3.90 KCAL/MOL
REMARK 922        TOTAL FREE ENERGY PREDICTED BY IDOCK:   -6.25 KCAL/MOL
REMARK 923 INTER-LIGAND FREE ENERGY PREDICTED BY IDOCK:   -7.25 KCAL/MOL
REMARK 924 INTRA-LIGAND FREE ENERGY PREDICTED BY IDOCK:    1.00 KCAL/MOL
REMARK 927      BINDING AFFINITY PREDICTED BY RF-SCORE:    0.00 PKD
ROOT
HETATM    1  C   UNL     1     -14.192  13.260  72.061  1.00  0.00    -0.103 C  
HETATM    2  C   UNL     1     -12.973  12.958  71.232  1.00  0.00    -0.228 C  
HETATM    3  O   UNL     1     -12.299  13.859  70.734  1.00  0.00    -0.338 OA 
ENDROOT
BRANCH   2   4
HETATM    4  C   UNL     1     -12.586  11.534  71.022  1.00  0.00    -0.457 A  
HETATM    5  C   UNL     1     -12.916  10.540  71.934  1.00  0.00    -0.553 A  
HETATM    6  C   UNL     1     -12.532   9.231  71.676  1.00  0.00    -0.448 A  
HETATM    7  C   UNL     1     -11.816   8.889  70.520  1.00  0.00    -0.047 A  
HETATM    8  S   UNL     1     -11.423   7.168  70.371  1.00  0.00    -0.251 SA 
HETATM    9  C   UNL     1     -10.539   7.100  68.838  1.00  0.00    -0.201 A  
HETATM   10  C   UNL     1     -10.278   8.226  68.024  1.00  0.00    -0.214 A  
HETATM   11  C   UNL     1      -9.559   7.955  66.837  1.00  0.00    -0.263 A  
HETATM   12  N   UNL     1     -10.711   9.537  68.396  1.00  0.00    -0.211 NA 
HETATM   13  C   UNL     1     -11.452   9.868  69.572  1.00  0.00    -0.068 A  
HETATM   14  C   UNL     1      -9.118   6.669  66.483  1.00  0.00    -0.167 A  
HETATM   15  C   UNL     1     -11.866  11.190  69.864  1.00  0.00    -0.439 A  
HETATM   16  C   UNL     1     -10.092   5.812  68.479  1.00  0.00    -0.226 A  
HETATM   17  C   UNL     1      -9.383   5.593  67.308  1.00  0.00    -0.113 A  
BRANCH  12  18
HETATM   18  C   UNL     1     -10.345  10.673  67.518  1.00  0.00    -0.214 C  
BRANCH  18  19
HETATM   19  C   UNL     1     -11.251  10.735  66.279  1.00  0.00     0.167 C  
BRANCH  19  20
HETATM   20  C   UNL     1     -11.383  12.169  65.746  1.00  0.00    -0.354 C  
BRANCH  20  21
HETATM   21  N   UNL     1     -10.235  13.017  66.113  1.00  0.00    -0.278 NA 
HETATM   22  C   UNL     1     -10.258  14.324  65.429  1.00  0.00    -0.371 C  
HETATM   23  C   UNL     1     -11.364  15.262  65.944  1.00  0.00    -0.172 C  
HETATM   24  N   UNL     1     -11.232  15.575  67.381  1.00  0.00    -0.291 NA 
HETATM   25  C   UNL     1     -11.173  14.290  68.128  1.00  0.00    -0.275 C  
HETATM   26  C   UNL     1     -10.169  13.239  67.574  1.00  0.00    -0.222 C  
BRANCH  24  27
HETATM   27  C   UNL     1     -10.028  16.396  67.667  1.00  0.00    -0.252 C  
BRANCH  27  28
HETATM   28  C   UNL     1     -10.215  17.341  68.866  1.00  0.00    -0.349 C  
HETATM   29  O   UNL     1     -11.276  16.881  69.697  1.00  0.00    -0.313 OA 
HETATM   30  H   UNL     1     -11.392  17.465  70.438  1.00  0.00     0.000 HD 
ENDBRANCH  27  28
ENDBRANCH  24  27
ENDBRANCH  20  21
ENDBRANCH  19  20
ENDBRANCH  18  19
ENDBRANCH  12  18
ENDBRANCH   2   4
TORSDOF 7
ENDMDL
MODEL      153
REMARK 921   NORMALIZED FREE ENERGY PREDICTED BY IDOCK:   -3.89 KCAL/MOL
REMARK 922        TOTAL FREE ENERGY PREDICTED BY IDOCK:   -6.24 KCAL/MOL
REMARK 923 INTER-LIGAND FREE ENERGY PREDICTED BY IDOCK:   -5.77 KCAL/MOL
REMARK 924 INTRA-LIGAND FREE ENERGY PREDICTED BY IDOCK:   -0.46 KCAL/MOL
REMARK 927      BINDING AFFINITY PREDICTED BY RF-SCORE:    0.00 PKD
ROOT
HETATM    1  C   UNL     1      -5.621  10.620  64.253  1.00  0.00    -0.067 C  
HETATM    2  C   UNL     1      -6.990   9.995  64.272  1.00  0.00    -0.128 C  
HETATM    3  O   UNL     1      -7.894  10.413  63.550  1.00  0.00    -0.149 OA 
ENDROOT
BRANCH   2   4
HETATM    4  C   UNL     1      -7.238   8.846  65.189  1.00  0.00    -0.087 A  
HETATM    5  C   UNL     1      -6.757   7.572  64.917  1.00  0.00    -0.047 A  
HETATM    6  C   UNL     1      -7.016   6.545  65.816  1.00  0.00    -0.061 A  
HETATM    7  C   UNL     1      -7.755   6.763  66.988  1.00  0.00    -0.100 A  
HETATM    8  S   UNL     1      -7.974   5.330  68.005  1.00  0.00    -0.091 SA 
HETATM    9  C   UNL     1      -8.930   5.953  69.359  1.00  0.00    -0.121 A  
HETATM   10  C   UNL     1      -9.351   7.298  69.478  1.00  0.00    -0.152 A  
HETATM   11  C   UNL     1     -10.101   7.592  70.639  1.00  0.00    -0.187 A  
HETATM   12  N   UNL     1      -9.036   8.273  68.481  1.00  0.00    -0.137 NA 
HETATM   13  C   UNL     1      -8.270   8.039  67.297  1.00  0.00    -0.122 A  
HETATM   14  C   UNL     1     -10.426   6.628  71.609  1.00  0.00    -0.232 A  
HETATM   15  C   UNL     1      -7.981   9.062  66.363  1.00  0.00    -0.103 A  
HETATM   16  C   UNL     1      -9.259   4.989  70.334  1.00  0.00    -0.198 A  
HETATM   17  C   UNL     1     -10.006   5.321  71.455  1.00  0.00    -0.245 A  
BRANCH  12  18
HETATM   18  C   UNL     1      -9.566   9.647  68.649  1.00  0.00    -0.150 C  
BRANCH  18  19
HETATM   19  C   UNL     1     -10.747   9.909  67.701  1.00  0.00    -0.339 C  
BRANCH  19  20
HETATM   20  C   UNL     1     -11.263  11.350  67.828  1.00  0.00    -0.283 C  
BRANCH  20  21
HETATM   21  N   UNL     1     -11.170  12.099  66.563  1.00  0.00    -0.311 NA 
HETATM   22  C   UNL     1     -12.213  13.135  66.443  1.00  0.00    -0.329 C  
HETATM   23  C   UNL     1     -11.997  14.329  67.391  1.00  0.00    -0.391 C  
HETATM   24  N   UNL     1     -10.720  15.030  67.153  1.00  0.00    -0.296 NA 
HETATM   25  C   UNL     1      -9.624  14.027  67.232  1.00  0.00    -0.238 C  
HETATM   26  C   UNL     1      -9.842  12.731  66.402  1.00  0.00    -0.269 C  
BRANCH  24  27
HETATM   27  C   UNL     1     -10.696  15.722  65.839  1.00  0.00    -0.313 C  
BRANCH  27  28
HETATM   28  C   UNL     1      -9.850  17.006  65.851  1.00  0.00    -0.177 C  
HETATM   29  O   UNL     1      -8.464  16.685  65.909  1.00  0.00    -0.451 OA 
HETATM   30  H   UNL     1      -7.941  17.478  65.917  1.00  0.00     0.000 HD 
ENDBRANCH  27  28
ENDBRANCH  24  27
ENDBRANCH  20  21
ENDBRANCH  19  20
ENDBRANCH  18  19
ENDBRANCH  12  18
ENDBRANCH   2   4
TORSDOF 7
ENDMDL
MODEL      154
REMARK 921   NORMALIZED FREE ENERGY PREDICTED BY IDOCK:   -3.87 KCAL/MOL
REMARK 922        TOTAL FREE ENERGY PREDICTED BY IDOCK:   -6.21 KCAL/MOL
REMARK 923 INTER-LIGAND FREE ENERGY PREDICTED BY IDOCK:   -6.55 KCAL/MOL
REMARK 924 INTRA-LIGAND FREE ENERGY PREDICTED BY IDOCK:    0.34 KCAL/MOL
REMARK 927      BINDING AFFINITY PREDICTED BY RF-SCORE:    0.00 PKD
ROOT
HETATM    1  C   UNL     1     -10.992   6.211  67.325  1.00  0.00    -0.418 C  
HETATM    2  C   UNL     1     -10.836   6.627  68.763  1.00  0.00    -0.267 C  
HETATM    3  O   UNL     1     -11.565   6.171  69.642  1.00  0.00    -0.407 OA 
ENDROOT
BRANCH   2   4
HETATM    4  C   UNL     1      -9.770   7.609  69.111  1.00  0.00    -0.164 A  
HETATM    5  C   UNL     1      -8.864   7.377  70.137  1.00  0.00    -0.147 A  
HETATM    6  C   UNL     1      -7.889   8.330  70.406  1.00  0.00    -0.089 A  
HETATM    7  C   UNL     1      -7.802   9.521  69.670  1.00  0.00    -0.116 A  
HETATM    8  S   UNL     1      -6.490  10.604  70.164  1.00  0.00    -0.141 SA 
HETATM    9  C   UNL     1      -6.675  11.972  69.055  1.00  0.00    -0.100 A  
HETATM   10  C   UNL     1      -7.674  12.054  68.058  1.00  0.00    -0.132 A  
HETATM   11  C   UNL     1      -7.645  13.230  67.274  1.00  0.00    -0.079 A  
HETATM   12  N   UNL     1      -8.639  11.015  67.878  1.00  0.00    -0.129 NA 
HETATM   13  C   UNL     1      -8.708   9.800  68.627  1.00  0.00    -0.122 A  
HETATM   14  C   UNL     1      -6.708  14.259  67.466  1.00  0.00    -0.128 A  
HETATM   15  C   UNL     1      -9.682   8.805  68.375  1.00  0.00    -0.175 A  
HETATM   16  C   UNL     1      -5.737  13.008  69.245  1.00  0.00    -0.084 A  
HETATM   17  C   UNL     1      -5.751  14.149  68.457  1.00  0.00    -0.095 A  
BRANCH  12  18
HETATM   18  C   UNL     1      -9.691  11.204  66.851  1.00  0.00    -0.191 C  
BRANCH  18  19
HETATM   19  C   UNL     1     -10.381  12.568  67.003  1.00  0.00    -0.236 C  
BRANCH  19  20
HETATM   20  C   UNL     1     -11.121  12.680  68.344  1.00  0.00    -0.265 C  
BRANCH  20  21
HETATM   21  N   UNL     1     -11.853  13.951  68.483  1.00  0.00    -0.351 NA 
HETATM   22  C   UNL     1     -11.303  14.805  69.552  1.00  0.00    -0.283 C  
HETATM   23  C   UNL     1      -9.930  15.408  69.206  1.00  0.00    -0.256 C  
HETATM   24  N   UNL     1      -9.964  16.263  68.003  1.00  0.00    -0.236 NA 
HETATM   25  C   UNL     1     -10.540  15.465  66.887  1.00  0.00    -0.309 C  
HETATM   26  C   UNL     1     -11.862  14.714  67.215  1.00  0.00    -0.351 C  
BRANCH  24  27
HETATM   27  C   UNL     1     -10.756  17.501  68.216  1.00  0.00    -0.309 C  
BRANCH  27  28
HETATM   28  C   UNL     1      -9.884  18.764  68.311  1.00  0.00    -0.373 C  
HETATM   29  O   UNL     1     -10.206  19.500  69.487  1.00  0.00    -0.593 OA 
HETATM   30  H   UNL     1      -9.668  20.281  69.545  1.00  0.00     0.000 HD 
ENDBRANCH  27  28
ENDBRANCH  24  27
ENDBRANCH  20  21
ENDBRANCH  19  20
ENDBRANCH  18  19
ENDBRANCH  12  18
ENDBRANCH   2   4
TORSDOF 7
ENDMDL
MODEL      155
REMARK 921   NORMALIZED FREE ENERGY PREDICTED BY IDOCK:   -3.87 KCAL/MOL
REMARK 922        TOTAL FREE ENERGY PREDICTED BY IDOCK:   -6.20 KCAL/MOL
REMARK 923 INTER-LIGAND FREE ENERGY PREDICTED BY IDOCK:   -5.92 KCAL/MOL
REMARK 924 INTRA-LIGAND FREE ENERGY PREDICTED BY IDOCK:   -0.28 KCAL/MOL
REMARK 927      BINDING AFFINITY PREDICTED BY RF-SCORE:    0.00 PKD
ROOT
HETATM    1  C   UNL     1     -11.496  12.588  64.294  1.00  0.00    -0.423 C  
HETATM    2  C   UNL     1     -10.693  11.475  64.911  1.00  0.00    -0.297 C  
HETATM    3  O   UNL     1      -9.884  10.827  64.248  1.00  0.00    -0.269 OA 
ENDROOT
BRANCH   2   4
HETATM    4  C   UNL     1     -10.892  11.167  66.355  1.00  0.00    -0.284 A  
HETATM    5  C   UNL     1     -11.750  11.910  67.155  1.00  0.00    -0.311 A  
HETATM    6  C   UNL     1     -11.896  11.566  68.493  1.00  0.00    -0.365 A  
HETATM    7  C   UNL     1     -11.194  10.490  69.056  1.00  0.00    -0.259 A  
HETATM    8  S   UNL     1     -11.519  10.210  70.775  1.00  0.00    -0.361 SA 
HETATM    9  C   UNL     1     -10.490   8.817  71.145  1.00  0.00    -0.245 A  
HETATM   10  C   UNL     1      -9.656   8.175  70.201  1.00  0.00    -0.168 A  
HETATM   11  C   UNL     1      -8.919   7.077  70.700  1.00  0.00    -0.154 A  
HETATM   12  N   UNL     1      -9.574   8.625  68.846  1.00  0.00    -0.157 NA 
HETATM   13  C   UNL     1     -10.306   9.715  68.283  1.00  0.00    -0.204 A  
HETATM   14  C   UNL     1      -8.987   6.650  72.036  1.00  0.00    -0.139 A  
HETATM   15  C   UNL     1     -10.187  10.089  66.923  1.00  0.00    -0.299 A  
HETATM   16  C   UNL     1     -10.554   8.385  72.486  1.00  0.00    -0.368 A  
HETATM   17  C   UNL     1      -9.805   7.307  72.934  1.00  0.00    -0.240 A  
BRANCH  12  18
HETATM   18  C   UNL     1      -8.631   7.936  67.934  1.00  0.00    -0.125 C  
BRANCH  18  19
HETATM   19  C   UNL     1      -9.022   6.463  67.735  1.00  0.00    -0.113 C  
BRANCH  19  20
HETATM   20  C   UNL     1     -10.030   6.296  66.589  1.00  0.00    -0.153 C  
BRANCH  20  21
HETATM   21  N   UNL     1     -10.465   4.899  66.416  1.00  0.00    -0.295 NA 
HETATM   22  C   UNL     1     -10.731   4.562  65.005  1.00  0.00    -0.043 C  
HETATM   23  C   UNL     1      -9.456   4.475  64.148  1.00  0.00    -0.034 C  
HETATM   24  N   UNL     1      -8.511   3.445  64.624  1.00  0.00    -0.093 NA 
HETATM   25  C   UNL     1      -8.224   3.714  66.059  1.00  0.00    -0.101 C  
HETATM   26  C   UNL     1      -9.470   3.949  66.959  1.00  0.00    -0.200 C  
BRANCH  24  27
HETATM   27  C   UNL     1      -9.046   2.071  64.452  1.00  0.00    -0.117 C  
BRANCH  27  28
HETATM   28  C   UNL     1      -8.756   1.483  63.061  1.00  0.00    -0.072 C  
HETATM   29  O   UNL     1      -7.360   1.527  62.786  1.00  0.00    -0.030 OA 
HETATM   30  H   UNL     1      -7.182   1.164  61.926  1.00  0.00     0.000 HD 
ENDBRANCH  27  28
ENDBRANCH  24  27
ENDBRANCH  20  21
ENDBRANCH  19  20
ENDBRANCH  18  19
ENDBRANCH  12  18
ENDBRANCH   2   4
TORSDOF 7
ENDMDL
MODEL      156
REMARK 921   NORMALIZED FREE ENERGY PREDICTED BY IDOCK:   -3.87 KCAL/MOL
REMARK 922        TOTAL FREE ENERGY PREDICTED BY IDOCK:   -6.20 KCAL/MOL
REMARK 923 INTER-LIGAND FREE ENERGY PREDICTED BY IDOCK:   -6.98 KCAL/MOL
REMARK 924 INTRA-LIGAND FREE ENERGY PREDICTED BY IDOCK:    0.78 KCAL/MOL
REMARK 927      BINDING AFFINITY PREDICTED BY RF-SCORE:    0.00 PKD
ROOT
HETATM    1  C   UNL     1     -12.076   8.271  72.174  1.00  0.00    -0.425 C  
HETATM    2  C   UNL     1     -13.115   9.328  72.436  1.00  0.00    -0.406 C  
HETATM    3  O   UNL     1     -14.092   9.100  73.148  1.00  0.00    -0.298 OA 
ENDROOT
BRANCH   2   4
HETATM    4  C   UNL     1     -12.939  10.672  71.817  1.00  0.00    -0.577 A  
HETATM    5  C   UNL     1     -13.566  11.803  72.324  1.00  0.00    -0.052 A  
HETATM    6  C   UNL     1     -13.355  13.028  71.705  1.00  0.00    -0.379 A  
HETATM    7  C   UNL     1     -12.528  13.150  70.578  1.00  0.00    -0.248 A  
HETATM    8  S   UNL     1     -12.385  14.795  69.938  1.00  0.00    -0.247 SA 
HETATM    9  C   UNL     1     -11.299  14.582  68.555  1.00  0.00    -0.286 A  
HETATM   10  C   UNL     1     -10.748  13.339  68.164  1.00  0.00    -0.249 A  
HETATM   11  C   UNL     1      -9.900  13.387  67.034  1.00  0.00    -0.250 A  
HETATM   12  N   UNL     1     -11.046  12.133  68.871  1.00  0.00    -0.233 NA 
HETATM   13  C   UNL     1     -11.880  12.026  70.026  1.00  0.00    -0.314 A  
HETATM   14  C   UNL     1      -9.625  14.571  66.330  1.00  0.00    -0.328 A  
HETATM   15  C   UNL     1     -12.112  10.796  70.686  1.00  0.00    -0.467 A  
HETATM   16  C   UNL     1     -11.020  15.767  67.843  1.00  0.00    -0.324 A  
HETATM   17  C   UNL     1     -10.188  15.766  66.734  1.00  0.00    -0.284 A  
BRANCH  12  18
HETATM   18  C   UNL     1     -10.477  10.862  68.362  1.00  0.00    -0.183 C  
BRANCH  18  19
HETATM   19  C   UNL     1      -8.946  10.845  68.492  1.00  0.00    -0.157 C  
BRANCH  19  20
HETATM   20  C   UNL     1      -8.482   9.855  69.570  1.00  0.00    -0.176 C  
BRANCH  20  21
HETATM   21  N   UNL     1      -7.573   8.825  69.040  1.00  0.00    -0.088 NA 
HETATM   22  C   UNL     1      -8.296   7.719  68.384  1.00  0.00    -0.125 C  
HETATM   23  C   UNL     1      -8.937   8.120  67.044  1.00  0.00    -0.141 C  
HETATM   24  N   UNL     1      -7.951   8.585  66.049  1.00  0.00    -0.103 NA 
HETATM   25  C   UNL     1      -7.164   9.689  66.664  1.00  0.00    -0.086 C  
HETATM   26  C   UNL     1      -6.600   9.398  68.084  1.00  0.00    -0.059 C  
BRANCH  24  27
HETATM   27  C   UNL     1      -7.049   7.495  65.600  1.00  0.00    -0.061 C  
BRANCH  27  28
HETATM   28  C   UNL     1      -7.794   6.354  64.886  1.00  0.00    -0.113 C  
HETATM   29  O   UNL     1      -8.562   6.867  63.803  1.00  0.00    -0.326 OA 
HETATM   30  H   UNL     1      -9.023   6.162  63.362  1.00  0.00     0.000 HD 
ENDBRANCH  27  28
ENDBRANCH  24  27
ENDBRANCH  20  21
ENDBRANCH  19  20
ENDBRANCH  18  19
ENDBRANCH  12  18
ENDBRANCH   2   4
TORSDOF 7
ENDMDL
MODEL      157
REMARK 921   NORMALIZED FREE ENERGY PREDICTED BY IDOCK:   -3.82 KCAL/MOL
REMARK 922        TOTAL FREE ENERGY PREDICTED BY IDOCK:   -6.14 KCAL/MOL
REMARK 923 INTER-LIGAND FREE ENERGY PREDICTED BY IDOCK:   -6.23 KCAL/MOL
REMARK 924 INTRA-LIGAND FREE ENERGY PREDICTED BY IDOCK:    0.09 KCAL/MOL
REMARK 927      BINDING AFFINITY PREDICTED BY RF-SCORE:    0.00 PKD
ROOT
HETATM    1  C   UNL     1     -11.067  12.842  66.148  1.00  0.00    -0.322 C  
HETATM    2  C   UNL     1      -9.954  11.857  65.914  1.00  0.00    -0.234 C  
HETATM    3  O   UNL     1      -9.593  11.559  64.776  1.00  0.00    -0.230 OA 
ENDROOT
BRANCH   2   4
HETATM    4  C   UNL     1      -9.283  11.244  67.094  1.00  0.00    -0.169 A  
HETATM    5  C   UNL     1      -7.902  11.258  67.245  1.00  0.00    -0.141 A  
HETATM    6  C   UNL     1      -7.339  10.675  68.374  1.00  0.00    -0.091 A  
HETATM    7  C   UNL     1      -8.131  10.069  69.361  1.00  0.00    -0.149 A  
HETATM    8  S   UNL     1      -7.226   9.387  70.722  1.00  0.00    -0.082 SA 
HETATM    9  C   UNL     1      -8.506   8.719  71.747  1.00  0.00    -0.109 A  
HETATM   10  C   UNL     1      -9.884   8.784  71.436  1.00  0.00    -0.283 A  
HETATM   11  C   UNL     1     -10.744   8.193  72.390  1.00  0.00    -0.404 A  
HETATM   12  N   UNL     1     -10.353   9.399  70.233  1.00  0.00    -0.225 NA 
HETATM   13  C   UNL     1      -9.535  10.025  69.242  1.00  0.00    -0.217 A  
HETATM   14  C   UNL     1     -10.279   7.571  73.561  1.00  0.00    -0.380 A  
HETATM   15  C   UNL     1     -10.074  10.634  68.085  1.00  0.00    -0.179 A  
HETATM   16  C   UNL     1      -8.046   8.092  72.923  1.00  0.00    -0.224 A  
HETATM   17  C   UNL     1      -8.925   7.518  73.829  1.00  0.00    -0.297 A  
BRANCH  12  18
HETATM   18  C   UNL     1     -11.808   9.373  69.951  1.00  0.00     0.244 C  
BRANCH  18  19
HETATM   19  C   UNL     1     -12.296  10.726  69.411  1.00  0.00    -0.133 C  
BRANCH  19  20
HETATM   20  C   UNL     1     -13.243  11.420  70.399  1.00  0.00     0.526 C  
BRANCH  20  21
HETATM   21  N   UNL     1     -12.529  12.278  71.361  1.00  0.00    -0.191 NA 
HETATM   22  C   UNL     1     -11.755  13.345  70.699  1.00  0.00     0.080 C  
HETATM   23  C   UNL     1     -12.638  14.443  70.078  1.00  0.00    -0.233 C  
HETATM   24  N   UNL     1     -13.483  15.133  71.072  1.00  0.00    -0.443 NA 
HETATM   25  C   UNL     1     -14.272  14.102  71.800  1.00  0.00    -0.410 C  
HETATM   26  C   UNL     1     -13.457  12.891  72.336  1.00  0.00    -0.471 C  
BRANCH  24  27
HETATM   27  C   UNL     1     -12.681  15.940  72.027  1.00  0.00    -0.432 C  
BRANCH  27  28
HETATM   28  C   UNL     1     -13.418  16.216  73.348  1.00  0.00    -0.322 C  
HETATM   29  O   UNL     1     -12.676  15.694  74.446  1.00  0.00    -0.713 OA 
HETATM   30  H   UNL     1     -13.132  15.864  75.263  1.00  0.00     0.000 HD 
ENDBRANCH  27  28
ENDBRANCH  24  27
ENDBRANCH  20  21
ENDBRANCH  19  20
ENDBRANCH  18  19
ENDBRANCH  12  18
ENDBRANCH   2   4
TORSDOF 7
ENDMDL
MODEL      158
REMARK 921   NORMALIZED FREE ENERGY PREDICTED BY IDOCK:   -3.80 KCAL/MOL
REMARK 922        TOTAL FREE ENERGY PREDICTED BY IDOCK:   -6.12 KCAL/MOL
REMARK 923 INTER-LIGAND FREE ENERGY PREDICTED BY IDOCK:   -5.82 KCAL/MOL
REMARK 924 INTRA-LIGAND FREE ENERGY PREDICTED BY IDOCK:   -0.29 KCAL/MOL
REMARK 927      BINDING AFFINITY PREDICTED BY RF-SCORE:    0.00 PKD
ROOT
HETATM    1  C   UNL     1     -11.655  15.865  69.013  1.00  0.00    -0.392 C  
HETATM    2  C   UNL     1     -11.798  14.369  68.946  1.00  0.00    -0.320 C  
HETATM    3  O   UNL     1     -12.089  13.710  69.943  1.00  0.00    -0.319 OA 
ENDROOT
BRANCH   2   4
HETATM    4  C   UNL     1     -11.583  13.688  67.638  1.00  0.00    -0.381 A  
HETATM    5  C   UNL     1     -12.545  13.700  66.636  1.00  0.00    -0.156 A  
HETATM    6  C   UNL     1     -12.280  13.052  65.436  1.00  0.00    -0.520 A  
HETATM    7  C   UNL     1     -11.067  12.383  65.215  1.00  0.00    -0.303 A  
HETATM    8  S   UNL     1     -10.920  11.623  63.621  1.00  0.00    -0.417 SA 
HETATM    9  C   UNL     1      -9.310  10.887  63.687  1.00  0.00    -0.262 A  
HETATM   10  C   UNL     1      -8.450  10.964  64.806  1.00  0.00     0.045 A  
HETATM   11  C   UNL     1      -7.205  10.312  64.652  1.00  0.00    -0.082 A  
HETATM   12  N   UNL     1      -8.833  11.649  66.001  1.00  0.00    -0.155 NA 
HETATM   13  C   UNL     1     -10.068  12.338  66.208  1.00  0.00    -0.234 A  
HETATM   14  C   UNL     1      -6.838   9.622  63.484  1.00  0.00    -0.110 A  
HETATM   15  C   UNL     1     -10.369  13.015  67.414  1.00  0.00    -0.234 A  
HETATM   16  C   UNL     1      -8.938  10.193  62.518  1.00  0.00    -0.284 A  
HETATM   17  C   UNL     1      -7.709   9.560  62.413  1.00  0.00    -0.119 A  
BRANCH  12  18
HETATM   18  C   UNL     1      -7.899  11.632  67.151  1.00  0.00    -0.163 C  
BRANCH  18  19
HETATM   19  C   UNL     1      -7.674  10.202  67.666  1.00  0.00    -0.091 C  
BRANCH  19  20
HETATM   20  C   UNL     1      -8.987   9.407  67.718  1.00  0.00    -0.122 C  
BRANCH  20  21
HETATM   21  N   UNL     1      -8.820   8.008  67.288  1.00  0.00    -0.129 NA 
HETATM   22  C   UNL     1      -7.700   7.337  67.975  1.00  0.00    -0.117 C  
HETATM   23  C   UNL     1      -7.980   7.051  69.461  1.00  0.00    -0.125 C  
HETATM   24  N   UNL     1      -9.148   6.172  69.668  1.00  0.00    -0.136 NA 
HETATM   25  C   UNL     1     -10.312   6.783  68.970  1.00  0.00    -0.195 C  
HETATM   26  C   UNL     1     -10.055   7.223  67.501  1.00  0.00    -0.193 C  
BRANCH  24  27
HETATM   27  C   UNL     1      -8.910   4.794  69.169  1.00  0.00    -0.092 C  
BRANCH  27  28
HETATM   28  C   UNL     1      -9.241   3.712  70.210  1.00  0.00    -0.152 C  
HETATM   29  O   UNL     1      -8.148   3.535  71.105  1.00  0.00    -0.064 OA 
HETATM   30  H   UNL     1      -8.353   2.866  71.748  1.00  0.00     0.000 HD 
ENDBRANCH  27  28
ENDBRANCH  24  27
ENDBRANCH  20  21
ENDBRANCH  19  20
ENDBRANCH  18  19
ENDBRANCH  12  18
ENDBRANCH   2   4
TORSDOF 7
ENDMDL
MODEL      159
REMARK 921   NORMALIZED FREE ENERGY PREDICTED BY IDOCK:   -3.80 KCAL/MOL
REMARK 922        TOTAL FREE ENERGY PREDICTED BY IDOCK:   -6.12 KCAL/MOL
REMARK 923 INTER-LIGAND FREE ENERGY PREDICTED BY IDOCK:   -5.09 KCAL/MOL
REMARK 924 INTRA-LIGAND FREE ENERGY PREDICTED BY IDOCK:   -1.03 KCAL/MOL
REMARK 927      BINDING AFFINITY PREDICTED BY RF-SCORE:    0.00 PKD
ROOT
HETATM    1  C   UNL     1      -6.039  11.912  68.914  1.00  0.00    -0.062 C  
HETATM    2  C   UNL     1      -6.174  11.112  70.182  1.00  0.00    -0.147 C  
HETATM    3  O   UNL     1      -5.827  11.573  71.268  1.00  0.00    -0.372 OA 
ENDROOT
BRANCH   2   4
HETATM    4  C   UNL     1      -6.745   9.737  70.102  1.00  0.00    -0.100 A  
HETATM    5  C   UNL     1      -6.961   8.964  71.235  1.00  0.00    -0.094 A  
HETATM    6  C   UNL     1      -7.503   7.693  71.092  1.00  0.00    -0.078 A  
HETATM    7  C   UNL     1      -7.832   7.171  69.833  1.00  0.00    -0.113 A  
HETATM    8  S   UNL     1      -8.515   5.536  69.862  1.00  0.00    -0.117 SA 
HETATM    9  C   UNL     1      -8.801   5.202  68.147  1.00  0.00    -0.102 A  
HETATM   10  C   UNL     1      -8.510   6.111  67.103  1.00  0.00    -0.104 A  
HETATM   11  C   UNL     1      -8.819   5.651  65.803  1.00  0.00    -0.156 A  
HETATM   12  N   UNL     1      -7.938   7.394  67.365  1.00  0.00    -0.111 NA 
HETATM   13  C   UNL     1      -7.620   7.918  68.657  1.00  0.00    -0.101 A  
HETATM   14  C   UNL     1      -9.363   4.381  65.546  1.00  0.00    -0.162 A  
HETATM   15  C   UNL     1      -7.073   9.211  68.839  1.00  0.00    -0.068 A  
HETATM   16  C   UNL     1      -9.346   3.928  67.883  1.00  0.00    -0.227 A  
HETATM   17  C   UNL     1      -9.626   3.515  66.590  1.00  0.00    -0.132 A  
BRANCH  12  18
HETATM   18  C   UNL     1      -7.606   8.265  66.212  1.00  0.00    -0.096 C  
BRANCH  18  19
HETATM   19  C   UNL     1      -8.869   8.911  65.620  1.00  0.00    -0.230 C  
BRANCH  19  20
HETATM   20  C   UNL     1      -8.992  10.386  66.028  1.00  0.00    -0.159 C  
BRANCH  20  21
HETATM   21  N   UNL     1     -10.381  10.779  66.322  1.00  0.00    -0.248 NA 
HETATM   22  C   UNL     1     -11.016   9.900  67.321  1.00  0.00    -0.117 C  
HETATM   23  C   UNL     1     -10.456  10.089  68.743  1.00  0.00    -0.208 C  
HETATM   24  N   UNL     1     -10.640  11.461  69.256  1.00  0.00    -0.159 NA 
HETATM   25  C   UNL     1     -10.043  12.404  68.272  1.00  0.00    -0.227 C  
HETATM   26  C   UNL     1     -10.462  12.179  66.791  1.00  0.00    -0.218 C  
BRANCH  24  27
HETATM   27  C   UNL     1     -12.070  11.788  69.485  1.00  0.00    -0.250 C  
BRANCH  27  28
HETATM   28  C   UNL     1     -12.591  11.290  70.843  1.00  0.00    -0.371 C  
HETATM   29  O   UNL     1     -13.369  10.110  70.672  1.00  0.00    -0.556 OA 
HETATM   30  H   UNL     1     -13.691   9.803  71.512  1.00  0.00     0.000 HD 
ENDBRANCH  27  28
ENDBRANCH  24  27
ENDBRANCH  20  21
ENDBRANCH  19  20
ENDBRANCH  18  19
ENDBRANCH  12  18
ENDBRANCH   2   4
TORSDOF 7
ENDMDL
MODEL      160
REMARK 921   NORMALIZED FREE ENERGY PREDICTED BY IDOCK:   -3.80 KCAL/MOL
REMARK 922        TOTAL FREE ENERGY PREDICTED BY IDOCK:   -6.12 KCAL/MOL
REMARK 923 INTER-LIGAND FREE ENERGY PREDICTED BY IDOCK:   -6.33 KCAL/MOL
REMARK 924 INTRA-LIGAND FREE ENERGY PREDICTED BY IDOCK:    0.22 KCAL/MOL
REMARK 927      BINDING AFFINITY PREDICTED BY RF-SCORE:    0.00 PKD
ROOT
HETATM    1  C   UNL     1      -9.920  17.275  68.686  1.00  0.00    -0.327 C  
HETATM    2  C   UNL     1     -10.117  15.907  69.282  1.00  0.00    -0.249 C  
HETATM    3  O   UNL     1     -10.830  15.737  70.270  1.00  0.00    -0.311 OA 
ENDROOT
BRANCH   2   4
HETATM    4  C   UNL     1      -9.430  14.746  68.649  1.00  0.00    -0.213 A  
HETATM    5  C   UNL     1      -8.144  14.843  68.135  1.00  0.00    -0.137 A  
HETATM    6  C   UNL     1      -7.557  13.721  67.564  1.00  0.00    -0.185 A  
HETATM    7  C   UNL     1      -8.235  12.495  67.488  1.00  0.00    -0.175 A  
HETATM    8  S   UNL     1      -7.317  11.185  66.728  1.00  0.00    -0.145 SA 
HETATM    9  C   UNL     1      -8.447   9.824  66.797  1.00  0.00    -0.124 A  
HETATM   10  C   UNL     1      -9.745   9.900  67.354  1.00  0.00    -0.162 A  
HETATM   11  C   UNL     1     -10.486   8.697  67.315  1.00  0.00    -0.360 A  
HETATM   12  N   UNL     1     -10.253  11.116  67.906  1.00  0.00    -0.176 NA 
HETATM   13  C   UNL     1      -9.546  12.355  67.988  1.00  0.00    -0.211 A  
HETATM   14  C   UNL     1      -9.992   7.507  66.754  1.00  0.00    -0.307 A  
HETATM   15  C   UNL     1     -10.109  13.516  68.570  1.00  0.00    -0.215 A  
HETATM   16  C   UNL     1      -7.956   8.628  66.234  1.00  0.00    -0.102 A  
HETATM   17  C   UNL     1      -8.723   7.472  66.209  1.00  0.00    -0.165 A  
BRANCH  12  18
HETATM   18  C   UNL     1     -11.645  11.129  68.417  1.00  0.00    -0.306 C  
BRANCH  18  19
HETATM   19  C   UNL     1     -11.861  10.034  69.472  1.00  0.00     0.017 C  
BRANCH  19  20
HETATM   20  C   UNL     1     -10.741  10.032  70.523  1.00  0.00    -0.285 C  
BRANCH  20  21
HETATM   21  N   UNL     1     -11.095   9.259  71.726  1.00  0.00    -0.369 NA 
HETATM   22  C   UNL     1     -12.120   8.234  71.457  1.00  0.00    -0.299 C  
HETATM   23  C   UNL     1     -11.598   7.055  70.617  1.00  0.00    -0.335 C  
HETATM   24  N   UNL     1     -10.485   6.334  71.265  1.00  0.00    -0.211 NA 
HETATM   25  C   UNL     1      -9.423   7.324  71.591  1.00  0.00    -0.151 C  
HETATM   26  C   UNL     1      -9.907   8.608  72.322  1.00  0.00    -0.289 C  
BRANCH  24  27
HETATM   27  C   UNL     1     -10.919   5.618  72.492  1.00  0.00    -0.264 C  
BRANCH  27  28
HETATM   28  C   UNL     1     -10.087   4.357  72.779  1.00  0.00    -0.168 C  
HETATM   29  O   UNL     1      -9.250   4.565  73.912  1.00  0.00    -0.110 OA 
HETATM   30  H   UNL     1      -8.735   3.786  74.089  1.00  0.00     0.000 HD 
ENDBRANCH  27  28
ENDBRANCH  24  27
ENDBRANCH  20  21
ENDBRANCH  19  20
ENDBRANCH  18  19
ENDBRANCH  12  18
ENDBRANCH   2   4
TORSDOF 7
ENDMDL
MODEL      161
REMARK 921   NORMALIZED FREE ENERGY PREDICTED BY IDOCK:   -3.80 KCAL/MOL
REMARK 922        TOTAL FREE ENERGY PREDICTED BY IDOCK:   -6.11 KCAL/MOL
REMARK 923 INTER-LIGAND FREE ENERGY PREDICTED BY IDOCK:   -5.68 KCAL/MOL
REMARK 924 INTRA-LIGAND FREE ENERGY PREDICTED BY IDOCK:   -0.43 KCAL/MOL
REMARK 927      BINDING AFFINITY PREDICTED BY RF-SCORE:    0.00 PKD
ROOT
HETATM    1  C   UNL     1      -5.575  17.787  70.569  1.00  0.00    -0.179 C  
HETATM    2  C   UNL     1      -5.849  16.841  69.431  1.00  0.00    -0.178 C  
HETATM    3  O   UNL     1      -6.048  17.255  68.289  1.00  0.00    -0.144 OA 
ENDROOT
BRANCH   2   4
HETATM    4  C   UNL     1      -5.874  15.377  69.709  1.00  0.00    -0.135 A  
HETATM    5  C   UNL     1      -5.211  14.824  70.796  1.00  0.00    -0.129 A  
HETATM    6  C   UNL     1      -5.279  13.452  71.003  1.00  0.00    -0.161 A  
HETATM    7  C   UNL     1      -5.997  12.613  70.139  1.00  0.00    -0.138 A  
HETATM    8  S   UNL     1      -5.966  10.896  70.575  1.00  0.00    -0.087 SA 
HETATM    9  C   UNL     1      -6.944  10.151  69.301  1.00  0.00    -0.068 A  
HETATM   10  C   UNL     1      -7.549  10.870  68.244  1.00  0.00    -0.100 A  
HETATM   11  C   UNL     1      -8.293  10.087  67.333  1.00  0.00    -0.118 A  
HETATM   12  N   UNL     1      -7.401  12.287  68.121  1.00  0.00    -0.096 NA 
HETATM   13  C   UNL     1      -6.676  13.132  69.018  1.00  0.00    -0.103 A  
HETATM   14  C   UNL     1      -8.421   8.692  67.445  1.00  0.00    -0.123 A  
HETATM   15  C   UNL     1      -6.591  14.533  68.842  1.00  0.00    -0.095 A  
HETATM   16  C   UNL     1      -7.075   8.751  69.408  1.00  0.00    -0.057 A  
HETATM   17  C   UNL     1      -7.808   8.020  68.486  1.00  0.00    -0.115 A  
BRANCH  12  18
HETATM   18  C   UNL     1      -8.016  12.959  66.952  1.00  0.00     0.079 C  
BRANCH  18  19
HETATM   19  C   UNL     1      -9.530  13.138  67.144  1.00  0.00    -0.239 C  
BRANCH  19  20
HETATM   20  C   UNL     1      -9.857  13.752  68.513  1.00  0.00    -0.204 C  
BRANCH  20  21
HETATM   21  N   UNL     1     -11.135  14.484  68.515  1.00  0.00    -0.246 NA 
HETATM   22  C   UNL     1     -12.245  13.677  69.056  1.00  0.00    -0.208 C  
HETATM   23  C   UNL     1     -12.150  13.449  70.575  1.00  0.00    -0.323 C  
HETATM   24  N   UNL     1     -12.168  14.707  71.348  1.00  0.00    -0.334 NA 
HETATM   25  C   UNL     1     -11.083  15.582  70.828  1.00  0.00    -0.351 C  
HETATM   26  C   UNL     1     -11.038  15.745  69.282  1.00  0.00    -0.297 C  
BRANCH  24  27
HETATM   27  C   UNL     1     -13.478  15.400  71.262  1.00  0.00    -0.519 C  
BRANCH  27  28
HETATM   28  C   UNL     1     -14.138  15.613  72.635  1.00  0.00    -0.446 C  
HETATM   29  O   UNL     1     -13.232  15.269  73.678  1.00  0.00    -0.573 OA 
HETATM   30  H   UNL     1     -13.640  15.399  74.526  1.00  0.00     0.000 HD 
ENDBRANCH  27  28
ENDBRANCH  24  27
ENDBRANCH  20  21
ENDBRANCH  19  20
ENDBRANCH  18  19
ENDBRANCH  12  18
ENDBRANCH   2   4
TORSDOF 7
ENDMDL
MODEL      162
REMARK 921   NORMALIZED FREE ENERGY PREDICTED BY IDOCK:   -3.78 KCAL/MOL
REMARK 922        TOTAL FREE ENERGY PREDICTED BY IDOCK:   -6.09 KCAL/MOL
REMARK 923 INTER-LIGAND FREE ENERGY PREDICTED BY IDOCK:   -5.56 KCAL/MOL
REMARK 924 INTRA-LIGAND FREE ENERGY PREDICTED BY IDOCK:   -0.53 KCAL/MOL
REMARK 927      BINDING AFFINITY PREDICTED BY RF-SCORE:    0.00 PKD
ROOT
HETATM    1  C   UNL     1      -5.849  17.515  66.503  1.00  0.00    -0.239 C  
HETATM    2  C   UNL     1      -7.056  16.617  66.468  1.00  0.00    -0.177 C  
HETATM    3  O   UNL     1      -8.073  16.938  65.856  1.00  0.00    -0.453 OA 
ENDROOT
BRANCH   2   4
HETATM    4  C   UNL     1      -6.999  15.316  67.193  1.00  0.00    -0.037 A  
HETATM    5  C   UNL     1      -5.908  14.955  67.973  1.00  0.00    -0.155 A  
HETATM    6  C   UNL     1      -5.921  13.730  68.628  1.00  0.00    -0.087 A  
HETATM    7  C   UNL     1      -7.006  12.849  68.517  1.00  0.00    -0.098 A  
HETATM    8  S   UNL     1      -6.833  11.341  69.431  1.00  0.00    -0.107 SA 
HETATM    9  C   UNL     1      -8.343  10.489  69.068  1.00  0.00    -0.154 A  
HETATM   10  C   UNL     1      -9.361  11.003  68.233  1.00  0.00    -0.172 A  
HETATM   11  C   UNL     1     -10.490  10.167  68.077  1.00  0.00    -0.249 A  
HETATM   12  N   UNL     1      -9.236  12.277  67.595  1.00  0.00    -0.177 NA 
HETATM   13  C   UNL     1      -8.129  13.171  67.728  1.00  0.00    -0.165 A  
HETATM   14  C   UNL     1     -10.603   8.907  68.689  1.00  0.00    -0.182 A  
HETATM   15  C   UNL     1      -8.085  14.429  67.081  1.00  0.00    -0.171 A  
HETATM   16  C   UNL     1      -8.461   9.223  69.679  1.00  0.00    -0.140 A  
HETATM   17  C   UNL     1      -9.583   8.432  69.491  1.00  0.00    -0.170 A  
BRANCH  12  18
HETATM   18  C   UNL     1     -10.321  12.718  66.687  1.00  0.00    -0.242 C  
BRANCH  18  19
HETATM   19  C   UNL     1     -11.528  13.249  67.476  1.00  0.00    -0.361 C  
BRANCH  19  20
HETATM   20  C   UNL     1     -11.149  13.594  68.924  1.00  0.00    -0.256 C  
BRANCH  20  21
HETATM   21  N   UNL     1     -11.723  14.875  69.371  1.00  0.00    -0.302 NA 
HETATM   22  C   UNL     1     -10.850  15.581  70.327  1.00  0.00    -0.339 C  
HETATM   23  C   UNL     1      -9.576  16.154  69.681  1.00  0.00    -0.060 C  
HETATM   24  N   UNL     1      -9.862  17.135  68.615  1.00  0.00    -0.286 NA 
HETATM   25  C   UNL     1     -10.768  16.489  67.627  1.00  0.00    -0.311 C  
HETATM   26  C   UNL     1     -12.008  15.770  68.228  1.00  0.00     0.046 C  
BRANCH  24  27
HETATM   27  C   UNL     1     -10.477  18.378  69.146  1.00  0.00     0.231 C  
BRANCH  27  28
HETATM   28  C   UNL     1     -10.053  19.637  68.372  1.00  0.00    -0.449 C  
HETATM   29  O   UNL     1      -8.870  19.382  67.622  1.00  0.00    -0.296 OA 
HETATM   30  H   UNL     1      -8.608  20.161  67.144  1.00  0.00     0.000 HD 
ENDBRANCH  27  28
ENDBRANCH  24  27
ENDBRANCH  20  21
ENDBRANCH  19  20
ENDBRANCH  18  19
ENDBRANCH  12  18
ENDBRANCH   2   4
TORSDOF 7
ENDMDL
MODEL      163
REMARK 921   NORMALIZED FREE ENERGY PREDICTED BY IDOCK:   -3.71 KCAL/MOL
REMARK 922        TOTAL FREE ENERGY PREDICTED BY IDOCK:   -5.99 KCAL/MOL
REMARK 923 INTER-LIGAND FREE ENERGY PREDICTED BY IDOCK:   -5.05 KCAL/MOL
REMARK 924 INTRA-LIGAND FREE ENERGY PREDICTED BY IDOCK:   -0.95 KCAL/MOL
REMARK 927      BINDING AFFINITY PREDICTED BY RF-SCORE:    0.00 PKD
ROOT
HETATM    1  C   UNL     1      -5.199  16.543  67.526  1.00  0.00    -0.154 C  
HETATM    2  C   UNL     1      -6.375  15.611  67.417  1.00  0.00    -0.109 C  
HETATM    3  O   UNL     1      -7.366  15.907  66.752  1.00  0.00    -0.203 OA 
ENDROOT
BRANCH   2   4
HETATM    4  C   UNL     1      -6.320  14.305  68.134  1.00  0.00    -0.133 A  
HETATM    5  C   UNL     1      -5.849  14.200  69.436  1.00  0.00    -0.090 A  
HETATM    6  C   UNL     1      -5.831  12.954  70.050  1.00  0.00    -0.142 A  
HETATM    7  C   UNL     1      -6.272  11.800  69.385  1.00  0.00    -0.103 A  
HETATM    8  S   UNL     1      -6.173  10.311  70.338  1.00  0.00    -0.122 SA 
HETATM    9  C   UNL     1      -6.790   9.087  69.217  1.00  0.00    -0.050 A  
HETATM   10  C   UNL     1      -7.226   9.367  67.901  1.00  0.00    -0.082 A  
HETATM   11  C   UNL     1      -7.687   8.248  67.171  1.00  0.00    -0.097 A  
HETATM   12  N   UNL     1      -7.188  10.692  67.365  1.00  0.00    -0.090 NA 
HETATM   13  C   UNL     1      -6.748  11.861  68.059  1.00  0.00    -0.070 A  
HETATM   14  C   UNL     1      -7.706   6.944  67.693  1.00  0.00    -0.111 A  
HETATM   15  C   UNL     1      -6.759  13.146  67.468  1.00  0.00    -0.159 A  
HETATM   16  C   UNL     1      -6.809   7.776  69.735  1.00  0.00    -0.046 A  
HETATM   17  C   UNL     1      -7.263   6.706  68.980  1.00  0.00    -0.091 A  
BRANCH  12  18
HETATM   18  C   UNL     1      -7.606  10.892  65.957  1.00  0.00    -0.094 C  
BRANCH  18  19
HETATM   19  C   UNL     1      -9.126  10.731  65.798  1.00  0.00    -0.208 C  
BRANCH  19  20
HETATM   20  C   UNL     1      -9.895  11.653  66.756  1.00  0.00    -0.200 C  
BRANCH  20  21
HETATM   21  N   UNL     1     -11.170  11.069  67.203  1.00  0.00    -0.371 NA 
HETATM   22  C   UNL     1     -10.977   9.917  68.104  1.00  0.00    -0.207 C  
HETATM   23  C   UNL     1     -10.447  10.312  69.494  1.00  0.00    -0.244 C  
HETATM   24  N   UNL     1     -11.353  11.226  70.217  1.00  0.00    -0.190 NA 
HETATM   25  C   UNL     1     -11.612  12.403  69.344  1.00  0.00    -0.307 C  
HETATM   26  C   UNL     1     -12.020  12.072  67.881  1.00  0.00    -0.134 C  
BRANCH  24  27
HETATM   27  C   UNL     1     -12.630  10.569  70.594  1.00  0.00    -0.369 C  
BRANCH  27  28
HETATM   28  C   UNL     1     -12.434   9.360  71.523  1.00  0.00    -0.366 C  
HETATM   29  O   UNL     1     -12.658   8.148  70.811  1.00  0.00    -0.502 OA 
HETATM   30  H   UNL     1     -12.537   7.400  71.386  1.00  0.00     0.000 HD 
ENDBRANCH  27  28
ENDBRANCH  24  27
ENDBRANCH  20  21
ENDBRANCH  19  20
ENDBRANCH  18  19
ENDBRANCH  12  18
ENDBRANCH   2   4
TORSDOF 7
ENDMDL
MODEL      164
REMARK 921   NORMALIZED FREE ENERGY PREDICTED BY IDOCK:   -3.66 KCAL/MOL
REMARK 922        TOTAL FREE ENERGY PREDICTED BY IDOCK:   -5.92 KCAL/MOL
REMARK 923 INTER-LIGAND FREE ENERGY PREDICTED BY IDOCK:   -5.30 KCAL/MOL
REMARK 924 INTRA-LIGAND FREE ENERGY PREDICTED BY IDOCK:   -0.62 KCAL/MOL
REMARK 927      BINDING AFFINITY PREDICTED BY RF-SCORE:    0.00 PKD
ROOT
HETATM    1  C   UNL     1     -12.175   9.151  72.540  1.00  0.00    -0.152 C  
HETATM    2  C   UNL     1     -11.930   9.894  71.254  1.00  0.00    -0.402 C  
HETATM    3  O   UNL     1     -12.342  11.041  71.090  1.00  0.00    -0.361 OA 
ENDROOT
BRANCH   2   4
HETATM    4  C   UNL     1     -11.170   9.212  70.168  1.00  0.00    -0.211 A  
HETATM    5  C   UNL     1     -10.945   7.841  70.177  1.00  0.00    -0.246 A  
HETATM    6  C   UNL     1     -10.234   7.266  69.131  1.00  0.00    -0.197 A  
HETATM    7  C   UNL     1      -9.736   8.036  68.070  1.00  0.00    -0.160 A  
HETATM    8  S   UNL     1      -8.862   7.117  66.833  1.00  0.00    -0.133 SA 
HETATM    9  C   UNL     1      -8.383   8.372  65.679  1.00  0.00    -0.154 A  
HETATM   10  C   UNL     1      -8.691   9.744  65.829  1.00  0.00    -0.142 A  
HETATM   11  C   UNL     1      -8.221  10.582  64.792  1.00  0.00    -0.100 A  
HETATM   12  N   UNL     1      -9.421  10.230  66.959  1.00  0.00    -0.161 NA 
HETATM   13  C   UNL     1      -9.934   9.431  68.027  1.00  0.00    -0.176 A  
HETATM   14  C   UNL     1      -7.487  10.105  63.692  1.00  0.00    -0.129 A  
HETATM   15  C   UNL     1     -10.668   9.982  69.104  1.00  0.00    -0.244 A  
HETATM   16  C   UNL     1      -7.646   7.899  64.574  1.00  0.00    -0.111 A  
HETATM   17  C   UNL     1      -7.196   8.759  63.584  1.00  0.00    -0.094 A  
BRANCH  12  18
HETATM   18  C   UNL     1      -9.650  11.690  67.072  1.00  0.00    -0.184 C  
BRANCH  18  19
HETATM   19  C   UNL     1      -8.671  12.333  68.066  1.00  0.00    -0.181 C  
BRANCH  19  20
HETATM   20  C   UNL     1      -7.680  13.267  67.358  1.00  0.00    -0.140 C  
BRANCH  20  21
HETATM   21  N   UNL     1      -6.830  14.013  68.303  1.00  0.00    -0.095 NA 
HETATM   22  C   UNL     1      -6.004  15.034  67.633  1.00  0.00    -0.066 C  
HETATM   23  C   UNL     1      -6.818  16.234  67.115  1.00  0.00    -0.207 C  
HETATM   24  N   UNL     1      -7.532  16.952  68.189  1.00  0.00    -0.172 NA 
HETATM   25  C   UNL     1      -8.366  15.965  68.927  1.00  0.00    -0.226 C  
HETATM   26  C   UNL     1      -7.636  14.663  69.360  1.00  0.00    -0.081 C  
BRANCH  24  27
HETATM   27  C   UNL     1      -6.601  17.640  69.119  1.00  0.00    -0.251 C  
BRANCH  27  28
HETATM   28  C   UNL     1      -6.134  19.010  68.600  1.00  0.00    -0.219 C  
HETATM   29  O   UNL     1      -7.136  19.995  68.835  1.00  0.00    -0.301 OA 
HETATM   30  H   UNL     1      -6.848  20.842  68.513  1.00  0.00     0.000 HD 
ENDBRANCH  27  28
ENDBRANCH  24  27
ENDBRANCH  20  21
ENDBRANCH  19  20
ENDBRANCH  18  19
ENDBRANCH  12  18
ENDBRANCH   2   4
TORSDOF 7
ENDMDL
MODEL      165
REMARK 921   NORMALIZED FREE ENERGY PREDICTED BY IDOCK:   -3.65 KCAL/MOL
REMARK 922        TOTAL FREE ENERGY PREDICTED BY IDOCK:   -5.90 KCAL/MOL
REMARK 923 INTER-LIGAND FREE ENERGY PREDICTED BY IDOCK:   -5.55 KCAL/MOL
REMARK 924 INTRA-LIGAND FREE ENERGY PREDICTED BY IDOCK:   -0.35 KCAL/MOL
REMARK 927      BINDING AFFINITY PREDICTED BY RF-SCORE:    0.00 PKD
ROOT
HETATM    1  C   UNL     1     -13.393  13.028  72.085  1.00  0.00    -0.622 C  
HETATM    2  C   UNL     1     -12.466  13.090  70.901  1.00  0.00    -0.310 C  
HETATM    3  O   UNL     1     -12.173  14.162  70.374  1.00  0.00    -0.312 OA 
ENDROOT
BRANCH   2   4
HETATM    4  C   UNL     1     -11.897  11.818  70.372  1.00  0.00    -0.362 A  
HETATM    5  C   UNL     1     -12.614  10.629  70.385  1.00  0.00    -0.395 A  
HETATM    6  C   UNL     1     -12.029   9.480  69.870  1.00  0.00     0.227 A  
HETATM    7  C   UNL     1     -10.730   9.490  69.341  1.00  0.00    -0.225 A  
HETATM    8  S   UNL     1     -10.165   7.927  68.730  1.00  0.00    -0.205 SA 
HETATM    9  C   UNL     1      -8.531   8.298  68.156  1.00  0.00    -0.132 A  
HETATM   10  C   UNL     1      -7.940   9.581  68.228  1.00  0.00    -0.094 A  
HETATM   11  C   UNL     1      -6.628   9.666  67.709  1.00  0.00    -0.065 A  
HETATM   12  N   UNL     1      -8.634  10.696  68.794  1.00  0.00    -0.143 NA 
HETATM   13  C   UNL     1      -9.963  10.673  69.317  1.00  0.00    -0.193 A  
HETATM   14  C   UNL     1      -5.941   8.565  67.171  1.00  0.00    -0.054 A  
HETATM   15  C   UNL     1     -10.593  11.826  69.843  1.00  0.00     0.657 A  
HETATM   16  C   UNL     1      -7.837   7.196  67.617  1.00  0.00    -0.113 A  
HETATM   17  C   UNL     1      -6.546   7.324  67.127  1.00  0.00    -0.063 A  
BRANCH  12  18
HETATM   18  C   UNL     1      -7.922  11.992  68.886  1.00  0.00     0.069 C  
BRANCH  18  19
HETATM   19  C   UNL     1      -7.942  12.737  67.542  1.00  0.00    -0.177 C  
BRANCH  19  20
HETATM   20  C   UNL     1      -8.653  14.093  67.659  1.00  0.00    -0.189 C  
BRANCH  20  21
HETATM   21  N   UNL     1     -10.101  13.997  67.402  1.00  0.00    -0.242 NA 
HETATM   22  C   UNL     1     -10.691  15.291  67.012  1.00  0.00    -0.313 C  
HETATM   23  C   UNL     1     -10.275  15.752  65.604  1.00  0.00    -0.380 C  
HETATM   24  N   UNL     1     -10.678  14.804  64.546  1.00  0.00    -0.232 NA 
HETATM   25  C   UNL     1     -10.135  13.464  64.898  1.00  0.00    -0.233 C  
HETATM   26  C   UNL     1     -10.403  12.996  66.356  1.00  0.00    -0.281 C  
BRANCH  24  27
HETATM   27  C   UNL     1     -12.152  14.738  64.383  1.00  0.00    -0.440 C  
BRANCH  27  28
HETATM   28  C   UNL     1     -12.659  13.323  64.059  1.00  0.00    -0.143 C  
HETATM   29  O   UNL     1     -12.122  12.877  62.818  1.00  0.00    -0.579 OA 
HETATM   30  H   UNL     1     -12.436  12.002  62.618  1.00  0.00     0.000 HD 
ENDBRANCH  27  28
ENDBRANCH  24  27
ENDBRANCH  20  21
ENDBRANCH  19  20
ENDBRANCH  18  19
ENDBRANCH  12  18
ENDBRANCH   2   4
TORSDOF 7
ENDMDL
MODEL      166
REMARK 921   NORMALIZED FREE ENERGY PREDICTED BY IDOCK:   -3.64 KCAL/MOL
REMARK 922        TOTAL FREE ENERGY PREDICTED BY IDOCK:   -5.88 KCAL/MOL
REMARK 923 INTER-LIGAND FREE ENERGY PREDICTED BY IDOCK:   -4.95 KCAL/MOL
REMARK 924 INTRA-LIGAND FREE ENERGY PREDICTED BY IDOCK:   -0.93 KCAL/MOL
REMARK 927      BINDING AFFINITY PREDICTED BY RF-SCORE:    0.00 PKD
ROOT
HETATM    1  C   UNL     1      -6.153  11.918  67.302  1.00  0.00    -0.141 C  
HETATM    2  C   UNL     1      -7.568  11.663  67.747  1.00  0.00    -0.121 C  
HETATM    3  O   UNL     1      -8.197  12.504  68.387  1.00  0.00    -0.161 OA 
ENDROOT
BRANCH   2   4
HETATM    4  C   UNL     1      -8.206  10.364  67.393  1.00  0.00    -0.117 A  
HETATM    5  C   UNL     1      -9.374  10.297  66.645  1.00  0.00    -0.192 A  
HETATM    6  C   UNL     1      -9.913   9.053  66.342  1.00  0.00    -0.370 A  
HETATM    7  C   UNL     1      -9.310   7.864  66.778  1.00  0.00    -0.184 A  
HETATM    8  S   UNL     1     -10.148   6.383  66.287  1.00  0.00     0.183 SA 
HETATM    9  C   UNL     1      -9.139   5.111  66.994  1.00  0.00    -0.112 A  
HETATM   10  C   UNL     1      -7.968   5.356  67.748  1.00  0.00    -0.100 A  
HETATM   11  C   UNL     1      -7.304   4.200  68.218  1.00  0.00    -0.060 A  
HETATM   12  N   UNL     1      -7.510   6.684  68.010  1.00  0.00    -0.096 NA 
HETATM   13  C   UNL     1      -8.129   7.887  67.547  1.00  0.00    -0.124 A  
HETATM   14  C   UNL     1      -7.767   2.896  67.976  1.00  0.00    -0.056 A  
HETATM   15  C   UNL     1      -7.603   9.170  67.831  1.00  0.00    -0.085 A  
HETATM   16  C   UNL     1      -9.600   3.800  66.754  1.00  0.00    -0.205 A  
HETATM   17  C   UNL     1      -8.921   2.694  67.243  1.00  0.00    -0.183 A  
BRANCH  12  18
HETATM   18  C   UNL     1      -6.308   6.858  68.859  1.00  0.00    -0.028 C  
BRANCH  18  19
HETATM   19  C   UNL     1      -6.554   6.344  70.286  1.00  0.00    -0.045 C  
BRANCH  19  20
HETATM   20  C   UNL     1      -7.391   7.334  71.107  1.00  0.00    -0.074 C  
BRANCH  20  21
HETATM   21  N   UNL     1      -8.619   6.726  71.648  1.00  0.00    -0.125 NA 
HETATM   22  C   UNL     1      -9.107   7.419  72.855  1.00  0.00    -0.148 C  
HETATM   23  C   UNL     1      -9.693   8.812  72.564  1.00  0.00    -0.056 C  
HETATM   24  N   UNL     1     -10.847   8.770  71.645  1.00  0.00    -0.302 NA 
HETATM   25  C   UNL     1     -10.426   8.053  70.411  1.00  0.00    -0.218 C  
HETATM   26  C   UNL     1      -9.701   6.696  70.640  1.00  0.00    -0.172 C  
BRANCH  24  27
HETATM   27  C   UNL     1     -12.026   8.104  72.253  1.00  0.00    -0.377 C  
BRANCH  27  28
HETATM   28  C   UNL     1     -13.358   8.772  71.873  1.00  0.00    -0.389 C  
HETATM   29  O   UNL     1     -13.916   9.440  73.000  1.00  0.00    -0.895 OA 
HETATM   30  H   UNL     1     -14.739   9.853  72.765  1.00  0.00     0.000 HD 
ENDBRANCH  27  28
ENDBRANCH  24  27
ENDBRANCH  20  21
ENDBRANCH  19  20
ENDBRANCH  18  19
ENDBRANCH  12  18
ENDBRANCH   2   4
TORSDOF 7
ENDMDL
MODEL      167
REMARK 921   NORMALIZED FREE ENERGY PREDICTED BY IDOCK:   -3.62 KCAL/MOL
REMARK 922        TOTAL FREE ENERGY PREDICTED BY IDOCK:   -5.85 KCAL/MOL
REMARK 923 INTER-LIGAND FREE ENERGY PREDICTED BY IDOCK:   -5.29 KCAL/MOL
REMARK 924 INTRA-LIGAND FREE ENERGY PREDICTED BY IDOCK:   -0.56 KCAL/MOL
REMARK 927      BINDING AFFINITY PREDICTED BY RF-SCORE:    0.00 PKD
ROOT
HETATM    1  C   UNL     1      -6.280  12.161  68.980  1.00  0.00    -0.081 C  
HETATM    2  C   UNL     1      -6.446  11.101  70.035  1.00  0.00    -0.133 C  
HETATM    3  O   UNL     1      -5.896  11.198  71.131  1.00  0.00    -0.355 OA 
ENDROOT
BRANCH   2   4
HETATM    4  C   UNL     1      -7.302   9.919  69.731  1.00  0.00    -0.129 A  
HETATM    5  C   UNL     1      -8.173   9.381  70.670  1.00  0.00    -0.207 A  
HETATM    6  C   UNL     1      -8.949   8.283  70.321  1.00  0.00    -0.142 A  
HETATM    7  C   UNL     1      -8.870   7.702  69.046  1.00  0.00    -0.135 A  
HETATM    8  S   UNL     1      -9.941   6.314  68.796  1.00  0.00    -0.158 SA 
HETATM    9  C   UNL     1      -9.587   5.843  67.126  1.00  0.00    -0.127 A  
HETATM   10  C   UNL     1      -8.649   6.503  66.299  1.00  0.00    -0.141 A  
HETATM   11  C   UNL     1      -8.519   5.972  64.996  1.00  0.00    -0.089 A  
HETATM   12  N   UNL     1      -7.892   7.622  66.769  1.00  0.00    -0.105 NA 
HETATM   13  C   UNL     1      -7.993   8.211  68.067  1.00  0.00    -0.127 A  
HETATM   14  C   UNL     1      -9.249   4.861  64.543  1.00  0.00    -0.009 A  
HETATM   15  C   UNL     1      -7.223   9.334  68.454  1.00  0.00    -0.076 A  
HETATM   16  C   UNL     1     -10.316   4.727  66.667  1.00  0.00    -0.258 A  
HETATM   17  C   UNL     1     -10.150   4.234  65.382  1.00  0.00    -0.238 A  
BRANCH  12  18
HETATM   18  C   UNL     1      -6.886   8.221  65.861  1.00  0.00    -0.064 C  
BRANCH  18  19
HETATM   19  C   UNL     1      -7.534   9.227  64.897  1.00  0.00    -0.107 C  
BRANCH  19  20
HETATM   20  C   UNL     1      -8.878   9.739  65.435  1.00  0.00    -0.169 C  
BRANCH  20  21
HETATM   21  N   UNL     1      -8.876  11.192  65.676  1.00  0.00    -0.186 NA 
HETATM   22  C   UNL     1      -9.555  11.942  64.602  1.00  0.00    -0.025 C  
HETATM   23  C   UNL     1     -11.082  11.750  64.594  1.00  0.00    -0.303 C  
HETATM   24  N   UNL     1     -11.725  12.193  65.847  1.00  0.00    -0.482 NA 
HETATM   25  C   UNL     1     -11.061  11.489  66.978  1.00  0.00    -0.307 C  
HETATM   26  C   UNL     1      -9.507  11.529  66.971  1.00  0.00    -0.183 C  
BRANCH  24  27
HETATM   27  C   UNL     1     -11.640  13.664  66.032  1.00  0.00    -0.337 C  
BRANCH  27  28
HETATM   28  C   UNL     1     -12.090  14.121  67.429  1.00  0.00    -0.344 C  
HETATM   29  O   UNL     1     -11.082  14.923  68.035  1.00  0.00    -0.272 OA 
HETATM   30  H   UNL     1     -11.360  15.206  68.899  1.00  0.00     0.000 HD 
ENDBRANCH  27  28
ENDBRANCH  24  27
ENDBRANCH  20  21
ENDBRANCH  19  20
ENDBRANCH  18  19
ENDBRANCH  12  18
ENDBRANCH   2   4
TORSDOF 7
ENDMDL
MODEL      168
REMARK 921   NORMALIZED FREE ENERGY PREDICTED BY IDOCK:   -3.59 KCAL/MOL
REMARK 922        TOTAL FREE ENERGY PREDICTED BY IDOCK:   -5.82 KCAL/MOL
REMARK 923 INTER-LIGAND FREE ENERGY PREDICTED BY IDOCK:   -5.58 KCAL/MOL
REMARK 924 INTRA-LIGAND FREE ENERGY PREDICTED BY IDOCK:   -0.23 KCAL/MOL
REMARK 927      BINDING AFFINITY PREDICTED BY RF-SCORE:    0.00 PKD
ROOT
HETATM    1  C   UNL     1     -13.331  12.460  71.917  1.00  0.00    -0.450 C  
HETATM    2  C   UNL     1     -12.649  11.535  70.945  1.00  0.00    -0.341 C  
HETATM    3  O   UNL     1     -12.207  11.947  69.873  1.00  0.00    -0.265 OA 
ENDROOT
BRANCH   2   4
HETATM    4  C   UNL     1     -12.509  10.096  71.306  1.00  0.00    -0.510 A  
HETATM    5  C   UNL     1     -13.597   9.327  71.697  1.00  0.00    -0.448 A  
HETATM    6  C   UNL     1     -13.401   7.988  72.014  1.00  0.00    -0.276 A  
HETATM    7  C   UNL     1     -12.130   7.397  71.952  1.00  0.00    -0.307 A  
HETATM    8  S   UNL     1     -12.088   5.682  72.390  1.00  0.00     0.243 SA 
HETATM    9  C   UNL     1     -10.374   5.274  72.210  1.00  0.00    -0.212 A  
HETATM   10  C   UNL     1      -9.380   6.195  71.805  1.00  0.00    -0.151 A  
HETATM   11  C   UNL     1      -8.071   5.666  71.719  1.00  0.00    -0.118 A  
HETATM   12  N   UNL     1      -9.695   7.559  71.516  1.00  0.00    -0.166 NA 
HETATM   13  C   UNL     1     -10.997   8.144  71.570  1.00  0.00    -0.243 A  
HETATM   14  C   UNL     1      -7.761   4.330  72.023  1.00  0.00    -0.080 A  
HETATM   15  C   UNL     1     -11.235   9.502  71.248  1.00  0.00    -0.452 A  
HETATM   16  C   UNL     1     -10.057   3.935  72.515  1.00  0.00    -0.232 A  
HETATM   17  C   UNL     1      -8.757   3.461  72.424  1.00  0.00    -0.101 A  
BRANCH  12  18
HETATM   18  C   UNL     1      -8.586   8.475  71.157  1.00  0.00    -0.169 C  
BRANCH  18  19
HETATM   19  C   UNL     1      -7.883   8.022  69.867  1.00  0.00    -0.102 C  
BRANCH  19  20
HETATM   20  C   UNL     1      -7.088   9.167  69.225  1.00  0.00    -0.058 C  
BRANCH  20  21
HETATM   21  N   UNL     1      -7.904   9.976  68.302  1.00  0.00    -0.088 NA 
HETATM   22  C   UNL     1      -7.113  11.009  67.609  1.00  0.00    -0.088 C  
HETATM   23  C   UNL     1      -6.145  10.435  66.559  1.00  0.00    -0.072 C  
HETATM   24  N   UNL     1      -6.834   9.687  65.489  1.00  0.00    -0.085 NA 
HETATM   25  C   UNL     1      -7.677   8.641  66.128  1.00  0.00    -0.097 C  
HETATM   26  C   UNL     1      -8.581   9.131  67.294  1.00  0.00    -0.118 C  
BRANCH  24  27
HETATM   27  C   UNL     1      -7.666  10.570  64.633  1.00  0.00     0.019 C  
BRANCH  27  28
HETATM   28  C   UNL     1      -8.550   9.791  63.645  1.00  0.00    -0.201 C  
HETATM   29  O   UNL     1      -9.879   9.688  64.147  1.00  0.00    -0.419 OA 
HETATM   30  H   UNL     1     -10.425   9.206  63.536  1.00  0.00     0.000 HD 
ENDBRANCH  27  28
ENDBRANCH  24  27
ENDBRANCH  20  21
ENDBRANCH  19  20
ENDBRANCH  18  19
ENDBRANCH  12  18
ENDBRANCH   2   4
TORSDOF 7
ENDMDL
MODEL      169
REMARK 921   NORMALIZED FREE ENERGY PREDICTED BY IDOCK:   -3.58 KCAL/MOL
REMARK 922        TOTAL FREE ENERGY PREDICTED BY IDOCK:   -5.80 KCAL/MOL
REMARK 923 INTER-LIGAND FREE ENERGY PREDICTED BY IDOCK:   -5.18 KCAL/MOL
REMARK 924 INTRA-LIGAND FREE ENERGY PREDICTED BY IDOCK:   -0.62 KCAL/MOL
REMARK 927      BINDING AFFINITY PREDICTED BY RF-SCORE:    0.00 PKD
ROOT
HETATM    1  C   UNL     1      -5.324  13.902  71.461  1.00  0.00    -0.210 C  
HETATM    2  C   UNL     1      -5.609  13.111  70.213  1.00  0.00    -0.141 C  
HETATM    3  O   UNL     1      -5.131  11.990  70.044  1.00  0.00    -0.072 OA 
ENDROOT
BRANCH   2   4
HETATM    4  C   UNL     1      -6.493  13.710  69.173  1.00  0.00    -0.107 A  
HETATM    5  C   UNL     1      -6.236  14.956  68.618  1.00  0.00    -0.086 A  
HETATM    6  C   UNL     1      -7.095  15.455  67.648  1.00  0.00    -0.204 A  
HETATM    7  C   UNL     1      -8.218  14.733  67.218  1.00  0.00    -0.213 A  
HETATM    8  S   UNL     1      -9.186  15.537  65.972  1.00  0.00    -0.267 SA 
HETATM    9  C   UNL     1     -10.489  14.374  65.678  1.00  0.00    -0.334 A  
HETATM   10  C   UNL     1     -10.609  13.134  66.348  1.00  0.00    -0.286 A  
HETATM   11  C   UNL     1     -11.720  12.349  65.963  1.00  0.00    -0.469 A  
HETATM   12  N   UNL     1      -9.669  12.726  67.344  1.00  0.00    -0.194 NA 
HETATM   13  C   UNL     1      -8.521  13.468  67.762  1.00  0.00    -0.184 A  
HETATM   14  C   UNL     1     -12.654  12.761  64.997  1.00  0.00    -0.538 A  
HETATM   15  C   UNL     1      -7.621  12.988  68.743  1.00  0.00    -0.027 A  
HETATM   16  C   UNL     1     -11.429  14.783  64.710  1.00  0.00    -0.410 A  
HETATM   17  C   UNL     1     -12.510  13.984  64.369  1.00  0.00    -0.326 A  
BRANCH  12  18
HETATM   18  C   UNL     1      -9.899  11.439  68.043  1.00  0.00    -0.184 C  
BRANCH  18  19
HETATM   19  C   UNL     1      -9.330  10.259  67.240  1.00  0.00    -0.169 C  
BRANCH  19  20
HETATM   20  C   UNL     1      -8.898   9.107  68.159  1.00  0.00    -0.129 C  
BRANCH  20  21
HETATM   21  N   UNL     1      -8.486   7.908  67.409  1.00  0.00    -0.122 NA 
HETATM   22  C   UNL     1      -7.023   7.820  67.246  1.00  0.00    -0.078 C  
HETATM   23  C   UNL     1      -6.282   7.494  68.555  1.00  0.00    -0.032 C  
HETATM   24  N   UNL     1      -6.688   6.200  69.140  1.00  0.00    -0.058 NA 
HETATM   25  C   UNL     1      -8.167   6.214  69.303  1.00  0.00    -0.116 C  
HETATM   26  C   UNL     1      -8.974   6.670  68.054  1.00  0.00    -0.117 C  
BRANCH  24  27
HETATM   27  C   UNL     1      -6.271   5.049  68.300  1.00  0.00    -0.035 C  
BRANCH  27  28
HETATM   28  C   UNL     1      -6.952   3.731  68.705  1.00  0.00    -0.047 C  
HETATM   29  O   UNL     1      -6.181   2.619  68.260  1.00  0.00    -0.027 OA 
HETATM   30  H   UNL     1      -6.602   1.805  68.510  1.00  0.00     0.000 HD 
ENDBRANCH  27  28
ENDBRANCH  24  27
ENDBRANCH  20  21
ENDBRANCH  19  20
ENDBRANCH  18  19
ENDBRANCH  12  18
ENDBRANCH   2   4
TORSDOF 7
ENDMDL
MODEL      170
REMARK 921   NORMALIZED FREE ENERGY PREDICTED BY IDOCK:   -3.56 KCAL/MOL
REMARK 922        TOTAL FREE ENERGY PREDICTED BY IDOCK:   -5.77 KCAL/MOL
REMARK 923 INTER-LIGAND FREE ENERGY PREDICTED BY IDOCK:   -5.09 KCAL/MOL
REMARK 924 INTRA-LIGAND FREE ENERGY PREDICTED BY IDOCK:   -0.68 KCAL/MOL
REMARK 927      BINDING AFFINITY PREDICTED BY RF-SCORE:    0.00 PKD
ROOT
HETATM    1  C   UNL     1     -11.217  15.750  68.363  1.00  0.00    -0.362 C  
HETATM    2  C   UNL     1     -11.694  14.340  68.144  1.00  0.00    -0.350 C  
HETATM    3  O   UNL     1     -12.517  13.820  68.895  1.00  0.00    -0.173 OA 
ENDROOT
BRANCH   2   4
HETATM    4  C   UNL     1     -11.150  13.574  66.987  1.00  0.00    -0.310 A  
HETATM    5  C   UNL     1     -11.089  14.115  65.710  1.00  0.00    -0.309 A  
HETATM    6  C   UNL     1     -10.563  13.350  64.676  1.00  0.00    -0.431 A  
HETATM    7  C   UNL     1     -10.098  12.045  64.890  1.00  0.00    -0.260 A  
HETATM    8  S   UNL     1      -9.463  11.237  63.447  1.00  0.00    -0.285 SA 
HETATM    9  C   UNL     1      -8.980   9.650  64.067  1.00  0.00    -0.223 A  
HETATM   10  C   UNL     1      -9.122   9.251  65.416  1.00  0.00    -0.222 A  
HETATM   11  C   UNL     1      -8.670   7.943  65.706  1.00  0.00    -0.163 A  
HETATM   12  N   UNL     1      -9.692  10.120  66.399  1.00  0.00    -0.194 NA 
HETATM   13  C   UNL     1     -10.150  11.454  66.169  1.00  0.00    -0.231 A  
HETATM   14  C   UNL     1      -8.129   7.084  64.735  1.00  0.00    -0.096 A  
HETATM   15  C   UNL     1     -10.684  12.263  67.199  1.00  0.00    -0.265 A  
HETATM   16  C   UNL     1      -8.437   8.784  63.096  1.00  0.00    -0.132 A  
HETATM   17  C   UNL     1      -8.014   7.505  63.424  1.00  0.00    -0.085 A  
BRANCH  12  18
HETATM   18  C   UNL     1      -9.862   9.604  67.778  1.00  0.00    -0.159 C  
BRANCH  18  19
HETATM   19  C   UNL     1      -8.579   9.788  68.604  1.00  0.00    -0.121 C  
BRANCH  19  20
HETATM   20  C   UNL     1      -8.479   8.748  69.730  1.00  0.00    -0.129 C  
BRANCH  20  21
HETATM   21  N   UNL     1      -7.266   7.918  69.629  1.00  0.00    -0.068 NA 
HETATM   22  C   UNL     1      -6.677   7.618  70.947  1.00  0.00    -0.042 C  
HETATM   23  C   UNL     1      -7.516   6.633  71.780  1.00  0.00    -0.091 C  
HETATM   24  N   UNL     1      -7.689   5.323  71.121  1.00  0.00    -0.098 NA 
HETATM   25  C   UNL     1      -8.256   5.561  69.766  1.00  0.00    -0.101 C  
HETATM   26  C   UNL     1      -7.534   6.648  68.920  1.00  0.00    -0.096 C  
BRANCH  24  27
HETATM   27  C   UNL     1      -6.412   4.572  71.023  1.00  0.00    -0.029 C  
BRANCH  27  28
HETATM   28  C   UNL     1      -6.329   3.394  72.008  1.00  0.00    -0.014 C  
HETATM   29  O   UNL     1      -7.560   3.249  72.710  1.00  0.00    -0.049 OA 
HETATM   30  H   UNL     1      -7.508   2.521  73.319  1.00  0.00     0.000 HD 
ENDBRANCH  27  28
ENDBRANCH  24  27
ENDBRANCH  20  21
ENDBRANCH  19  20
ENDBRANCH  18  19
ENDBRANCH  12  18
ENDBRANCH   2   4
TORSDOF 7
ENDMDL
MODEL      171
REMARK 921   NORMALIZED FREE ENERGY PREDICTED BY IDOCK:   -3.52 KCAL/MOL
REMARK 922        TOTAL FREE ENERGY PREDICTED BY IDOCK:   -5.71 KCAL/MOL
REMARK 923 INTER-LIGAND FREE ENERGY PREDICTED BY IDOCK:   -4.98 KCAL/MOL
REMARK 924 INTRA-LIGAND FREE ENERGY PREDICTED BY IDOCK:   -0.73 KCAL/MOL
REMARK 927      BINDING AFFINITY PREDICTED BY RF-SCORE:    0.00 PKD
ROOT
HETATM    1  C   UNL     1      -6.189  11.965  69.693  1.00  0.00    -0.129 C  
HETATM    2  C   UNL     1      -6.207  10.578  70.276  1.00  0.00    -0.130 C  
HETATM    3  O   UNL     1      -6.057  10.390  71.482  1.00  0.00    -0.310 OA 
ENDROOT
BRANCH   2   4
HETATM    4  C   UNL     1      -6.415   9.421  69.360  1.00  0.00    -0.044 A  
HETATM    5  C   UNL     1      -6.251   8.109  69.784  1.00  0.00    -0.029 A  
HETATM    6  C   UNL     1      -6.467   7.075  68.882  1.00  0.00    -0.029 A  
HETATM    7  C   UNL     1      -6.844   7.324  67.554  1.00  0.00    -0.074 A  
HETATM    8  S   UNL     1      -7.076   5.874  66.564  1.00  0.00    -0.070 SA 
HETATM    9  C   UNL     1      -7.530   6.545  64.989  1.00  0.00    -0.085 A  
HETATM   10  C   UNL     1      -7.645   7.928  64.721  1.00  0.00    -0.110 A  
HETATM   11  C   UNL     1      -8.024   8.255  63.399  1.00  0.00    -0.155 A  
HETATM   12  N   UNL     1      -7.383   8.911  65.727  1.00  0.00    -0.088 NA 
HETATM   13  C   UNL     1      -7.013   8.641  67.080  1.00  0.00    -0.074 A  
HETATM   14  C   UNL     1      -8.261   7.288  62.407  1.00  0.00    -0.074 A  
HETATM   15  C   UNL     1      -6.791   9.669  68.027  1.00  0.00    -0.073 A  
HETATM   16  C   UNL     1      -7.768   5.579  63.989  1.00  0.00    -0.089 A  
HETATM   17  C   UNL     1      -8.131   5.945  62.702  1.00  0.00    -0.107 A  
BRANCH  12  18
HETATM   18  C   UNL     1      -7.467  10.342  65.349  1.00  0.00    -0.145 C  
BRANCH  18  19
HETATM   19  C   UNL     1      -8.912  10.749  65.022  1.00  0.00    -0.211 C  
BRANCH  19  20
HETATM   20  C   UNL     1      -9.811  10.687  66.265  1.00  0.00    -0.214 C  
BRANCH  20  21
HETATM   21  N   UNL     1      -9.532  11.774  67.221  1.00  0.00    -0.169 NA 
HETATM   22  C   UNL     1     -10.026  13.080  66.748  1.00  0.00    -0.245 C  
HETATM   23  C   UNL     1     -11.561  13.196  66.766  1.00  0.00    -0.366 C  
HETATM   24  N   UNL     1     -12.135  13.026  68.115  1.00  0.00    -0.250 NA 
HETATM   25  C   UNL     1     -11.648  11.731  68.663  1.00  0.00    -0.309 C  
HETATM   26  C   UNL     1     -10.116  11.491  68.550  1.00  0.00    -0.207 C  
BRANCH  24  27
HETATM   27  C   UNL     1     -11.771  14.141  69.025  1.00  0.00    -0.324 C  
BRANCH  27  28
HETATM   28  C   UNL     1     -12.053  13.828  70.504  1.00  0.00    -0.345 C  
HETATM   29  O   UNL     1     -11.332  14.723  71.345  1.00  0.00    -0.528 OA 
HETATM   30  H   UNL     1     -11.506  14.529  72.259  1.00  0.00     0.000 HD 
ENDBRANCH  27  28
ENDBRANCH  24  27
ENDBRANCH  20  21
ENDBRANCH  19  20
ENDBRANCH  18  19
ENDBRANCH  12  18
ENDBRANCH   2   4
TORSDOF 7
ENDMDL
MODEL      172
REMARK 921   NORMALIZED FREE ENERGY PREDICTED BY IDOCK:   -3.52 KCAL/MOL
REMARK 922        TOTAL FREE ENERGY PREDICTED BY IDOCK:   -5.71 KCAL/MOL
REMARK 923 INTER-LIGAND FREE ENERGY PREDICTED BY IDOCK:   -5.37 KCAL/MOL
REMARK 924 INTRA-LIGAND FREE ENERGY PREDICTED BY IDOCK:   -0.35 KCAL/MOL
REMARK 927      BINDING AFFINITY PREDICTED BY RF-SCORE:    0.00 PKD
ROOT
HETATM    1  C   UNL     1      -5.395  11.304  70.325  1.00  0.00    -0.099 C  
HETATM    2  C   UNL     1      -5.597   9.991  69.619  1.00  0.00    -0.037 C  
HETATM    3  O   UNL     1      -5.196   8.935  70.106  1.00  0.00    -0.028 OA 
ENDROOT
BRANCH   2   4
HETATM    4  C   UNL     1      -6.303   9.988  68.306  1.00  0.00    -0.053 A  
HETATM    5  C   UNL     1      -5.876   9.203  67.243  1.00  0.00    -0.046 A  
HETATM    6  C   UNL     1      -6.583   9.240  66.048  1.00  0.00    -0.072 A  
HETATM    7  C   UNL     1      -7.714  10.054  65.888  1.00  0.00    -0.116 A  
HETATM    8  S   UNL     1      -8.478   9.957  64.293  1.00  0.00    -0.189 SA 
HETATM    9  C   UNL     1      -9.835  11.086  64.440  1.00  0.00    -0.298 A  
HETATM   10  C   UNL     1     -10.127  11.825  65.610  1.00  0.00    -0.243 A  
HETATM   11  C   UNL     1     -11.258  12.667  65.521  1.00  0.00    -0.337 A  
HETATM   12  N   UNL     1      -9.319  11.718  66.785  1.00  0.00    -0.188 NA 
HETATM   13  C   UNL     1      -8.176  10.873  66.938  1.00  0.00    -0.135 A  
HETATM   14  C   UNL     1     -12.039  12.785  64.359  1.00  0.00    -0.484 A  
HETATM   15  C   UNL     1      -7.437  10.805  68.143  1.00  0.00    -0.091 A  
HETATM   16  C   UNL     1     -10.621  11.209  63.276  1.00  0.00    -0.268 A  
HETATM   17  C   UNL     1     -11.718  12.055  63.231  1.00  0.00    -0.425 A  
BRANCH  12  18
HETATM   18  C   UNL     1      -9.656  12.570  67.949  1.00  0.00    -0.206 C  
BRANCH  18  19
HETATM   19  C   UNL     1      -8.902  13.908  67.898  1.00  0.00    -0.184 C  
BRANCH  19  20
HETATM   20  C   UNL     1      -9.868  15.100  67.851  1.00  0.00    -0.216 C  
BRANCH  20  21
HETATM   21  N   UNL     1      -9.950  15.815  69.136  1.00  0.00    -0.224 NA 
HETATM   22  C   UNL     1     -11.156  16.658  69.236  1.00  0.00    -0.199 C  
HETATM   23  C   UNL     1     -12.456  15.848  69.382  1.00  0.00     0.227 C  
HETATM   24  N   UNL     1     -12.474  14.997  70.588  1.00  0.00    -0.339 NA 
HETATM   25  C   UNL     1     -11.259  14.138  70.562  1.00  0.00     0.185 C  
HETATM   26  C   UNL     1      -9.921  14.878  70.281  1.00  0.00     0.376 C  
BRANCH  24  27
HETATM   27  C   UNL     1     -12.514  15.797  71.838  1.00  0.00    -0.458 C  
BRANCH  27  28
HETATM   28  C   UNL     1     -13.698  15.431  72.749  1.00  0.00    -0.517 C  
HETATM   29  O   UNL     1     -14.035  16.530  73.588  1.00  0.00    -0.698 OA 
HETATM   30  H   UNL     1     -14.766  16.304  74.151  1.00  0.00     0.000 HD 
ENDBRANCH  27  28
ENDBRANCH  24  27
ENDBRANCH  20  21
ENDBRANCH  19  20
ENDBRANCH  18  19
ENDBRANCH  12  18
ENDBRANCH   2   4
TORSDOF 7
ENDMDL
MODEL      173
REMARK 921   NORMALIZED FREE ENERGY PREDICTED BY IDOCK:   -3.50 KCAL/MOL
REMARK 922        TOTAL FREE ENERGY PREDICTED BY IDOCK:   -5.69 KCAL/MOL
REMARK 923 INTER-LIGAND FREE ENERGY PREDICTED BY IDOCK:   -4.91 KCAL/MOL
REMARK 924 INTRA-LIGAND FREE ENERGY PREDICTED BY IDOCK:   -0.78 KCAL/MOL
REMARK 927      BINDING AFFINITY PREDICTED BY RF-SCORE:    0.00 PKD
ROOT
HETATM    1  C   UNL     1     -10.573   3.406  63.503  1.00  0.00    -0.260 C  
HETATM    2  C   UNL     1      -9.362   4.156  63.986  1.00  0.00    -0.153 C  
HETATM    3  O   UNL     1      -8.611   4.732  63.200  1.00  0.00    -0.110 OA 
ENDROOT
BRANCH   2   4
HETATM    4  C   UNL     1      -9.084   4.196  65.450  1.00  0.00    -0.139 A  
HETATM    5  C   UNL     1      -8.938   3.038  66.203  1.00  0.00    -0.150 A  
HETATM    6  C   UNL     1      -8.672   3.144  67.562  1.00  0.00    -0.140 A  
HETATM    7  C   UNL     1      -8.552   4.391  68.192  1.00  0.00    -0.095 A  
HETATM    8  S   UNL     1      -8.208   4.315  69.928  1.00  0.00    -0.061 SA 
HETATM    9  C   UNL     1      -8.127   6.024  70.386  1.00  0.00    -0.111 A  
HETATM   10  C   UNL     1      -8.312   7.095  69.482  1.00  0.00    -0.133 A  
HETATM   11  C   UNL     1      -8.203   8.385  70.050  1.00  0.00    -0.121 A  
HETATM   12  N   UNL     1      -8.596   6.869  68.099  1.00  0.00    -0.124 NA 
HETATM   13  C   UNL     1      -8.702   5.591  67.468  1.00  0.00    -0.107 A  
HETATM   14  C   UNL     1      -7.943   8.606  71.413  1.00  0.00    -0.174 A  
HETATM   15  C   UNL     1      -8.965   5.446  66.085  1.00  0.00    -0.142 A  
HETATM   16  C   UNL     1      -7.868   6.250  71.754  1.00  0.00    -0.101 A  
HETATM   17  C   UNL     1      -7.777   7.534  72.269  1.00  0.00    -0.099 A  
BRANCH  12  18
HETATM   18  C   UNL     1      -8.836   8.044  67.230  1.00  0.00    -0.131 C  
BRANCH  18  19
HETATM   19  C   UNL     1     -10.285   8.541  67.351  1.00  0.00    -0.329 C  
BRANCH  19  20
HETATM   20  C   UNL     1     -10.430   9.987  66.855  1.00  0.00    -0.218 C  
BRANCH  20  21
HETATM   21  N   UNL     1      -9.660  10.944  67.668  1.00  0.00    -0.162 NA 
HETATM   22  C   UNL     1      -9.201  12.107  66.886  1.00  0.00    -0.203 C  
HETATM   23  C   UNL     1     -10.340  13.063  66.489  1.00  0.00    -0.274 C  
HETATM   24  N   UNL     1     -11.048  13.631  67.653  1.00  0.00    -0.266 NA 
HETATM   25  C   UNL     1     -11.513  12.502  68.503  1.00  0.00    -0.305 C  
HETATM   26  C   UNL     1     -10.441  11.423  68.829  1.00  0.00    -0.204 C  
BRANCH  24  27
HETATM   27  C   UNL     1     -10.187  14.550  68.440  1.00  0.00    -0.239 C  
BRANCH  27  28
HETATM   28  C   UNL     1      -9.566  15.669  67.588  1.00  0.00    -0.220 C  
HETATM   29  O   UNL     1      -8.145  15.624  67.672  1.00  0.00    -0.136 OA 
HETATM   30  H   UNL     1      -7.761  16.316  67.145  1.00  0.00     0.000 HD 
ENDBRANCH  27  28
ENDBRANCH  24  27
ENDBRANCH  20  21
ENDBRANCH  19  20
ENDBRANCH  18  19
ENDBRANCH  12  18
ENDBRANCH   2   4
TORSDOF 7
ENDMDL
MODEL      174
REMARK 921   NORMALIZED FREE ENERGY PREDICTED BY IDOCK:   -3.47 KCAL/MOL
REMARK 922        TOTAL FREE ENERGY PREDICTED BY IDOCK:   -5.64 KCAL/MOL
REMARK 923 INTER-LIGAND FREE ENERGY PREDICTED BY IDOCK:   -4.96 KCAL/MOL
REMARK 924 INTRA-LIGAND FREE ENERGY PREDICTED BY IDOCK:   -0.68 KCAL/MOL
REMARK 927      BINDING AFFINITY PREDICTED BY RF-SCORE:    0.00 PKD
ROOT
HETATM    1  C   UNL     1      -7.767  20.454  67.844  1.00  0.00    -0.218 C  
HETATM    2  C   UNL     1      -8.282  19.112  68.287  1.00  0.00    -0.334 C  
HETATM    3  O   UNL     1      -8.027  18.667  69.405  1.00  0.00     0.026 OA 
ENDROOT
BRANCH   2   4
HETATM    4  C   UNL     1      -9.120  18.320  67.343  1.00  0.00    -0.253 A  
HETATM    5  C   UNL     1      -9.994  18.926  66.449  1.00  0.00    -0.435 A  
HETATM    6  C   UNL     1     -10.742  18.131  65.590  1.00  0.00    -0.045 A  
HETATM    7  C   UNL     1     -10.638  16.733  65.605  1.00  0.00    -0.246 A  
HETATM    8  S   UNL     1     -11.670  15.899  64.431  1.00  0.00     0.018 SA 
HETATM    9  C   UNL     1     -11.296  14.193  64.724  1.00  0.00    -0.371 A  
HETATM   10  C   UNL     1     -10.373  13.740  65.695  1.00  0.00    -0.311 A  
HETATM   11  C   UNL     1     -10.216  12.337  65.765  1.00  0.00    -0.281 A  
HETATM   12  N   UNL     1      -9.665  14.652  66.539  1.00  0.00    -0.267 NA 
HETATM   13  C   UNL     1      -9.771  16.076  66.502  1.00  0.00    -0.264 A  
HETATM   14  C   UNL     1     -10.927  11.442  64.948  1.00  0.00    -0.284 A  
HETATM   15  C   UNL     1      -9.020  16.917  67.358  1.00  0.00    -0.215 A  
HETATM   16  C   UNL     1     -12.008  13.291  63.908  1.00  0.00    -0.541 A  
HETATM   17  C   UNL     1     -11.829  11.920  64.017  1.00  0.00    -0.458 A  
BRANCH  12  18
HETATM   18  C   UNL     1      -8.760  14.094  67.572  1.00  0.00    -0.204 C  
BRANCH  18  19
HETATM   19  C   UNL     1      -7.347  13.868  67.012  1.00  0.00     0.376 C  
BRANCH  19  20
HETATM   20  C   UNL     1      -6.544  12.893  67.884  1.00  0.00    -0.125 C  
BRANCH  20  21
HETATM   21  N   UNL     1      -7.320  11.700  68.263  1.00  0.00    -0.087 NA 
HETATM   22  C   UNL     1      -7.439  10.730  67.158  1.00  0.00    -0.102 C  
HETATM   23  C   UNL     1      -6.118  10.008  66.836  1.00  0.00    -0.056 C  
HETATM   24  N   UNL     1      -5.591   9.236  67.978  1.00  0.00    -0.038 NA 
HETATM   25  C   UNL     1      -5.475  10.156  69.141  1.00  0.00    -0.038 C  
HETATM   26  C   UNL     1      -6.733  11.020  69.439  1.00  0.00    -0.112 C  
BRANCH  24  27
HETATM   27  C   UNL     1      -6.455   8.077  68.319  1.00  0.00    -0.055 C  
BRANCH  27  28
HETATM   28  C   UNL     1      -6.276   6.890  67.358  1.00  0.00    -0.037 C  
HETATM   29  O   UNL     1      -5.459   5.889  67.956  1.00  0.00    -0.004 OA 
HETATM   30  H   UNL     1      -5.348   5.155  67.362  1.00  0.00     0.000 HD 
ENDBRANCH  27  28
ENDBRANCH  24  27
ENDBRANCH  20  21
ENDBRANCH  19  20
ENDBRANCH  18  19
ENDBRANCH  12  18
ENDBRANCH   2   4
TORSDOF 7
ENDMDL
MODEL      175
REMARK 921   NORMALIZED FREE ENERGY PREDICTED BY IDOCK:   -3.46 KCAL/MOL
REMARK 922        TOTAL FREE ENERGY PREDICTED BY IDOCK:   -5.63 KCAL/MOL
REMARK 923 INTER-LIGAND FREE ENERGY PREDICTED BY IDOCK:   -7.79 KCAL/MOL
REMARK 924 INTRA-LIGAND FREE ENERGY PREDICTED BY IDOCK:    2.16 KCAL/MOL
REMARK 927      BINDING AFFINITY PREDICTED BY RF-SCORE:    0.00 PKD
ROOT
HETATM    1  C   UNL     1     -10.832  16.883  67.283  1.00  0.00    -0.131 C  
HETATM    2  C   UNL     1     -10.558  16.905  68.762  1.00  0.00    -0.355 C  
HETATM    3  O   UNL     1      -9.787  17.726  69.258  1.00  0.00    -0.190 OA 
ENDROOT
BRANCH   2   4
HETATM    4  C   UNL     1     -11.245  15.908  69.631  1.00  0.00    -0.331 A  
HETATM    5  C   UNL     1     -11.973  16.286  70.752  1.00  0.00    -0.047 A  
HETATM    6  C   UNL     1     -12.596  15.307  71.516  1.00  0.00    -0.442 A  
HETATM    7  C   UNL     1     -12.505  13.947  71.185  1.00  0.00    -0.372 A  
HETATM    8  S   UNL     1     -13.371  12.857  72.279  1.00  0.00    -0.393 SA 
HETATM    9  C   UNL     1     -13.045  11.262  71.582  1.00  0.00    -0.408 A  
HETATM   10  C   UNL     1     -12.263  11.050  70.423  1.00  0.00    -0.373 A  
HETATM   11  C   UNL     1     -12.129   9.699  70.028  1.00  0.00     0.143 A  
HETATM   12  N   UNL     1     -11.655  12.136  69.720  1.00  0.00    -0.289 NA 
HETATM   13  C   UNL     1     -11.768  13.519  70.061  1.00  0.00    -0.241 A  
HETATM   14  C   UNL     1     -12.712   8.632  70.732  1.00  0.00     0.217 A  
HETATM   15  C   UNL     1     -11.153  14.543  69.302  1.00  0.00    -0.296 A  
HETATM   16  C   UNL     1     -13.626  10.187  72.285  1.00  0.00    -0.224 A  
HETATM   17  C   UNL     1     -13.462   8.876  71.867  1.00  0.00    -0.464 A  
BRANCH  12  18
HETATM   18  C   UNL     1     -10.801  11.825  68.549  1.00  0.00    -0.224 C  
BRANCH  18  19
HETATM   19  C   UNL     1     -11.307  10.579  67.805  1.00  0.00    -0.267 C  
BRANCH  19  20
HETATM   20  C   UNL     1     -10.755  10.512  66.374  1.00  0.00    -0.096 C  
BRANCH  20  21
HETATM   21  N   UNL     1     -10.220  11.805  65.912  1.00  0.00    -0.228 NA 
HETATM   22  C   UNL     1      -9.999  11.836  64.455  1.00  0.00    -0.251 C  
HETATM   23  C   UNL     1     -11.304  11.863  63.640  1.00  0.00    -0.450 C  
HETATM   24  N   UNL     1     -12.141  13.044  63.932  1.00  0.00    -0.483 NA 
HETATM   25  C   UNL     1     -12.377  13.087  65.400  1.00  0.00    -0.486 C  
HETATM   26  C   UNL     1     -11.110  12.926  66.287  1.00  0.00    -0.288 C  
BRANCH  24  27
HETATM   27  C   UNL     1     -11.510  14.307  63.472  1.00  0.00     0.900 C  
BRANCH  27  28
HETATM   28  C   UNL     1     -11.646  15.452  64.488  1.00  0.00    -0.296 C  
HETATM   29  O   UNL     1     -11.698  16.706  63.816  1.00  0.00    -1.431 OA 
HETATM   30  H   UNL     1     -11.782  17.415  64.444  1.00  0.00     0.000 HD 
ENDBRANCH  27  28
ENDBRANCH  24  27
ENDBRANCH  20  21
ENDBRANCH  19  20
ENDBRANCH  18  19
ENDBRANCH  12  18
ENDBRANCH   2   4
TORSDOF 7
ENDMDL
MODEL      176
REMARK 921   NORMALIZED FREE ENERGY PREDICTED BY IDOCK:   -3.45 KCAL/MOL
REMARK 922        TOTAL FREE ENERGY PREDICTED BY IDOCK:   -5.62 KCAL/MOL
REMARK 923 INTER-LIGAND FREE ENERGY PREDICTED BY IDOCK:   -5.11 KCAL/MOL
REMARK 924 INTRA-LIGAND FREE ENERGY PREDICTED BY IDOCK:   -0.51 KCAL/MOL
REMARK 927      BINDING AFFINITY PREDICTED BY RF-SCORE:    0.00 PKD
ROOT
HETATM    1  C   UNL     1      -6.408  11.167  67.633  1.00  0.00    -0.054 C  
HETATM    2  C   UNL     1      -7.756  10.507  67.732  1.00  0.00    -0.093 C  
HETATM    3  O   UNL     1      -8.677  11.024  68.363  1.00  0.00    -0.137 OA 
ENDROOT
BRANCH   2   4
HETATM    4  C   UNL     1      -7.965   9.202  67.043  1.00  0.00    -0.102 A  
HETATM    5  C   UNL     1      -8.186   9.120  65.674  1.00  0.00    -0.121 A  
HETATM    6  C   UNL     1      -8.366   7.872  65.091  1.00  0.00    -0.128 A  
HETATM    7  C   UNL     1      -8.335   6.694  65.852  1.00  0.00    -0.137 A  
HETATM    8  S   UNL     1      -8.582   5.206  64.925  1.00  0.00    -0.139 SA 
HETATM    9  C   UNL     1      -8.487   3.949  66.169  1.00  0.00    -0.110 A  
HETATM   10  C   UNL     1      -8.262   4.210  67.541  1.00  0.00    -0.098 A  
HETATM   11  C   UNL     1      -8.216   3.065  68.369  1.00  0.00    -0.079 A  
HETATM   12  N   UNL     1      -8.103   5.542  68.035  1.00  0.00    -0.096 NA 
HETATM   13  C   UNL     1      -8.123   6.733  67.245  1.00  0.00    -0.118 A  
HETATM   14  C   UNL     1      -8.392   1.758  67.885  1.00  0.00    -0.080 A  
HETATM   15  C   UNL     1      -7.937   8.019  67.804  1.00  0.00    -0.127 A  
HETATM   16  C   UNL     1      -8.664   2.636  65.688  1.00  0.00    -0.122 A  
HETATM   17  C   UNL     1      -8.619   1.542  66.539  1.00  0.00    -0.107 A  
BRANCH  12  18
HETATM   18  C   UNL     1      -7.931   5.734  69.494  1.00  0.00    -0.097 C  
BRANCH  18  19
HETATM   19  C   UNL     1      -9.048   5.036  70.285  1.00  0.00    -0.164 C  
BRANCH  19  20
HETATM   20  C   UNL     1      -9.827   6.028  71.160  1.00  0.00    -0.179 C  
BRANCH  20  21
HETATM   21  N   UNL     1     -10.508   7.068  70.369  1.00  0.00    -0.203 NA 
HETATM   22  C   UNL     1     -11.961   6.836  70.267  1.00  0.00    -0.236 C  
HETATM   23  C   UNL     1     -12.712   7.075  71.589  1.00  0.00    -0.377 C  
HETATM   24  N   UNL     1     -12.571   8.457  72.089  1.00  0.00    -0.353 NA 
HETATM   25  C   UNL     1     -11.119   8.764  72.188  1.00  0.00    -0.336 C  
HETATM   26  C   UNL     1     -10.274   8.417  70.929  1.00  0.00    -0.194 C  
BRANCH  24  27
HETATM   27  C   UNL     1     -13.251   9.443  71.212  1.00  0.00    -0.295 C  
BRANCH  27  28
HETATM   28  C   UNL     1     -13.154  10.884  71.739  1.00  0.00    -0.459 C  
HETATM   29  O   UNL     1     -12.409  11.693  70.835  1.00  0.00    -0.374 OA 
HETATM   30  H   UNL     1     -12.349  12.584  71.161  1.00  0.00     0.000 HD 
ENDBRANCH  27  28
ENDBRANCH  24  27
ENDBRANCH  20  21
ENDBRANCH  19  20
ENDBRANCH  18  19
ENDBRANCH  12  18
ENDBRANCH   2   4
TORSDOF 7
ENDMDL
MODEL      177
REMARK 921   NORMALIZED FREE ENERGY PREDICTED BY IDOCK:   -3.39 KCAL/MOL
REMARK 922        TOTAL FREE ENERGY PREDICTED BY IDOCK:   -5.53 KCAL/MOL
REMARK 923 INTER-LIGAND FREE ENERGY PREDICTED BY IDOCK:   -5.51 KCAL/MOL
REMARK 924 INTRA-LIGAND FREE ENERGY PREDICTED BY IDOCK:   -0.02 KCAL/MOL
REMARK 927      BINDING AFFINITY PREDICTED BY RF-SCORE:    0.00 PKD
ROOT
HETATM    1  C   UNL     1      -7.975   7.107  73.340  1.00  0.00    -0.122 C  
HETATM    2  C   UNL     1      -9.063   7.938  72.714  1.00  0.00    -0.211 C  
HETATM    3  O   UNL     1     -10.182   8.011  73.219  1.00  0.00    -0.304 OA 
ENDROOT
BRANCH   2   4
HETATM    4  C   UNL     1      -8.760   8.683  71.460  1.00  0.00    -0.266 A  
HETATM    5  C   UNL     1      -7.461   8.851  70.999  1.00  0.00    -0.124 A  
HETATM    6  C   UNL     1      -7.246   9.551  69.819  1.00  0.00    -0.084 A  
HETATM    7  C   UNL     1      -8.310  10.095  69.084  1.00  0.00    -0.154 A  
HETATM    8  S   UNL     1      -7.831  10.947  67.606  1.00  0.00    -0.115 SA 
HETATM    9  C   UNL     1      -9.383  11.494  66.950  1.00  0.00    -0.181 A  
HETATM   10  C   UNL     1     -10.633  11.241  67.560  1.00  0.00    -0.218 A  
HETATM   11  C   UNL     1     -11.753  11.761  66.871  1.00  0.00    -0.221 A  
HETATM   12  N   UNL     1     -10.735  10.518  68.789  1.00  0.00    -0.202 NA 
HETATM   13  C   UNL     1      -9.643   9.957  69.520  1.00  0.00    -0.225 A  
HETATM   14  C   UNL     1     -11.649  12.489  65.674  1.00  0.00    -0.435 A  
HETATM   15  C   UNL     1      -9.825   9.232  70.722  1.00  0.00    -0.350 A  
HETATM   16  C   UNL     1      -9.284  12.226  65.749  1.00  0.00     0.026 A  
HETATM   17  C   UNL     1     -10.409  12.724  65.111  1.00  0.00    -0.314 A  
BRANCH  12  18
HETATM   18  C   UNL     1     -12.077  10.348  69.395  1.00  0.00    -0.013 C  
BRANCH  18  19
HETATM   19  C   UNL     1     -12.584  11.664  70.005  1.00  0.00    -0.048 C  
BRANCH  19  20
HETATM   20  C   UNL     1     -11.446  12.677  70.188  1.00  0.00     0.078 C  
BRANCH  20  21
HETATM   21  N   UNL     1     -11.930  14.066  70.264  1.00  0.00    -0.325 NA 
HETATM   22  C   UNL     1     -10.898  14.998  70.755  1.00  0.00    -0.071 C  
HETATM   23  C   UNL     1      -9.766  15.243  69.741  1.00  0.00    -0.156 C  
HETATM   24  N   UNL     1     -10.245  15.825  68.472  1.00  0.00    -0.212 NA 
HETATM   25  C   UNL     1     -11.317  14.942  67.937  1.00  0.00    -0.327 C  
HETATM   26  C   UNL     1     -12.424  14.542  68.953  1.00  0.00     0.102 C  
BRANCH  24  27
HETATM   27  C   UNL     1     -10.754  17.209  68.647  1.00  0.00    -0.306 C  
BRANCH  27  28
HETATM   28  C   UNL     1     -10.078  18.222  67.707  1.00  0.00    -0.356 C  
HETATM   29  O   UNL     1     -10.493  18.003  66.363  1.00  0.00    -0.375 OA 
HETATM   30  H   UNL     1     -10.074  18.628  65.783  1.00  0.00     0.000 HD 
ENDBRANCH  27  28
ENDBRANCH  24  27
ENDBRANCH  20  21
ENDBRANCH  19  20
ENDBRANCH  18  19
ENDBRANCH  12  18
ENDBRANCH   2   4
TORSDOF 7
ENDMDL
MODEL      178
REMARK 921   NORMALIZED FREE ENERGY PREDICTED BY IDOCK:   -3.34 KCAL/MOL
REMARK 922        TOTAL FREE ENERGY PREDICTED BY IDOCK:   -5.47 KCAL/MOL
REMARK 923 INTER-LIGAND FREE ENERGY PREDICTED BY IDOCK:   -4.56 KCAL/MOL
REMARK 924 INTRA-LIGAND FREE ENERGY PREDICTED BY IDOCK:   -0.90 KCAL/MOL
REMARK 927      BINDING AFFINITY PREDICTED BY RF-SCORE:    0.00 PKD
ROOT
HETATM    1  C   UNL     1     -11.867  12.348  67.326  1.00  0.00    -0.357 C  
HETATM    2  C   UNL     1     -10.499  12.008  66.799  1.00  0.00    -0.214 C  
HETATM    3  O   UNL     1     -10.190  12.235  65.630  1.00  0.00    -0.250 OA 
ENDROOT
BRANCH   2   4
HETATM    4  C   UNL     1      -9.510  11.388  67.726  1.00  0.00    -0.167 A  
HETATM    5  C   UNL     1      -8.141  11.532  67.544  1.00  0.00    -0.137 A  
HETATM    6  C   UNL     1      -7.272  10.934  68.448  1.00  0.00    -0.087 A  
HETATM    7  C   UNL     1      -7.744  10.186  69.537  1.00  0.00    -0.155 A  
HETATM    8  S   UNL     1      -6.479   9.509  70.576  1.00  0.00    -0.098 SA 
HETATM    9  C   UNL     1      -7.409   8.646  71.812  1.00  0.00    -0.080 A  
HETATM   10  C   UNL     1      -8.822   8.591  71.845  1.00  0.00    -0.216 A  
HETATM   11  C   UNL     1      -9.369   7.853  72.919  1.00  0.00    -0.309 A  
HETATM   12  N   UNL     1      -9.620   9.236  70.849  1.00  0.00    -0.273 NA 
HETATM   13  C   UNL     1      -9.125  10.007  69.753  1.00  0.00    -0.193 A  
HETATM   14  C   UNL     1      -8.582   7.204  73.885  1.00  0.00    -0.195 A  
HETATM   15  C   UNL     1      -9.981  10.635  68.817  1.00  0.00    -0.201 A  
HETATM   16  C   UNL     1      -6.624   7.992  72.783  1.00  0.00    -0.085 A  
HETATM   17  C   UNL     1      -7.203   7.271  73.816  1.00  0.00    -0.101 A  
BRANCH  12  18
HETATM   18  C   UNL     1     -11.093   9.080  70.921  1.00  0.00    -0.280 C  
BRANCH  18  19
HETATM   19  C   UNL     1     -11.528   7.676  70.471  1.00  0.00    -0.236 C  
BRANCH  19  20
HETATM   20  C   UNL     1     -11.033   7.359  69.053  1.00  0.00    -0.005 C  
BRANCH  20  21
HETATM   21  N   UNL     1     -10.487   5.996  68.935  1.00  0.00    -0.220 NA 
HETATM   22  C   UNL     1     -10.696   5.419  67.594  1.00  0.00    -0.042 C  
HETATM   23  C   UNL     1      -9.824   6.071  66.506  1.00  0.00    -0.145 C  
HETATM   24  N   UNL     1      -8.378   5.935  66.769  1.00  0.00    -0.109 NA 
HETATM   25  C   UNL     1      -8.104   6.476  68.128  1.00  0.00    -0.113 C  
HETATM   26  C   UNL     1      -9.043   5.959  69.255  1.00  0.00    -0.123 C  
BRANCH  24  27
HETATM   27  C   UNL     1      -7.920   4.526  66.671  1.00  0.00    -0.102 C  
BRANCH  27  28
HETATM   28  C   UNL     1      -6.434   4.401  66.297  1.00  0.00    -0.041 C  
HETATM   29  O   UNL     1      -6.219   4.853  64.964  1.00  0.00    -0.032 OA 
HETATM   30  H   UNL     1      -5.301   4.775  64.733  1.00  0.00     0.000 HD 
ENDBRANCH  27  28
ENDBRANCH  24  27
ENDBRANCH  20  21
ENDBRANCH  19  20
ENDBRANCH  18  19
ENDBRANCH  12  18
ENDBRANCH   2   4
TORSDOF 7
ENDMDL
MODEL      179
REMARK 921   NORMALIZED FREE ENERGY PREDICTED BY IDOCK:   -3.29 KCAL/MOL
REMARK 922        TOTAL FREE ENERGY PREDICTED BY IDOCK:   -5.40 KCAL/MOL
REMARK 923 INTER-LIGAND FREE ENERGY PREDICTED BY IDOCK:   -5.02 KCAL/MOL
REMARK 924 INTRA-LIGAND FREE ENERGY PREDICTED BY IDOCK:   -0.38 KCAL/MOL
REMARK 927      BINDING AFFINITY PREDICTED BY RF-SCORE:    0.00 PKD
ROOT
HETATM    1  C   UNL     1      -9.585   3.586  71.448  1.00  0.00    -0.239 C  
HETATM    2  C   UNL     1     -10.338   4.357  72.498  1.00  0.00    -0.188 C  
HETATM    3  O   UNL     1     -10.672   3.832  73.559  1.00  0.00    -0.177 OA 
ENDROOT
BRANCH   2   4
HETATM    4  C   UNL     1     -10.674   5.784  72.233  1.00  0.00    -0.282 A  
HETATM    5  C   UNL     1     -11.151   6.625  73.230  1.00  0.00    -0.152 A  
HETATM    6  C   UNL     1     -11.438   7.948  72.919  1.00  0.00    -0.357 A  
HETATM    7  C   UNL     1     -11.263   8.453  71.622  1.00  0.00    -0.278 A  
HETATM    8  S   UNL     1     -11.682  10.164  71.429  1.00  0.00    -0.191 SA 
HETATM    9  C   UNL     1     -11.352  10.456  69.714  1.00  0.00    -0.289 A  
HETATM   10  C   UNL     1     -10.870   9.470  68.822  1.00  0.00    -0.142 A  
HETATM   11  C   UNL     1     -10.668   9.910  67.494  1.00  0.00    -0.333 A  
HETATM   12  N   UNL     1     -10.620   8.129  69.250  1.00  0.00    -0.211 NA 
HETATM   13  C   UNL     1     -10.791   7.632  70.579  1.00  0.00    -0.241 A  
HETATM   14  C   UNL     1     -10.933  11.224  67.071  1.00  0.00    -0.352 A  
HETATM   15  C   UNL     1     -10.501   6.292  70.933  1.00  0.00    -0.274 A  
HETATM   16  C   UNL     1     -11.617  11.772  69.284  1.00  0.00    -0.378 A  
HETATM   17  C   UNL     1     -11.412  12.158  67.969  1.00  0.00    -0.380 A  
BRANCH  12  18
HETATM   18  C   UNL     1     -10.174   7.141  68.240  1.00  0.00    -0.184 C  
BRANCH  18  19
HETATM   19  C   UNL     1     -11.279   6.116  67.936  1.00  0.00    -0.137 C  
BRANCH  19  20
HETATM   20  C   UNL     1     -10.898   5.207  66.759  1.00  0.00     0.037 C  
BRANCH  20  21
HETATM   21  N   UNL     1      -9.497   4.757  66.821  1.00  0.00    -0.142 NA 
HETATM   22  C   UNL     1      -9.381   3.297  66.999  1.00  0.00    -0.169 C  
HETATM   23  C   UNL     1      -9.787   2.496  65.749  1.00  0.00     0.555 C  
HETATM   24  N   UNL     1      -8.959   2.812  64.568  1.00  0.00    -0.114 NA 
HETATM   25  C   UNL     1      -9.010   4.283  64.351  1.00  0.00    -0.148 C  
HETATM   26  C   UNL     1      -8.744   5.155  65.611  1.00  0.00    -0.143 C  
BRANCH  24  27
HETATM   27  C   UNL     1      -7.554   2.362  64.732  1.00  0.00    -0.072 C  
BRANCH  27  28
HETATM   28  C   UNL     1      -6.565   3.143  63.850  1.00  0.00    -0.031 C  
HETATM   29  O   UNL     1      -5.433   3.546  64.614  1.00  0.00    -0.009 OA 
HETATM   30  H   UNL     1      -4.822   4.030  64.070  1.00  0.00     0.000 HD 
ENDBRANCH  27  28
ENDBRANCH  24  27
ENDBRANCH  20  21
ENDBRANCH  19  20
ENDBRANCH  18  19
ENDBRANCH  12  18
ENDBRANCH   2   4
TORSDOF 7
ENDMDL
MODEL      180
REMARK 921   NORMALIZED FREE ENERGY PREDICTED BY IDOCK:   -3.17 KCAL/MOL
REMARK 922        TOTAL FREE ENERGY PREDICTED BY IDOCK:   -5.22 KCAL/MOL
REMARK 923 INTER-LIGAND FREE ENERGY PREDICTED BY IDOCK:   -4.97 KCAL/MOL
REMARK 924 INTRA-LIGAND FREE ENERGY PREDICTED BY IDOCK:   -0.25 KCAL/MOL
REMARK 927      BINDING AFFINITY PREDICTED BY RF-SCORE:    0.00 PKD
ROOT
HETATM    1  C   UNL     1     -11.643  12.315  69.189  1.00  0.00    -0.373 C  
HETATM    2  C   UNL     1     -10.529  12.397  68.181  1.00  0.00    -0.219 C  
HETATM    3  O   UNL     1     -10.486  13.300  67.348  1.00  0.00    -0.241 OA 
ENDROOT
BRANCH   2   4
HETATM    4  C   UNL     1      -9.462  11.356  68.210  1.00  0.00    -0.187 A  
HETATM    5  C   UNL     1      -8.598  11.158  67.141  1.00  0.00    -0.139 A  
HETATM    6  C   UNL     1      -7.621  10.176  67.234  1.00  0.00    -0.095 A  
HETATM    7  C   UNL     1      -7.488   9.377  68.379  1.00  0.00    -0.078 A  
HETATM    8  S   UNL     1      -6.179   8.186  68.305  1.00  0.00    -0.051 SA 
HETATM    9  C   UNL     1      -6.301   7.373  69.874  1.00  0.00    -0.031 A  
HETATM   10  C   UNL     1      -7.261   7.697  70.861  1.00  0.00    -0.062 A  
HETATM   11  C   UNL     1      -7.184   6.931  72.046  1.00  0.00    -0.082 A  
HETATM   12  N   UNL     1      -8.234   8.723  70.651  1.00  0.00    -0.127 NA 
HETATM   13  C   UNL     1      -8.349   9.539  69.483  1.00  0.00    -0.145 A  
HETATM   14  C   UNL     1      -6.239   5.910  72.242  1.00  0.00    -0.041 A  
HETATM   15  C   UNL     1      -9.328  10.553  69.357  1.00  0.00    -0.139 A  
HETATM   16  C   UNL     1      -5.356   6.347  70.075  1.00  0.00    -0.014 A  
HETATM   17  C   UNL     1      -5.322   5.615  71.252  1.00  0.00    -0.009 A  
BRANCH  12  18
HETATM   18  C   UNL     1      -9.243   8.961  71.710  1.00  0.00    -0.208 C  
BRANCH  18  19
HETATM   19  C   UNL     1     -10.482   8.073  71.510  1.00  0.00    -0.265 C  
BRANCH  19  20
HETATM   20  C   UNL     1     -10.161   6.592  71.756  1.00  0.00    -0.188 C  
BRANCH  20  21
HETATM   21  N   UNL     1     -10.902   5.694  70.854  1.00  0.00    -0.253 NA 
HETATM   22  C   UNL     1     -11.371   6.380  69.636  1.00  0.00    -0.412 C  
HETATM   23  C   UNL     1     -10.234   6.738  68.662  1.00  0.00    -0.175 C  
HETATM   24  N   UNL     1      -9.492   5.555  68.183  1.00  0.00    -0.111 NA 
HETATM   25  C   UNL     1      -9.015   4.799  69.372  1.00  0.00    -0.094 C  
HETATM   26  C   UNL     1     -10.087   4.523  70.463  1.00  0.00    -0.162 C  
BRANCH  24  27
HETATM   27  C   UNL     1     -10.325   4.684  67.316  1.00  0.00     0.007 C  
BRANCH  27  28
HETATM   28  C   UNL     1     -10.318   5.120  65.841  1.00  0.00    -0.122 C  
HETATM   29  O   UNL     1     -11.615   4.967  65.274  1.00  0.00    -0.957 OA 
HETATM   30  H   UNL     1     -11.611   5.236  64.363  1.00  0.00     0.000 HD 
ENDBRANCH  27  28
ENDBRANCH  24  27
ENDBRANCH  20  21
ENDBRANCH  19  20
ENDBRANCH  18  19
ENDBRANCH  12  18
ENDBRANCH   2   4
TORSDOF 7
ENDMDL
MODEL      181
REMARK 921   NORMALIZED FREE ENERGY PREDICTED BY IDOCK:   -3.10 KCAL/MOL
REMARK 922        TOTAL FREE ENERGY PREDICTED BY IDOCK:   -5.13 KCAL/MOL
REMARK 923 INTER-LIGAND FREE ENERGY PREDICTED BY IDOCK:   -4.52 KCAL/MOL
REMARK 924 INTRA-LIGAND FREE ENERGY PREDICTED BY IDOCK:   -0.61 KCAL/MOL
REMARK 927      BINDING AFFINITY PREDICTED BY RF-SCORE:    0.00 PKD
ROOT
HETATM    1  C   UNL     1      -5.871   9.701  71.255  1.00  0.00    -0.068 C  
HETATM    2  C   UNL     1      -6.182   8.848  72.454  1.00  0.00    -0.018 C  
HETATM    3  O   UNL     1      -5.988   9.257  73.598  1.00  0.00    -0.303 OA 
ENDROOT
BRANCH   2   4
HETATM    4  C   UNL     1      -6.740   7.483  72.235  1.00  0.00    -0.055 A  
HETATM    5  C   UNL     1      -6.924   6.587  73.280  1.00  0.00    -0.077 A  
HETATM    6  C   UNL     1      -7.456   5.332  73.009  1.00  0.00    -0.096 A  
HETATM    7  C   UNL     1      -7.807   4.948  71.707  1.00  0.00    -0.107 A  
HETATM    8  S   UNL     1      -8.471   3.312  71.569  1.00  0.00    -0.065 SA 
HETATM    9  C   UNL     1      -8.792   3.165  69.834  1.00  0.00    -0.090 A  
HETATM   10  C   UNL     1      -8.534   4.187  68.892  1.00  0.00    -0.082 A  
HETATM   11  C   UNL     1      -8.866   3.869  67.555  1.00  0.00    -0.135 A  
HETATM   12  N   UNL     1      -7.969   5.441  69.282  1.00  0.00    -0.092 NA 
HETATM   13  C   UNL     1      -7.628   5.824  70.616  1.00  0.00    -0.091 A  
HETATM   14  C   UNL     1      -9.403   2.629  67.171  1.00  0.00    -0.109 A  
HETATM   15  C   UNL     1      -7.091   7.095  70.929  1.00  0.00    -0.069 A  
HETATM   16  C   UNL     1      -9.329   1.921  69.443  1.00  0.00    -0.163 A  
HETATM   17  C   UNL     1      -9.634   1.650  68.118  1.00  0.00    -0.158 A  
BRANCH  12  18
HETATM   18  C   UNL     1      -7.672   6.437  68.226  1.00  0.00    -0.104 C  
BRANCH  18  19
HETATM   19  C   UNL     1      -8.766   7.514  68.151  1.00  0.00    -0.122 C  
BRANCH  19  20
HETATM   20  C   UNL     1      -8.732   8.263  66.811  1.00  0.00    -0.133 C  
BRANCH  20  21
HETATM   21  N   UNL     1      -8.434   9.697  66.971  1.00  0.00    -0.124 NA 
HETATM   22  C   UNL     1      -8.580  10.447  65.709  1.00  0.00    -0.164 C  
HETATM   23  C   UNL     1     -10.043  10.601  65.257  1.00  0.00    -0.297 C  
HETATM   24  N   UNL     1     -10.876  11.323  66.239  1.00  0.00    -0.264 NA 
HETATM   25  C   UNL     1     -10.748  10.629  67.549  1.00  0.00    -0.272 C  
HETATM   26  C   UNL     1      -9.294  10.318  68.002  1.00  0.00    -0.138 C  
BRANCH  24  27
HETATM   27  C   UNL     1     -10.482  12.749  66.369  1.00  0.00    -0.250 C  
BRANCH  27  28
HETATM   28  C   UNL     1     -11.323  13.514  67.405  1.00  0.00    -0.311 C  
HETATM   29  O   UNL     1     -12.463  14.097  66.784  1.00  0.00    -0.558 OA 
HETATM   30  H   UNL     1     -12.982  14.570  67.424  1.00  0.00     0.000 HD 
ENDBRANCH  27  28
ENDBRANCH  24  27
ENDBRANCH  20  21
ENDBRANCH  19  20
ENDBRANCH  18  19
ENDBRANCH  12  18
ENDBRANCH   2   4
TORSDOF 7
ENDMDL
MODEL      182
REMARK 921   NORMALIZED FREE ENERGY PREDICTED BY IDOCK:   -3.09 KCAL/MOL
REMARK 922        TOTAL FREE ENERGY PREDICTED BY IDOCK:   -5.11 KCAL/MOL
REMARK 923 INTER-LIGAND FREE ENERGY PREDICTED BY IDOCK:   -4.50 KCAL/MOL
REMARK 924 INTRA-LIGAND FREE ENERGY PREDICTED BY IDOCK:   -0.62 KCAL/MOL
REMARK 927      BINDING AFFINITY PREDICTED BY RF-SCORE:    0.00 PKD
ROOT
HETATM    1  C   UNL     1     -11.093   5.288  72.941  1.00  0.00    -0.365 C  
HETATM    2  C   UNL     1     -10.374   3.968  73.005  1.00  0.00    -0.168 C  
HETATM    3  O   UNL     1     -10.352   3.302  74.040  1.00  0.00    -0.135 OA 
ENDROOT
BRANCH   2   4
HETATM    4  C   UNL     1      -9.686   3.469  71.781  1.00  0.00    -0.235 A  
HETATM    5  C   UNL     1      -8.787   2.412  71.822  1.00  0.00    -0.118 A  
HETATM    6  C   UNL     1      -8.184   1.990  70.644  1.00  0.00    -0.066 A  
HETATM    7  C   UNL     1      -8.459   2.609  69.416  1.00  0.00    -0.062 A  
HETATM    8  S   UNL     1      -7.594   1.924  68.030  1.00  0.00    -0.054 SA 
HETATM    9  C   UNL     1      -8.161   2.923  66.682  1.00  0.00    -0.087 A  
HETATM   10  C   UNL     1      -9.087   3.983  66.818  1.00  0.00    -0.143 A  
HETATM   11  C   UNL     1      -9.413   4.653  65.616  1.00  0.00    -0.178 A  
HETATM   12  N   UNL     1      -9.636   4.341  68.088  1.00  0.00    -0.153 NA 
HETATM   13  C   UNL     1      -9.358   3.692  69.331  1.00  0.00    -0.176 A  
HETATM   14  C   UNL     1      -8.857   4.312  64.371  1.00  0.00    -0.144 A  
HETATM   15  C   UNL     1      -9.958   4.090  70.549  1.00  0.00    -0.125 A  
HETATM   16  C   UNL     1      -7.605   2.586  65.431  1.00  0.00    -0.076 A  
HETATM   17  C   UNL     1      -7.948   3.276  64.278  1.00  0.00    -0.082 A  
BRANCH  12  18
HETATM   18  C   UNL     1     -10.554   5.503  68.155  1.00  0.00    -0.134 C  
BRANCH  18  19
HETATM   19  C   UNL     1      -9.775   6.822  68.273  1.00  0.00    -0.126 C  
BRANCH  19  20
HETATM   20  C   UNL     1     -10.633   8.024  67.850  1.00  0.00    -0.145 C  
BRANCH  20  21
HETATM   21  N   UNL     1      -9.992   8.836  66.801  1.00  0.00    -0.243 NA 
HETATM   22  C   UNL     1     -10.361  10.261  66.888  1.00  0.00    -0.239 C  
HETATM   23  C   UNL     1      -9.737  10.980  68.098  1.00  0.00    -0.174 C  
HETATM   24  N   UNL     1      -8.261  10.958  68.083  1.00  0.00    -0.116 NA 
HETATM   25  C   UNL     1      -7.823   9.541  67.966  1.00  0.00    -0.087 C  
HETATM   26  C   UNL     1      -8.518   8.716  66.846  1.00  0.00    -0.112 C  
BRANCH  24  27
HETATM   27  C   UNL     1      -7.699  11.767  66.971  1.00  0.00    -0.158 C  
BRANCH  27  28
HETATM   28  C   UNL     1      -6.172  11.638  66.845  1.00  0.00    -0.149 C  
HETATM   29  O   UNL     1      -5.795  11.545  65.475  1.00  0.00    -0.445 OA 
HETATM   30  H   UNL     1      -4.851  11.465  65.397  1.00  0.00     0.000 HD 
ENDBRANCH  27  28
ENDBRANCH  24  27
ENDBRANCH  20  21
ENDBRANCH  19  20
ENDBRANCH  18  19
ENDBRANCH  12  18
ENDBRANCH   2   4
TORSDOF 7
ENDMDL
MODEL      183
REMARK 921   NORMALIZED FREE ENERGY PREDICTED BY IDOCK:   -3.03 KCAL/MOL
REMARK 922        TOTAL FREE ENERGY PREDICTED BY IDOCK:   -5.03 KCAL/MOL
REMARK 923 INTER-LIGAND FREE ENERGY PREDICTED BY IDOCK:   -4.49 KCAL/MOL
REMARK 924 INTRA-LIGAND FREE ENERGY PREDICTED BY IDOCK:   -0.53 KCAL/MOL
REMARK 927      BINDING AFFINITY PREDICTED BY RF-SCORE:    0.00 PKD
ROOT
HETATM    1  C   UNL     1      -5.126  15.760  70.911  1.00  0.00    -0.175 C  
HETATM    2  C   UNL     1      -5.732  14.458  70.461  1.00  0.00    -0.158 C  
HETATM    3  O   UNL     1      -5.445  13.396  71.010  1.00  0.00    -0.168 OA 
ENDROOT
BRANCH   2   4
HETATM    4  C   UNL     1      -6.701  14.475  69.328  1.00  0.00    -0.127 A  
HETATM    5  C   UNL     1      -7.386  15.627  68.963  1.00  0.00    -0.169 A  
HETATM    6  C   UNL     1      -8.270  15.578  67.893  1.00  0.00    -0.149 A  
HETATM    7  C   UNL     1      -8.490  14.393  67.176  1.00  0.00    -0.208 A  
HETATM    8  S   UNL     1      -9.650  14.536  65.845  1.00  0.00    -0.189 SA 
HETATM    9  C   UNL     1      -9.686  12.895  65.179  1.00  0.00     0.041 A  
HETATM   10  C   UNL     1      -8.920  11.819  65.684  1.00  0.00     0.047 A  
HETATM   11  C   UNL     1      -9.090  10.591  65.006  1.00  0.00    -0.231 A  
HETATM   12  N   UNL     1      -8.047  11.981  66.805  1.00  0.00    -0.127 NA 
HETATM   13  C   UNL     1      -7.823  13.199  67.518  1.00  0.00    -0.172 A  
HETATM   14  C   UNL     1      -9.963  10.429  63.916  1.00  0.00    -0.269 A  
HETATM   15  C   UNL     1      -6.925  13.288  68.609  1.00  0.00    -0.101 A  
HETATM   16  C   UNL     1     -10.561  12.727  64.086  1.00  0.00    -0.441 A  
HETATM   17  C   UNL     1     -10.703  11.500  63.456  1.00  0.00    -0.483 A  
BRANCH  12  18
HETATM   18  C   UNL     1      -7.325  10.790  67.311  1.00  0.00    -0.097 C  
BRANCH  18  19
HETATM   19  C   UNL     1      -8.012  10.208  68.556  1.00  0.00    -0.104 C  
BRANCH  19  20
HETATM   20  C   UNL     1      -7.347   8.900  69.008  1.00  0.00    -0.073 C  
BRANCH  20  21
HETATM   21  N   UNL     1      -7.197   7.931  67.908  1.00  0.00    -0.089 NA 
HETATM   22  C   UNL     1      -6.585   6.665  68.352  1.00  0.00    -0.059 C  
HETATM   23  C   UNL     1      -7.515   5.814  69.235  1.00  0.00    -0.083 C  
HETATM   24  N   UNL     1      -8.763   5.424  68.549  1.00  0.00    -0.095 NA 
HETATM   25  C   UNL     1      -9.418   6.663  68.048  1.00  0.00    -0.118 C  
HETATM   26  C   UNL     1      -8.496   7.637  67.262  1.00  0.00    -0.121 C  
BRANCH  24  27
HETATM   27  C   UNL     1      -8.517   4.480  67.429  1.00  0.00    -0.104 C  
BRANCH  27  28
HETATM   28  C   UNL     1      -9.737   3.602  67.104  1.00  0.00    -0.057 C  
HETATM   29  O   UNL     1     -10.209   3.879  65.789  1.00  0.00    -0.415 OA 
HETATM   30  H   UNL     1     -10.963   3.337  65.588  1.00  0.00     0.000 HD 
ENDBRANCH  27  28
ENDBRANCH  24  27
ENDBRANCH  20  21
ENDBRANCH  19  20
ENDBRANCH  18  19
ENDBRANCH  12  18
ENDBRANCH   2   4
TORSDOF 7
ENDMDL
MODEL      184
REMARK 921   NORMALIZED FREE ENERGY PREDICTED BY IDOCK:   -3.02 KCAL/MOL
REMARK 922        TOTAL FREE ENERGY PREDICTED BY IDOCK:   -5.02 KCAL/MOL
REMARK 923 INTER-LIGAND FREE ENERGY PREDICTED BY IDOCK:   -4.36 KCAL/MOL
REMARK 924 INTRA-LIGAND FREE ENERGY PREDICTED BY IDOCK:   -0.65 KCAL/MOL
REMARK 927      BINDING AFFINITY PREDICTED BY RF-SCORE:    0.00 PKD
ROOT
HETATM    1  C   UNL     1     -10.880  12.503  68.155  1.00  0.00    -0.248 C  
HETATM    2  C   UNL     1     -10.918  11.047  67.776  1.00  0.00    -0.269 C  
HETATM    3  O   UNL     1     -11.515  10.664  66.770  1.00  0.00    -0.175 OA 
ENDROOT
BRANCH   2   4
HETATM    4  C   UNL     1     -10.211  10.064  68.644  1.00  0.00    -0.198 A  
HETATM    5  C   UNL     1      -9.388  10.464  69.689  1.00  0.00    -0.096 A  
HETATM    6  C   UNL     1      -8.763   9.497  70.467  1.00  0.00    -0.247 A  
HETATM    7  C   UNL     1      -8.939   8.128  70.218  1.00  0.00    -0.146 A  
HETATM    8  S   UNL     1      -8.061   7.055  71.321  1.00  0.00    -0.109 SA 
HETATM    9  C   UNL     1      -8.498   5.444  70.729  1.00  0.00    -0.121 A  
HETATM   10  C   UNL     1      -9.355   5.210  69.628  1.00  0.00    -0.129 A  
HETATM   11  C   UNL     1      -9.580   3.849  69.321  1.00  0.00    -0.232 A  
HETATM   12  N   UNL     1      -9.935   6.287  68.889  1.00  0.00    -0.147 NA 
HETATM   13  C   UNL     1      -9.758   7.678  69.162  1.00  0.00    -0.164 A  
HETATM   14  C   UNL     1      -8.993   2.792  70.037  1.00  0.00    -0.166 A  
HETATM   15  C   UNL     1     -10.384   8.690  68.396  1.00  0.00    -0.239 A  
HETATM   16  C   UNL     1      -7.911   4.380  71.444  1.00  0.00    -0.081 A  
HETATM   17  C   UNL     1      -8.153   3.058  71.102  1.00  0.00    -0.064 A  
BRANCH  12  18
HETATM   18  C   UNL     1     -10.774   5.959  67.711  1.00  0.00    -0.265 C  
BRANCH  18  19
HETATM   19  C   UNL     1     -10.078   6.361  66.401  1.00  0.00    -0.078 C  
BRANCH  19  20
HETATM   20  C   UNL     1      -8.607   5.921  66.385  1.00  0.00    -0.127 C  
BRANCH  20  21
HETATM   21  N   UNL     1      -7.674   7.058  66.480  1.00  0.00    -0.102 NA 
HETATM   22  C   UNL     1      -6.284   6.674  66.174  1.00  0.00    -0.041 C  
HETATM   23  C   UNL     1      -6.053   6.358  64.685  1.00  0.00    -0.030 C  
HETATM   24  N   UNL     1      -6.345   7.503  63.801  1.00  0.00    -0.052 NA 
HETATM   25  C   UNL     1      -7.733   7.959  64.084  1.00  0.00    -0.132 C  
HETATM   26  C   UNL     1      -8.076   8.166  65.587  1.00  0.00    -0.119 C  
BRANCH  24  27
HETATM   27  C   UNL     1      -5.384   8.619  63.992  1.00  0.00    -0.056 C  
BRANCH  27  28
HETATM   28  C   UNL     1      -5.786   9.895  63.233  1.00  0.00    -0.117 C  
HETATM   29  O   UNL     1      -5.362  11.050  63.949  1.00  0.00    -0.412 OA 
HETATM   30  H   UNL     1      -5.611  11.839  63.480  1.00  0.00     0.000 HD 
ENDBRANCH  27  28
ENDBRANCH  24  27
ENDBRANCH  20  21
ENDBRANCH  19  20
ENDBRANCH  18  19
ENDBRANCH  12  18
ENDBRANCH   2   4
TORSDOF 7
ENDMDL
MODEL      185
REMARK 921   NORMALIZED FREE ENERGY PREDICTED BY IDOCK:   -3.00 KCAL/MOL
REMARK 922        TOTAL FREE ENERGY PREDICTED BY IDOCK:   -4.98 KCAL/MOL
REMARK 923 INTER-LIGAND FREE ENERGY PREDICTED BY IDOCK:   -4.89 KCAL/MOL
REMARK 924 INTRA-LIGAND FREE ENERGY PREDICTED BY IDOCK:   -0.09 KCAL/MOL
REMARK 927      BINDING AFFINITY PREDICTED BY RF-SCORE:    0.00 PKD
ROOT
HETATM    1  C   UNL     1     -11.982  12.865  65.946  1.00  0.00    -0.504 C  
HETATM    2  C   UNL     1     -11.419  12.436  64.619  1.00  0.00    -0.331 C  
HETATM    3  O   UNL     1     -11.762  12.983  63.572  1.00  0.00    -0.487 OA 
ENDROOT
BRANCH   2   4
HETATM    4  C   UNL     1     -10.425  11.326  64.590  1.00  0.00    -0.387 A  
HETATM    5  C   UNL     1      -9.455  11.233  63.600  1.00  0.00    -0.244 A  
HETATM    6  C   UNL     1      -8.552  10.177  63.635  1.00  0.00    -0.199 A  
HETATM    7  C   UNL     1      -8.601   9.201  64.641  1.00  0.00    -0.182 A  
HETATM    8  S   UNL     1      -7.363   7.940  64.512  1.00  0.00    -0.092 SA 
HETATM    9  C   UNL     1      -7.714   6.904  65.905  1.00  0.00    -0.098 A  
HETATM   10  C   UNL     1      -8.763   7.141  66.824  1.00  0.00    -0.127 A  
HETATM   11  C   UNL     1      -8.870   6.196  67.869  1.00  0.00    -0.111 A  
HETATM   12  N   UNL     1      -9.644   8.258  66.683  1.00  0.00    -0.213 NA 
HETATM   13  C   UNL     1      -9.575   9.253  65.659  1.00  0.00    -0.254 A  
HETATM   14  C   UNL     1      -8.015   5.088  67.994  1.00  0.00    -0.090 A  
HETATM   15  C   UNL     1     -10.473  10.345  65.597  1.00  0.00    -0.185 A  
HETATM   16  C   UNL     1      -6.860   5.790  66.034  1.00  0.00    -0.058 A  
HETATM   17  C   UNL     1      -7.007   4.883  67.072  1.00  0.00    -0.061 A  
BRANCH  12  18
HETATM   18  C   UNL     1     -10.755   8.403  67.653  1.00  0.00    -0.121 C  
BRANCH  18  19
HETATM   19  C   UNL     1     -10.269   9.031  68.968  1.00  0.00    -0.216 C  
BRANCH  19  20
HETATM   20  C   UNL     1      -8.905   9.714  68.798  1.00  0.00    -0.130 C  
BRANCH  20  21
HETATM   21  N   UNL     1      -8.229   9.959  70.083  1.00  0.00    -0.179 NA 
HETATM   22  C   UNL     1      -8.674   9.032  71.140  1.00  0.00    -0.203 C  
HETATM   23  C   UNL     1      -8.180   7.589  70.934  1.00  0.00    -0.112 C  
HETATM   24  N   UNL     1      -6.708   7.482  70.916  1.00  0.00    -0.043 NA 
HETATM   25  C   UNL     1      -6.192   8.420  69.883  1.00  0.00    -0.032 C  
HETATM   26  C   UNL     1      -6.758   9.867  69.951  1.00  0.00    -0.088 C  
BRANCH  24  27
HETATM   27  C   UNL     1      -6.106   7.785  72.238  1.00  0.00    -0.040 C  
BRANCH  27  28
HETATM   28  C   UNL     1      -6.554   6.812  73.341  1.00  0.00    -0.067 C  
HETATM   29  O   UNL     1      -5.427   6.144  73.899  1.00  0.00    -0.039 OA 
HETATM   30  H   UNL     1      -5.704   5.542  74.580  1.00  0.00     0.000 HD 
ENDBRANCH  27  28
ENDBRANCH  24  27
ENDBRANCH  20  21
ENDBRANCH  19  20
ENDBRANCH  18  19
ENDBRANCH  12  18
ENDBRANCH   2   4
TORSDOF 7
ENDMDL
MODEL      186
REMARK 921   NORMALIZED FREE ENERGY PREDICTED BY IDOCK:   -2.94 KCAL/MOL
REMARK 922        TOTAL FREE ENERGY PREDICTED BY IDOCK:   -4.90 KCAL/MOL
REMARK 923 INTER-LIGAND FREE ENERGY PREDICTED BY IDOCK:   -4.24 KCAL/MOL
REMARK 924 INTRA-LIGAND FREE ENERGY PREDICTED BY IDOCK:   -0.66 KCAL/MOL
REMARK 927      BINDING AFFINITY PREDICTED BY RF-SCORE:    0.00 PKD
ROOT
HETATM    1  C   UNL     1     -10.724  10.485  65.064  1.00  0.00     0.027 C  
HETATM    2  C   UNL     1     -11.302  11.814  64.658  1.00  0.00    -0.256 C  
HETATM    3  O   UNL     1     -12.327  11.885  63.980  1.00  0.00    -0.377 OA 
ENDROOT
BRANCH   2   4
HETATM    4  C   UNL     1     -10.610  13.058  65.097  1.00  0.00    -0.327 A  
HETATM    5  C   UNL     1     -10.787  14.269  64.442  1.00  0.00    -0.168 A  
HETATM    6  C   UNL     1     -10.118  15.394  64.906  1.00  0.00    -0.059 A  
HETATM    7  C   UNL     1      -9.264  15.335  66.017  1.00  0.00    -0.273 A  
HETATM    8  S   UNL     1      -8.508  16.876  66.455  1.00  0.00    -0.292 SA 
HETATM    9  C   UNL     1      -7.520  16.442  67.859  1.00  0.00    -0.140 A  
HETATM   10  C   UNL     1      -7.445  15.138  68.401  1.00  0.00    -0.115 A  
HETATM   11  C   UNL     1      -6.602  15.004  69.528  1.00  0.00    -0.155 A  
HETATM   12  N   UNL     1      -8.171  14.046  67.831  1.00  0.00    -0.144 NA 
HETATM   13  C   UNL     1      -9.048  14.124  66.706  1.00  0.00    -0.247 A  
HETATM   14  C   UNL     1      -5.874  16.075  70.075  1.00  0.00    -0.173 A  
HETATM   15  C   UNL     1      -9.751  13.000  66.210  1.00  0.00    -0.265 A  
HETATM   16  C   UNL     1      -6.787  17.513  68.411  1.00  0.00    -0.197 A  
HETATM   17  C   UNL     1      -5.965  17.334  69.513  1.00  0.00    -0.241 A  
BRANCH  12  18
HETATM   18  C   UNL     1      -7.990  12.698  68.421  1.00  0.00    -0.134 C  
BRANCH  18  19
HETATM   19  C   UNL     1      -6.702  12.034  67.910  1.00  0.00    -0.080 C  
BRANCH  19  20
HETATM   20  C   UNL     1      -6.994  11.022  66.792  1.00  0.00    -0.131 C  
BRANCH  20  21
HETATM   21  N   UNL     1      -7.706   9.828  67.280  1.00  0.00    -0.095 NA 
HETATM   22  C   UNL     1      -7.689   8.724  66.302  1.00  0.00    -0.098 C  
HETATM   23  C   UNL     1      -6.304   8.072  66.142  1.00  0.00    -0.046 C  
HETATM   24  N   UNL     1      -5.794   7.489  67.399  1.00  0.00    -0.034 NA 
HETATM   25  C   UNL     1      -5.813   8.552  68.440  1.00  0.00    -0.041 C  
HETATM   26  C   UNL     1      -7.144   9.346  68.561  1.00  0.00    -0.071 C  
BRANCH  24  27
HETATM   27  C   UNL     1      -6.593   6.318  67.840  1.00  0.00    -0.062 C  
BRANCH  27  28
HETATM   28  C   UNL     1      -6.509   5.131  66.867  1.00  0.00    -0.041 C  
HETATM   29  O   UNL     1      -5.165   4.671  66.762  1.00  0.00    -0.008 OA 
HETATM   30  H   UNL     1      -5.113   3.938  66.160  1.00  0.00     0.000 HD 
ENDBRANCH  27  28
ENDBRANCH  24  27
ENDBRANCH  20  21
ENDBRANCH  19  20
ENDBRANCH  18  19
ENDBRANCH  12  18
ENDBRANCH   2   4
TORSDOF 7
ENDMDL
MODEL      187
REMARK 921   NORMALIZED FREE ENERGY PREDICTED BY IDOCK:   -2.94 KCAL/MOL
REMARK 922        TOTAL FREE ENERGY PREDICTED BY IDOCK:   -4.90 KCAL/MOL
REMARK 923 INTER-LIGAND FREE ENERGY PREDICTED BY IDOCK:   -4.84 KCAL/MOL
REMARK 924 INTRA-LIGAND FREE ENERGY PREDICTED BY IDOCK:   -0.06 KCAL/MOL
REMARK 927      BINDING AFFINITY PREDICTED BY RF-SCORE:    0.00 PKD
ROOT
HETATM    1  C   UNL     1     -11.353   9.611  71.826  1.00  0.00    -0.200 C  
HETATM    2  C   UNL     1     -11.891  10.667  70.899  1.00  0.00    -0.331 C  
HETATM    3  O   UNL     1     -12.769  11.449  71.262  1.00  0.00    -0.405 OA 
ENDROOT
BRANCH   2   4
HETATM    4  C   UNL     1     -11.335  10.757  69.519  1.00  0.00    -0.355 A  
HETATM    5  C   UNL     1     -12.000  11.428  68.500  1.00  0.00    -0.295 A  
HETATM    6  C   UNL     1     -11.424  11.481  67.237  1.00  0.00    -0.338 A  
HETATM    7  C   UNL     1     -10.192  10.870  66.965  1.00  0.00    -0.214 A  
HETATM    8  S   UNL     1      -9.625  11.053  65.297  1.00  0.00    -0.240 SA 
HETATM    9  C   UNL     1      -8.085  10.179  65.308  1.00  0.00    -0.151 A  
HETATM   10  C   UNL     1      -7.550   9.534  66.447  1.00  0.00    -0.097 A  
HETATM   11  C   UNL     1      -6.304   8.896  66.246  1.00  0.00    -0.065 A  
HETATM   12  N   UNL     1      -8.238   9.532  67.700  1.00  0.00    -0.120 NA 
HETATM   13  C   UNL     1      -9.489  10.171  67.967  1.00  0.00    -0.145 A  
HETATM   14  C   UNL     1      -5.639   8.883  65.008  1.00  0.00    -0.050 A  
HETATM   15  C   UNL     1     -10.100  10.143  69.243  1.00  0.00    -0.237 A  
HETATM   16  C   UNL     1      -7.414  10.162  64.068  1.00  0.00    -0.117 A  
HETATM   17  C   UNL     1      -6.196   9.517  63.914  1.00  0.00    -0.098 A  
BRANCH  12  18
HETATM   18  C   UNL     1      -7.640   8.781  68.829  1.00  0.00    -0.095 C  
BRANCH  18  19
HETATM   19  C   UNL     1      -8.254   7.378  68.955  1.00  0.00    -0.129 C  
BRANCH  19  20
HETATM   20  C   UNL     1      -7.724   6.431  67.869  1.00  0.00    -0.104 C  
BRANCH  20  21
HETATM   21  N   UNL     1      -8.730   5.444  67.438  1.00  0.00    -0.108 NA 
HETATM   22  C   UNL     1      -8.241   4.581  66.346  1.00  0.00    -0.106 C  
HETATM   23  C   UNL     1      -7.166   3.577  66.797  1.00  0.00    -0.067 C  
HETATM   24  N   UNL     1      -7.645   2.651  67.842  1.00  0.00    -0.056 NA 
HETATM   25  C   UNL     1      -8.181   3.464  68.967  1.00  0.00    -0.060 C  
HETATM   26  C   UNL     1      -9.172   4.592  68.564  1.00  0.00    -0.129 C  
BRANCH  24  27
HETATM   27  C   UNL     1      -8.685   1.721  67.335  1.00  0.00    -0.104 C  
BRANCH  27  28
HETATM   28  C   UNL     1      -8.613   1.511  65.813  1.00  0.00    -0.106 C  
HETATM   29  O   UNL     1      -9.890   1.732  65.222  1.00  0.00    -0.319 OA 
HETATM   30  H   UNL     1      -9.845   1.601  64.282  1.00  0.00     0.000 HD 
ENDBRANCH  27  28
ENDBRANCH  24  27
ENDBRANCH  20  21
ENDBRANCH  19  20
ENDBRANCH  18  19
ENDBRANCH  12  18
ENDBRANCH   2   4
TORSDOF 7
ENDMDL
MODEL      188
REMARK 921   NORMALIZED FREE ENERGY PREDICTED BY IDOCK:   -2.93 KCAL/MOL
REMARK 922        TOTAL FREE ENERGY PREDICTED BY IDOCK:   -4.89 KCAL/MOL
REMARK 923 INTER-LIGAND FREE ENERGY PREDICTED BY IDOCK:   -4.28 KCAL/MOL
REMARK 924 INTRA-LIGAND FREE ENERGY PREDICTED BY IDOCK:   -0.60 KCAL/MOL
REMARK 927      BINDING AFFINITY PREDICTED BY RF-SCORE:    0.00 PKD
ROOT
HETATM    1  C   UNL     1     -11.160   6.167  68.138  1.00  0.00    -0.328 C  
HETATM    2  C   UNL     1     -10.813   6.717  69.495  1.00  0.00    -0.289 C  
HETATM    3  O   UNL     1     -11.335   6.273  70.517  1.00  0.00    -0.337 OA 
ENDROOT
BRANCH   2   4
HETATM    4  C   UNL     1      -9.812   7.817  69.586  1.00  0.00    -0.182 A  
HETATM    5  C   UNL     1      -8.679   7.718  70.382  1.00  0.00    -0.139 A  
HETATM    6  C   UNL     1      -7.781   8.777  70.416  1.00  0.00    -0.091 A  
HETATM    7  C   UNL     1      -7.993   9.945  69.671  1.00  0.00    -0.162 A  
HETATM    8  S   UNL     1      -6.733  11.178  69.846  1.00  0.00    -0.030 SA 
HETATM    9  C   UNL     1      -7.312  12.482  68.797  1.00  0.00    -0.070 A  
HETATM   10  C   UNL     1      -8.513  12.424  68.052  1.00  0.00    -0.176 A  
HETATM   11  C   UNL     1      -8.791  13.570  67.272  1.00  0.00    -0.225 A  
HETATM   12  N   UNL     1      -9.372  11.282  68.102  1.00  0.00    -0.174 NA 
HETATM   13  C   UNL     1      -9.135  10.092  68.857  1.00  0.00    -0.165 A  
HETATM   14  C   UNL     1      -7.955  14.698  67.240  1.00  0.00    -0.223 A  
HETATM   15  C   UNL     1     -10.025   8.991  68.840  1.00  0.00    -0.197 A  
HETATM   16  C   UNL     1      -6.477  13.617  68.762  1.00  0.00    -0.097 A  
HETATM   17  C   UNL     1      -6.794  14.724  67.989  1.00  0.00    -0.150 A  
BRANCH  12  18
HETATM   18  C   UNL     1     -10.642  11.325  67.339  1.00  0.00    -0.224 C  
BRANCH  18  19
HETATM   19  C   UNL     1     -10.578  10.418  66.099  1.00  0.00    -0.160 C  
BRANCH  19  20
HETATM   20  C   UNL     1      -9.640  10.993  65.027  1.00  0.00    -0.247 C  
BRANCH  20  21
HETATM   21  N   UNL     1      -9.016   9.945  64.200  1.00  0.00    -0.223 NA 
HETATM   22  C   UNL     1      -7.642  10.293  63.793  1.00  0.00    -0.092 C  
HETATM   23  C   UNL     1      -6.633  10.249  64.954  1.00  0.00    -0.105 C  
HETATM   24  N   UNL     1      -6.530   8.915  65.578  1.00  0.00    -0.066 NA 
HETATM   25  C   UNL     1      -7.896   8.493  65.987  1.00  0.00    -0.098 C  
HETATM   26  C   UNL     1      -8.997   8.641  64.898  1.00  0.00     0.047 C  
BRANCH  24  27
HETATM   27  C   UNL     1      -5.930   7.912  64.663  1.00  0.00    -0.045 C  
BRANCH  27  28
HETATM   28  C   UNL     1      -5.764   6.528  65.313  1.00  0.00    -0.026 C  
HETATM   29  O   UNL     1      -5.255   6.661  66.636  1.00  0.00    -0.012 OA 
HETATM   30  H   UNL     1      -5.152   5.806  67.037  1.00  0.00     0.000 HD 
ENDBRANCH  27  28
ENDBRANCH  24  27
ENDBRANCH  20  21
ENDBRANCH  19  20
ENDBRANCH  18  19
ENDBRANCH  12  18
ENDBRANCH   2   4
TORSDOF 7
ENDMDL
MODEL      189
REMARK 921   NORMALIZED FREE ENERGY PREDICTED BY IDOCK:   -2.93 KCAL/MOL
REMARK 922        TOTAL FREE ENERGY PREDICTED BY IDOCK:   -4.88 KCAL/MOL
REMARK 923 INTER-LIGAND FREE ENERGY PREDICTED BY IDOCK:   -5.66 KCAL/MOL
REMARK 924 INTRA-LIGAND FREE ENERGY PREDICTED BY IDOCK:    0.78 KCAL/MOL
REMARK 927      BINDING AFFINITY PREDICTED BY RF-SCORE:    0.00 PKD
ROOT
HETATM    1  C   UNL     1     -11.922  15.649  64.053  1.00  0.00     0.074 C  
HETATM    2  C   UNL     1     -12.404  14.346  64.630  1.00  0.00    -0.418 C  
HETATM    3  O   UNL     1     -13.461  14.276  65.257  1.00  0.00    -0.564 OA 
ENDROOT
BRANCH   2   4
HETATM    4  C   UNL     1     -11.576  13.124  64.426  1.00  0.00    -0.422 A  
HETATM    5  C   UNL     1     -11.836  12.221  63.404  1.00  0.00    -0.563 A  
HETATM    6  C   UNL     1     -11.021  11.105  63.263  1.00  0.00    -0.028 A  
HETATM    7  C   UNL     1      -9.945  10.867  64.130  1.00  0.00    -0.344 A  
HETATM    8  S   UNL     1      -9.024   9.394  63.783  1.00  0.00    -0.013 SA 
HETATM    9  C   UNL     1      -7.778   9.406  65.041  1.00  0.00    -0.110 A  
HETATM   10  C   UNL     1      -7.658  10.413  66.027  1.00  0.00    -0.137 A  
HETATM   11  C   UNL     1      -6.591  10.239  66.937  1.00  0.00    -0.076 A  
HETATM   12  N   UNL     1      -8.566  11.516  66.086  1.00  0.00    -0.141 NA 
HETATM   13  C   UNL     1      -9.651  11.753  65.186  1.00  0.00    -0.153 A  
HETATM   14  C   UNL     1      -5.711   9.144  66.889  1.00  0.00    -0.045 A  
HETATM   15  C   UNL     1     -10.497  12.882  65.296  1.00  0.00    -0.312 A  
HETATM   16  C   UNL     1      -6.893   8.309  64.998  1.00  0.00    -0.067 A  
HETATM   17  C   UNL     1      -5.864   8.173  65.917  1.00  0.00    -0.037 A  
BRANCH  12  18
HETATM   18  C   UNL     1      -8.410  12.497  67.186  1.00  0.00    -0.179 C  
BRANCH  18  19
HETATM   19  C   UNL     1      -8.055  13.890  66.645  1.00  0.00     0.484 C  
BRANCH  19  20
HETATM   20  C   UNL     1      -8.612  15.004  67.543  1.00  0.00    -0.180 C  
BRANCH  20  21
HETATM   21  N   UNL     1      -9.063  14.503  68.853  1.00  0.00    -0.154 NA 
HETATM   22  C   UNL     1      -9.297  15.590  69.822  1.00  0.00    -0.132 C  
HETATM   23  C   UNL     1     -10.541  16.437  69.500  1.00  0.00    -0.320 C  
HETATM   24  N   UNL     1     -11.788  15.648  69.490  1.00  0.00    -0.367 NA 
HETATM   25  C   UNL     1     -11.606  14.512  68.547  1.00  0.00    -0.313 C  
HETATM   26  C   UNL     1     -10.296  13.694  68.730  1.00  0.00    -0.173 C  
BRANCH  24  27
HETATM   27  C   UNL     1     -12.147  15.147  70.840  1.00  0.00    -0.334 C  
BRANCH  27  28
HETATM   28  C   UNL     1     -11.591  16.024  71.975  1.00  0.00    -0.414 C  
HETATM   29  O   UNL     1     -12.655  16.661  72.674  1.00  0.00    -0.223 OA 
HETATM   30  H   UNL     1     -12.311  17.203  73.375  1.00  0.00     0.000 HD 
ENDBRANCH  27  28
ENDBRANCH  24  27
ENDBRANCH  20  21
ENDBRANCH  19  20
ENDBRANCH  18  19
ENDBRANCH  12  18
ENDBRANCH   2   4
TORSDOF 7
ENDMDL
MODEL      190
REMARK 921   NORMALIZED FREE ENERGY PREDICTED BY IDOCK:   -2.86 KCAL/MOL
REMARK 922        TOTAL FREE ENERGY PREDICTED BY IDOCK:   -4.79 KCAL/MOL
REMARK 923 INTER-LIGAND FREE ENERGY PREDICTED BY IDOCK:   -4.53 KCAL/MOL
REMARK 924 INTRA-LIGAND FREE ENERGY PREDICTED BY IDOCK:   -0.26 KCAL/MOL
REMARK 927      BINDING AFFINITY PREDICTED BY RF-SCORE:    0.00 PKD
ROOT
HETATM    1  C   UNL     1     -12.808   9.861  71.967  1.00  0.00    -0.488 C  
HETATM    2  C   UNL     1     -11.668   9.173  71.266  1.00  0.00    -0.326 C  
HETATM    3  O   UNL     1     -11.021   9.741  70.387  1.00  0.00    -0.263 OA 
ENDROOT
BRANCH   2   4
HETATM    4  C   UNL     1     -11.325   7.777  71.660  1.00  0.00    -0.291 A  
HETATM    5  C   UNL     1     -12.300   6.846  71.991  1.00  0.00    -0.305 A  
HETATM    6  C   UNL     1     -11.915   5.559  72.342  1.00  0.00    -0.039 A  
HETATM    7  C   UNL     1     -10.565   5.179  72.376  1.00  0.00    -0.221 A  
HETATM    8  S   UNL     1     -10.280   3.495  72.845  1.00  0.00    -0.168 SA 
HETATM    9  C   UNL     1      -8.514   3.367  72.787  1.00  0.00    -0.081 A  
HETATM   10  C   UNL     1      -7.655   4.432  72.434  1.00  0.00    -0.079 A  
HETATM   11  C   UNL     1      -6.276   4.120  72.445  1.00  0.00    -0.020 A  
HETATM   12  N   UNL     1      -8.163   5.726  72.101  1.00  0.00    -0.111 NA 
HETATM   13  C   UNL     1      -9.543   6.095  72.058  1.00  0.00    -0.152 A  
HETATM   14  C   UNL     1      -5.778   2.853  72.791  1.00  0.00    -0.008 A  
HETATM   15  C   UNL     1      -9.972   7.395  71.697  1.00  0.00    -0.193 A  
HETATM   16  C   UNL     1      -8.009   2.097  73.135  1.00  0.00    -0.046 A  
HETATM   17  C   UNL     1      -6.647   1.837  73.140  1.00  0.00    -0.014 A  
BRANCH  12  18
HETATM   18  C   UNL     1      -7.193   6.806  71.801  1.00  0.00    -0.084 C  
BRANCH  18  19
HETATM   19  C   UNL     1      -6.815   6.818  70.312  1.00  0.00    -0.061 C  
BRANCH  19  20
HETATM   20  C   UNL     1      -8.031   6.540  69.418  1.00  0.00    -0.114 C  
BRANCH  20  21
HETATM   21  N   UNL     1      -7.898   5.288  68.653  1.00  0.00    -0.086 NA 
HETATM   22  C   UNL     1      -9.164   4.534  68.582  1.00  0.00    -0.130 C  
HETATM   23  C   UNL     1     -10.221   5.199  67.683  1.00  0.00    -0.141 C  
HETATM   24  N   UNL     1      -9.775   5.346  66.283  1.00  0.00    -0.159 NA 
HETATM   25  C   UNL     1      -8.480   6.078  66.287  1.00  0.00    -0.130 C  
HETATM   26  C   UNL     1      -7.410   5.540  67.279  1.00  0.00    -0.080 C  
BRANCH  24  27
HETATM   27  C   UNL     1      -9.627   4.036  65.600  1.00  0.00    -0.190 C  
BRANCH  27  28
HETATM   28  C   UNL     1      -9.248   4.171  64.116  1.00  0.00    -0.149 C  
HETATM   29  O   UNL     1     -10.417   4.323  63.319  1.00  0.00    -0.405 OA 
HETATM   30  H   UNL     1     -10.183   4.406  62.401  1.00  0.00     0.000 HD 
ENDBRANCH  27  28
ENDBRANCH  24  27
ENDBRANCH  20  21
ENDBRANCH  19  20
ENDBRANCH  18  19
ENDBRANCH  12  18
ENDBRANCH   2   4
TORSDOF 7
ENDMDL
MODEL      191
REMARK 921   NORMALIZED FREE ENERGY PREDICTED BY IDOCK:   -2.84 KCAL/MOL
REMARK 922        TOTAL FREE ENERGY PREDICTED BY IDOCK:   -4.76 KCAL/MOL
REMARK 923 INTER-LIGAND FREE ENERGY PREDICTED BY IDOCK:   -5.51 KCAL/MOL
REMARK 924 INTRA-LIGAND FREE ENERGY PREDICTED BY IDOCK:    0.75 KCAL/MOL
REMARK 927      BINDING AFFINITY PREDICTED BY RF-SCORE:    0.00 PKD
ROOT
HETATM    1  C   UNL     1      -5.369  14.333  69.734  1.00  0.00    -0.093 C  
HETATM    2  C   UNL     1      -6.164  15.603  69.602  1.00  0.00    -0.164 C  
HETATM    3  O   UNL     1      -5.966  16.561  70.348  1.00  0.00    -0.128 OA 
ENDROOT
BRANCH   2   4
HETATM    4  C   UNL     1      -7.204  15.688  68.538  1.00  0.00    -0.120 A  
HETATM    5  C   UNL     1      -7.664  16.906  68.053  1.00  0.00    -0.179 A  
HETATM    6  C   UNL     1      -8.630  16.916  67.055  1.00  0.00    -0.229 A  
HETATM    7  C   UNL     1      -9.155  15.727  66.529  1.00  0.00    -0.293 A  
HETATM    8  S   UNL     1     -10.373  15.950  65.262  1.00  0.00    -0.249 SA 
HETATM    9  C   UNL     1     -10.808  14.286  64.841  1.00  0.00    -0.416 A  
HETATM   10  C   UNL     1     -10.242  13.142  65.448  1.00  0.00    -0.290 A  
HETATM   11  C   UNL     1     -10.724  11.904  64.963  1.00  0.00    -0.341 A  
HETATM   12  N   UNL     1      -9.259  13.250  66.480  1.00  0.00    -0.215 NA 
HETATM   13  C   UNL     1      -8.723  14.469  66.998  1.00  0.00    -0.234 A  
HETATM   14  C   UNL     1     -11.704  11.801  63.962  1.00  0.00    -0.421 A  
HETATM   15  C   UNL     1      -7.734  14.497  68.009  1.00  0.00    -0.138 A  
HETATM   16  C   UNL     1     -11.793  14.177  63.837  1.00  0.00    -0.211 A  
HETATM   17  C   UNL     1     -12.243  12.941  63.398  1.00  0.00    -0.574 A  
BRANCH  12  18
HETATM   18  C   UNL     1      -8.759  12.004  67.108  1.00  0.00    -0.183 C  
BRANCH  18  19
HETATM   19  C   UNL     1      -7.549  11.442  66.345  1.00  0.00    -0.024 C  
BRANCH  19  20
HETATM   20  C   UNL     1      -7.040  10.137  66.975  1.00  0.00    -0.090 C  
BRANCH  20  21
HETATM   21  N   UNL     1      -6.618   9.149  65.968  1.00  0.00    -0.068 NA 
HETATM   22  C   UNL     1      -7.632   8.102  65.746  1.00  0.00    -0.082 C  
HETATM   23  C   UNL     1      -8.882   8.610  65.006  1.00  0.00    -0.070 C  
HETATM   24  N   UNL     1      -8.579   9.150  63.666  1.00  0.00    -0.193 NA 
HETATM   25  C   UNL     1      -7.533  10.198  63.818  1.00  0.00    -0.126 C  
HETATM   26  C   UNL     1      -6.300   9.793  64.674  1.00  0.00    -0.106 C  
BRANCH  24  27
HETATM   27  C   UNL     1      -8.121   8.095  62.726  1.00  0.00    -0.151 C  
BRANCH  27  28
HETATM   28  C   UNL     1      -6.626   8.204  62.380  1.00  0.00    -0.087 C  
HETATM   29  O   UNL     1      -6.034   6.911  62.332  1.00  0.00    -0.038 OA 
HETATM   30  H   UNL     1      -5.110   6.978  62.119  1.00  0.00     0.000 HD 
ENDBRANCH  27  28
ENDBRANCH  24  27
ENDBRANCH  20  21
ENDBRANCH  19  20
ENDBRANCH  18  19
ENDBRANCH  12  18
ENDBRANCH   2   4
TORSDOF 7
ENDMDL
MODEL      192
REMARK 921   NORMALIZED FREE ENERGY PREDICTED BY IDOCK:   -2.80 KCAL/MOL
REMARK 922        TOTAL FREE ENERGY PREDICTED BY IDOCK:   -4.71 KCAL/MOL
REMARK 923 INTER-LIGAND FREE ENERGY PREDICTED BY IDOCK:   -5.12 KCAL/MOL
REMARK 924 INTRA-LIGAND FREE ENERGY PREDICTED BY IDOCK:    0.41 KCAL/MOL
REMARK 927      BINDING AFFINITY PREDICTED BY RF-SCORE:    0.00 PKD
ROOT
HETATM    1  C   UNL     1     -11.812  15.448  69.132  1.00  0.00    -0.357 C  
HETATM    2  C   UNL     1     -10.596  15.496  68.246  1.00  0.00    -0.255 C  
HETATM    3  O   UNL     1      -9.767  16.400  68.347  1.00  0.00    -0.218 OA 
ENDROOT
BRANCH   2   4
HETATM    4  C   UNL     1     -10.406  14.419  67.235  1.00  0.00    -0.260 A  
HETATM    5  C   UNL     1     -11.311  14.211  66.202  1.00  0.00    -0.337 A  
HETATM    6  C   UNL     1     -11.072  13.193  65.287  1.00  0.00    -0.304 A  
HETATM    7  C   UNL     1      -9.941  12.368  65.385  1.00  0.00    -0.236 A  
HETATM    8  S   UNL     1      -9.814  11.133  64.122  1.00  0.00    -0.319 SA 
HETATM    9  C   UNL     1      -8.312  10.295  64.545  1.00  0.00    -0.168 A  
HETATM   10  C   UNL     1      -7.502  10.633  65.654  1.00  0.00    -0.093 A  
HETATM   11  C   UNL     1      -6.341   9.842  65.813  1.00  0.00    -0.084 A  
HETATM   12  N   UNL     1      -7.854  11.697  66.542  1.00  0.00    -0.082 NA 
HETATM   13  C   UNL     1      -9.003  12.539  66.423  1.00  0.00    -0.073 A  
HETATM   14  C   UNL     1      -6.008   8.785  64.950  1.00  0.00    -0.063 A  
HETATM   15  C   UNL     1      -9.274  13.589  67.332  1.00  0.00    -0.223 A  
HETATM   16  C   UNL     1      -7.974   9.232  63.683  1.00  0.00    -0.141 A  
HETATM   17  C   UNL     1      -6.828   8.476  63.882  1.00  0.00    -0.079 A  
BRANCH  12  18
HETATM   18  C   UNL     1      -6.984  11.949  67.715  1.00  0.00    -0.102 C  
BRANCH  18  19
HETATM   19  C   UNL     1      -6.325  10.653  68.210  1.00  0.00    -0.054 C  
BRANCH  19  20
HETATM   20  C   UNL     1      -6.916  10.194  69.551  1.00  0.00    -0.086 C  
BRANCH  20  21
HETATM   21  N   UNL     1      -8.297   9.697  69.420  1.00  0.00    -0.132 NA 
HETATM   22  C   UNL     1      -8.466   8.802  68.260  1.00  0.00    -0.130 C  
HETATM   23  C   UNL     1      -7.784   7.434  68.440  1.00  0.00    -0.120 C  
HETATM   24  N   UNL     1      -8.305   6.678  69.596  1.00  0.00    -0.130 NA 
HETATM   25  C   UNL     1      -8.189   7.543  70.801  1.00  0.00    -0.110 C  
HETATM   26  C   UNL     1      -8.737   8.989  70.642  1.00  0.00    -0.213 C  
BRANCH  24  27
HETATM   27  C   UNL     1      -9.714   6.252  69.399  1.00  0.00    -0.141 C  
BRANCH  27  28
HETATM   28  C   UNL     1      -9.931   5.477  68.089  1.00  0.00    -0.153 C  
HETATM   29  O   UNL     1     -11.081   5.968  67.408  1.00  0.00    -0.457 OA 
HETATM   30  H   UNL     1     -11.215   5.489  66.599  1.00  0.00     0.000 HD 
ENDBRANCH  27  28
ENDBRANCH  24  27
ENDBRANCH  20  21
ENDBRANCH  19  20
ENDBRANCH  18  19
ENDBRANCH  12  18
ENDBRANCH   2   4
TORSDOF 7
ENDMDL
MODEL      193
REMARK 921   NORMALIZED FREE ENERGY PREDICTED BY IDOCK:   -2.76 KCAL/MOL
REMARK 922        TOTAL FREE ENERGY PREDICTED BY IDOCK:   -4.64 KCAL/MOL
REMARK 923 INTER-LIGAND FREE ENERGY PREDICTED BY IDOCK:   -4.19 KCAL/MOL
REMARK 924 INTRA-LIGAND FREE ENERGY PREDICTED BY IDOCK:   -0.45 KCAL/MOL
REMARK 927      BINDING AFFINITY PREDICTED BY RF-SCORE:    0.00 PKD
ROOT
HETATM    1  C   UNL     1     -10.135  13.321  67.873  1.00  0.00    -0.235 C  
HETATM    2  C   UNL     1      -9.538  12.070  67.287  1.00  0.00    -0.183 C  
HETATM    3  O   UNL     1      -9.517  11.881  66.072  1.00  0.00    -0.231 OA 
ENDROOT
BRANCH   2   4
HETATM    4  C   UNL     1      -8.960  11.053  68.211  1.00  0.00    -0.155 A  
HETATM    5  C   UNL     1      -7.796  11.290  68.931  1.00  0.00    -0.114 A  
HETATM    6  C   UNL     1      -7.314  10.303  69.781  1.00  0.00    -0.167 A  
HETATM    7  C   UNL     1      -7.972   9.072  69.926  1.00  0.00    -0.103 A  
HETATM    8  S   UNL     1      -7.202   7.949  71.059  1.00  0.00    -0.059 SA 
HETATM    9  C   UNL     1      -8.269   6.537  70.994  1.00  0.00    -0.121 A  
HETATM   10  C   UNL     1      -9.427   6.456  70.187  1.00  0.00    -0.160 A  
HETATM   11  C   UNL     1     -10.143   5.241  70.284  1.00  0.00    -0.329 A  
HETATM   12  N   UNL     1      -9.824   7.533  69.335  1.00  0.00    -0.164 NA 
HETATM   13  C   UNL     1      -9.151   8.787  69.207  1.00  0.00    -0.145 A  
HETATM   14  C   UNL     1      -9.740   4.176  71.107  1.00  0.00    -0.258 A  
HETATM   15  C   UNL     1      -9.617   9.818  68.356  1.00  0.00    -0.157 A  
HETATM   16  C   UNL     1      -7.868   5.464  71.817  1.00  0.00    -0.112 A  
HETATM   17  C   UNL     1      -8.597   4.286  71.875  1.00  0.00    -0.117 A  
BRANCH  12  18
HETATM   18  C   UNL     1     -11.016   7.347  68.475  1.00  0.00     0.072 C  
BRANCH  18  19
HETATM   19  C   UNL     1     -10.624   7.226  66.995  1.00  0.00    -0.415 C  
BRANCH  19  20
HETATM   20  C   UNL     1     -10.691   5.771  66.509  1.00  0.00    -0.204 C  
BRANCH  20  21
HETATM   21  N   UNL     1      -9.420   5.051  66.696  1.00  0.00    -0.136 NA 
HETATM   22  C   UNL     1      -9.311   3.864  65.828  1.00  0.00    -0.162 C  
HETATM   23  C   UNL     1      -9.119   4.212  64.341  1.00  0.00    -0.147 C  
HETATM   24  N   UNL     1      -7.895   4.996  64.086  1.00  0.00    -0.089 NA 
HETATM   25  C   UNL     1      -7.930   6.200  64.959  1.00  0.00    -0.123 C  
HETATM   26  C   UNL     1      -8.256   5.932  66.455  1.00  0.00    -0.110 C  
BRANCH  24  27
HETATM   27  C   UNL     1      -6.661   4.209  64.339  1.00  0.00    -0.044 C  
BRANCH  27  28
HETATM   28  C   UNL     1      -5.657   4.940  65.246  1.00  0.00    -0.014 C  
HETATM   29  O   UNL     1      -5.412   4.179  66.425  1.00  0.00    -0.012 OA 
HETATM   30  H   UNL     1      -4.792   4.631  66.986  1.00  0.00     0.000 HD 
ENDBRANCH  27  28
ENDBRANCH  24  27
ENDBRANCH  20  21
ENDBRANCH  19  20
ENDBRANCH  18  19
ENDBRANCH  12  18
ENDBRANCH   2   4
TORSDOF 7
ENDMDL
MODEL      194
REMARK 921   NORMALIZED FREE ENERGY PREDICTED BY IDOCK:   -2.66 KCAL/MOL
REMARK 922        TOTAL FREE ENERGY PREDICTED BY IDOCK:   -4.51 KCAL/MOL
REMARK 923 INTER-LIGAND FREE ENERGY PREDICTED BY IDOCK:   -4.50 KCAL/MOL
REMARK 924 INTRA-LIGAND FREE ENERGY PREDICTED BY IDOCK:   -0.00 KCAL/MOL
REMARK 927      BINDING AFFINITY PREDICTED BY RF-SCORE:    0.00 PKD
ROOT
HETATM    1  C   UNL     1      -9.844   3.396  71.273  1.00  0.00    -0.194 C  
HETATM    2  C   UNL     1     -10.761   4.133  72.210  1.00  0.00     0.081 C  
HETATM    3  O   UNL     1     -11.241   3.582  73.200  1.00  0.00    -0.127 OA 
ENDROOT
BRANCH   2   4
HETATM    4  C   UNL     1     -11.079   5.560  71.923  1.00  0.00    -0.233 A  
HETATM    5  C   UNL     1     -11.667   6.389  72.870  1.00  0.00     0.069 A  
HETATM    6  C   UNL     1     -11.932   7.712  72.541  1.00  0.00    -0.261 A  
HETATM    7  C   UNL     1     -11.624   8.230  71.274  1.00  0.00    -0.281 A  
HETATM    8  S   UNL     1     -12.035   9.938  71.052  1.00  0.00    -0.393 SA 
HETATM    9  C   UNL     1     -11.527  10.248  69.384  1.00  0.00    -0.186 A  
HETATM   10  C   UNL     1     -10.945   9.275  68.540  1.00  0.00     0.011 A  
HETATM   11  C   UNL     1     -10.606   9.728  67.244  1.00  0.00    -0.320 A  
HETATM   12  N   UNL     1     -10.730   7.932  68.981  1.00  0.00    -0.153 NA 
HETATM   13  C   UNL     1     -11.036   7.422  70.280  1.00  0.00    -0.258 A  
HETATM   14  C   UNL     1     -10.837  11.043  66.806  1.00  0.00    -0.307 A  
HETATM   15  C   UNL     1     -10.774   6.081  70.652  1.00  0.00    -0.341 A  
HETATM   16  C   UNL     1     -11.757  11.566  68.939  1.00  0.00    -0.403 A  
HETATM   17  C   UNL     1     -11.416  11.966  67.655  1.00  0.00    -0.387 A  
BRANCH  12  18
HETATM   18  C   UNL     1     -10.170   6.956  68.016  1.00  0.00    -0.176 C  
BRANCH  18  19
HETATM   19  C   UNL     1      -8.638   7.054  67.949  1.00  0.00    -0.126 C  
BRANCH  19  20
HETATM   20  C   UNL     1      -8.026   5.841  67.233  1.00  0.00    -0.102 C  
BRANCH  20  21
HETATM   21  N   UNL     1      -7.982   4.642  68.087  1.00  0.00    -0.084 NA 
HETATM   22  C   UNL     1      -8.351   3.415  67.356  1.00  0.00    -0.091 C  
HETATM   23  C   UNL     1      -7.286   2.968  66.339  1.00  0.00    -0.074 C  
HETATM   24  N   UNL     1      -5.982   2.672  66.963  1.00  0.00    -0.023 NA 
HETATM   25  C   UNL     1      -5.565   3.868  67.745  1.00  0.00    -0.021 C  
HETATM   26  C   UNL     1      -6.647   4.456  68.695  1.00  0.00    -0.045 C  
BRANCH  24  27
HETATM   27  C   UNL     1      -6.037   1.475  67.839  1.00  0.00    -0.024 C  
BRANCH  27  28
HETATM   28  C   UNL     1      -5.779   1.799  69.320  1.00  0.00    -0.022 C  
HETATM   29  O   UNL     1      -6.981   1.672  70.072  1.00  0.00    -0.032 OA 
HETATM   30  H   UNL     1      -6.821   1.874  70.987  1.00  0.00     0.000 HD 
ENDBRANCH  27  28
ENDBRANCH  24  27
ENDBRANCH  20  21
ENDBRANCH  19  20
ENDBRANCH  18  19
ENDBRANCH  12  18
ENDBRANCH   2   4
TORSDOF 7
ENDMDL
MODEL      195
REMARK 921   NORMALIZED FREE ENERGY PREDICTED BY IDOCK:   -2.62 KCAL/MOL
REMARK 922        TOTAL FREE ENERGY PREDICTED BY IDOCK:   -4.45 KCAL/MOL
REMARK 923 INTER-LIGAND FREE ENERGY PREDICTED BY IDOCK:   -4.50 KCAL/MOL
REMARK 924 INTRA-LIGAND FREE ENERGY PREDICTED BY IDOCK:    0.05 KCAL/MOL
REMARK 927      BINDING AFFINITY PREDICTED BY RF-SCORE:    0.00 PKD
ROOT
HETATM    1  C   UNL     1      -9.791   3.407  71.563  1.00  0.00    -0.212 C  
HETATM    2  C   UNL     1     -10.203   4.678  72.255  1.00  0.00    -0.193 C  
HETATM    3  O   UNL     1     -10.888   4.656  73.276  1.00  0.00    -0.220 OA 
ENDROOT
BRANCH   2   4
HETATM    4  C   UNL     1      -9.761   5.980  71.681  1.00  0.00    -0.180 A  
HETATM    5  C   UNL     1      -9.218   6.986  72.470  1.00  0.00    -0.156 A  
HETATM    6  C   UNL     1      -8.818   8.174  71.871  1.00  0.00    -0.214 A  
HETATM    7  C   UNL     1      -8.954   8.384  70.491  1.00  0.00    -0.150 A  
HETATM    8  S   UNL     1      -8.383   9.960  69.920  1.00  0.00    -0.153 SA 
HETATM    9  C   UNL     1      -8.701   9.885  68.180  1.00  0.00    -0.122 A  
HETATM   10  C   UNL     1      -9.277   8.770  67.528  1.00  0.00    -0.136 A  
HETATM   11  C   UNL     1      -9.442   8.911  66.131  1.00  0.00    -0.318 A  
HETATM   12  N   UNL     1      -9.665   7.598  68.249  1.00  0.00    -0.154 NA 
HETATM   13  C   UNL     1      -9.508   7.393  69.655  1.00  0.00    -0.156 A  
HETATM   14  C   UNL     1      -9.078  10.071  65.427  1.00  0.00    -0.235 A  
HETATM   15  C   UNL     1      -9.898   6.194  70.297  1.00  0.00    -0.206 A  
HETATM   16  C   UNL     1      -8.339  11.048  67.469  1.00  0.00    -0.118 A  
HETATM   17  C   UNL     1      -8.526  11.145  66.099  1.00  0.00    -0.156 A  
BRANCH  12  18
HETATM   18  C   UNL     1     -10.317   6.497  67.502  1.00  0.00    -0.201 C  
BRANCH  18  19
HETATM   19  C   UNL     1      -9.386   5.281  67.374  1.00  0.00    -0.122 C  
BRANCH  19  20
HETATM   20  C   UNL     1      -8.542   5.349  66.093  1.00  0.00    -0.126 C  
BRANCH  20  21
HETATM   21  N   UNL     1      -9.282   4.893  64.903  1.00  0.00    -0.122 NA 
HETATM   22  C   UNL     1      -8.414   4.759  63.717  1.00  0.00    -0.128 C  
HETATM   23  C   UNL     1      -7.438   3.573  63.806  1.00  0.00    -0.059 C  
HETATM   24  N   UNL     1      -8.124   2.272  63.936  1.00  0.00    -0.080 NA 
HETATM   25  C   UNL     1      -9.041   2.351  65.105  1.00  0.00    -0.126 C  
HETATM   26  C   UNL     1      -9.963   3.603  65.148  1.00  0.00    -0.083 C  
BRANCH  24  27
HETATM   27  C   UNL     1      -8.878   1.909  62.710  1.00  0.00    -0.076 C  
BRANCH  27  28
HETATM   28  C   UNL     1     -10.351   1.566  62.988  1.00  0.00    -0.118 C  
HETATM   29  O   UNL     1     -11.206   2.536  62.393  1.00  0.00    -0.177 OA 
HETATM   30  H   UNL     1     -12.116   2.324  62.566  1.00  0.00     0.000 HD 
ENDBRANCH  27  28
ENDBRANCH  24  27
ENDBRANCH  20  21
ENDBRANCH  19  20
ENDBRANCH  18  19
ENDBRANCH  12  18
ENDBRANCH   2   4
TORSDOF 7
ENDMDL
MODEL      196
REMARK 921   NORMALIZED FREE ENERGY PREDICTED BY IDOCK:   -2.54 KCAL/MOL
REMARK 922        TOTAL FREE ENERGY PREDICTED BY IDOCK:   -4.34 KCAL/MOL
REMARK 923 INTER-LIGAND FREE ENERGY PREDICTED BY IDOCK:   -4.03 KCAL/MOL
REMARK 924 INTRA-LIGAND FREE ENERGY PREDICTED BY IDOCK:   -0.31 KCAL/MOL
REMARK 927      BINDING AFFINITY PREDICTED BY RF-SCORE:    0.00 PKD
ROOT
HETATM    1  C   UNL     1      -8.510  10.727  62.751  1.00  0.00    -0.199 C  
HETATM    2  C   UNL     1      -7.321   9.806  62.790  1.00  0.00    -0.120 C  
HETATM    3  O   UNL     1      -6.225  10.159  62.358  1.00  0.00    -0.107 OA 
ENDROOT
BRANCH   2   4
HETATM    4  C   UNL     1      -7.491   8.444  63.370  1.00  0.00    -0.114 A  
HETATM    5  C   UNL     1      -7.876   7.357  62.596  1.00  0.00    -0.132 A  
HETATM    6  C   UNL     1      -8.010   6.112  63.197  1.00  0.00    -0.102 A  
HETATM    7  C   UNL     1      -7.769   5.927  64.566  1.00  0.00    -0.098 A  
HETATM    8  S   UNL     1      -7.990   4.266  65.140  1.00  0.00    -0.098 SA 
HETATM    9  C   UNL     1      -7.616   4.396  66.867  1.00  0.00    -0.085 A  
HETATM   10  C   UNL     1      -7.244   5.600  67.507  1.00  0.00    -0.076 A  
HETATM   11  C   UNL     1      -6.983   5.488  68.892  1.00  0.00    -0.060 A  
HETATM   12  N   UNL     1      -7.151   6.833  66.789  1.00  0.00    -0.070 NA 
HETATM   13  C   UNL     1      -7.386   7.004  65.390  1.00  0.00    -0.080 A  
HETATM   14  C   UNL     1      -7.095   4.279  69.599  1.00  0.00    -0.049 A  
HETATM   15  C   UNL     1      -7.253   8.256  64.744  1.00  0.00    -0.082 A  
HETATM   16  C   UNL     1      -7.728   3.186  67.581  1.00  0.00    -0.068 A  
HETATM   17  C   UNL     1      -7.471   3.123  68.942  1.00  0.00    -0.048 A  
BRANCH  12  18
HETATM   18  C   UNL     1      -6.813   8.062  67.545  1.00  0.00    -0.070 C  
BRANCH  18  19
HETATM   19  C   UNL     1      -7.875   9.153  67.340  1.00  0.00    -0.099 C  
BRANCH  19  20
HETATM   20  C   UNL     1      -9.220   8.757  67.967  1.00  0.00    -0.139 C  
BRANCH  20  21
HETATM   21  N   UNL     1      -9.146   8.628  69.433  1.00  0.00    -0.148 NA 
HETATM   22  C   UNL     1      -9.742   9.782  70.131  1.00  0.00    -0.248 C  
HETATM   23  C   UNL     1     -11.276   9.837  70.019  1.00  0.00    -0.251 C  
HETATM   24  N   UNL     1     -11.938   8.649  70.593  1.00  0.00    -0.122 NA 
HETATM   25  C   UNL     1     -11.356   7.441  69.946  1.00  0.00    -0.076 C  
HETATM   26  C   UNL     1      -9.803   7.389  69.903  1.00  0.00    -0.178 C  
BRANCH  24  27
HETATM   27  C   UNL     1     -11.779   8.574  72.067  1.00  0.00    -0.362 C  
BRANCH  27  28
HETATM   28  C   UNL     1     -13.115   8.665  72.822  1.00  0.00    -0.086 C  
HETATM   29  O   UNL     1     -13.725   9.932  72.598  1.00  0.00    -0.657 OA 
HETATM   30  H   UNL     1     -14.551   9.987  73.065  1.00  0.00     0.000 HD 
ENDBRANCH  27  28
ENDBRANCH  24  27
ENDBRANCH  20  21
ENDBRANCH  19  20
ENDBRANCH  18  19
ENDBRANCH  12  18
ENDBRANCH   2   4
TORSDOF 7
ENDMDL
MODEL      197
REMARK 921   NORMALIZED FREE ENERGY PREDICTED BY IDOCK:   -2.46 KCAL/MOL
REMARK 922        TOTAL FREE ENERGY PREDICTED BY IDOCK:   -4.23 KCAL/MOL
REMARK 923 INTER-LIGAND FREE ENERGY PREDICTED BY IDOCK:   -4.70 KCAL/MOL
REMARK 924 INTRA-LIGAND FREE ENERGY PREDICTED BY IDOCK:    0.47 KCAL/MOL
REMARK 927      BINDING AFFINITY PREDICTED BY RF-SCORE:    0.00 PKD
ROOT
HETATM    1  C   UNL     1      -6.230  10.162  63.286  1.00  0.00    -0.141 C  
HETATM    2  C   UNL     1      -6.356   9.685  64.707  1.00  0.00    -0.089 C  
HETATM    3  O   UNL     1      -5.459   9.040  65.247  1.00  0.00    -0.038 OA 
ENDROOT
BRANCH   2   4
HETATM    4  C   UNL     1      -7.598  10.014  65.464  1.00  0.00    -0.136 A  
HETATM    5  C   UNL     1      -8.629  10.754  64.900  1.00  0.00    -0.097 A  
HETATM    6  C   UNL     1      -9.763  11.020  65.656  1.00  0.00    -0.276 A  
HETATM    7  C   UNL     1      -9.890  10.562  66.976  1.00  0.00    -0.183 A  
HETATM    8  S   UNL     1     -11.412  11.001  67.770  1.00  0.00    -0.190 SA 
HETATM    9  C   UNL     1     -11.234  10.283  69.379  1.00  0.00    -0.239 A  
HETATM   10  C   UNL     1     -10.097   9.556  69.800  1.00  0.00    -0.216 A  
HETATM   11  C   UNL     1     -10.157   9.061  71.123  1.00  0.00    -0.365 A  
HETATM   12  N   UNL     1      -8.975   9.354  68.938  1.00  0.00    -0.134 NA 
HETATM   13  C   UNL     1      -8.864   9.815  67.590  1.00  0.00    -0.125 A  
HETATM   14  C   UNL     1     -11.252   9.278  71.976  1.00  0.00    -0.205 A  
HETATM   15  C   UNL     1      -7.727   9.558  66.788  1.00  0.00    -0.098 A  
HETATM   16  C   UNL     1     -12.331  10.498  70.239  1.00  0.00    -0.377 A  
HETATM   17  C   UNL     1     -12.343  10.001  71.533  1.00  0.00    -0.513 A  
BRANCH  12  18
HETATM   18  C   UNL     1      -7.796   8.634  69.475  1.00  0.00    -0.095 C  
BRANCH  18  19
HETATM   19  C   UNL     1      -7.842   7.141  69.113  1.00  0.00    -0.118 C  
BRANCH  19  20
HETATM   20  C   UNL     1      -9.062   6.809  68.242  1.00  0.00    -0.124 C  
BRANCH  20  21
HETATM   21  N   UNL     1      -9.895   5.739  68.818  1.00  0.00    -0.131 NA 
HETATM   22  C   UNL     1      -9.803   4.480  68.055  1.00  0.00    -0.092 C  
HETATM   23  C   UNL     1      -8.445   3.772  68.208  1.00  0.00    -0.092 C  
HETATM   24  N   UNL     1      -8.141   3.405  69.605  1.00  0.00    -0.049 NA 
HETATM   25  C   UNL     1      -8.246   4.634  70.437  1.00  0.00    -0.075 C  
HETATM   26  C   UNL     1      -9.538   5.473  70.229  1.00  0.00    -0.174 C  
BRANCH  24  27
HETATM   27  C   UNL     1      -9.052   2.352  70.120  1.00  0.00    -0.109 C  
BRANCH  27  28
HETATM   28  C   UNL     1      -8.883   2.093  71.626  1.00  0.00    -0.073 C  
HETATM   29  O   UNL     1     -10.155   2.029  72.263  1.00  0.00    -0.143 OA 
HETATM   30  H   UNL     1     -10.050   1.869  73.194  1.00  0.00     0.000 HD 
ENDBRANCH  27  28
ENDBRANCH  24  27
ENDBRANCH  20  21
ENDBRANCH  19  20
ENDBRANCH  18  19
ENDBRANCH  12  18
ENDBRANCH   2   4
TORSDOF 7
ENDMDL
MODEL      198
REMARK 921   NORMALIZED FREE ENERGY PREDICTED BY IDOCK:   -2.41 KCAL/MOL
REMARK 922        TOTAL FREE ENERGY PREDICTED BY IDOCK:   -4.15 KCAL/MOL
REMARK 923 INTER-LIGAND FREE ENERGY PREDICTED BY IDOCK:   -4.10 KCAL/MOL
REMARK 924 INTRA-LIGAND FREE ENERGY PREDICTED BY IDOCK:   -0.05 KCAL/MOL
REMARK 927      BINDING AFFINITY PREDICTED BY RF-SCORE:    0.00 PKD
ROOT
HETATM    1  C   UNL     1      -5.873   8.167  64.069  1.00  0.00    -0.061 C  
HETATM    2  C   UNL     1      -6.517   7.236  65.060  1.00  0.00    -0.037 C  
HETATM    3  O   UNL     1      -6.331   6.021  65.010  1.00  0.00    -0.035 OA 
ENDROOT
BRANCH   2   4
HETATM    4  C   UNL     1      -7.392   7.813  66.119  1.00  0.00    -0.078 A  
HETATM    5  C   UNL     1      -7.981   9.064  65.986  1.00  0.00    -0.103 A  
HETATM    6  C   UNL     1      -8.792   9.542  67.007  1.00  0.00    -0.139 A  
HETATM    7  C   UNL     1      -9.027   8.795  68.170  1.00  0.00    -0.141 A  
HETATM    8  S   UNL     1     -10.092   9.575  69.351  1.00  0.00    -0.211 SA 
HETATM    9  C   UNL     1     -10.164   8.384  70.660  1.00  0.00    -0.194 A  
HETATM   10  C   UNL     1      -9.486   7.143  70.639  1.00  0.00    -0.161 A  
HETATM   11  C   UNL     1      -9.680   6.334  71.782  1.00  0.00    -0.168 A  
HETATM   12  N   UNL     1      -8.662   6.757  69.536  1.00  0.00    -0.133 NA 
HETATM   13  C   UNL     1      -8.442   7.525  68.350  1.00  0.00    -0.125 A  
HETATM   14  C   UNL     1     -10.474   6.723  72.873  1.00  0.00    -0.260 A  
HETATM   15  C   UNL     1      -7.628   7.066  67.288  1.00  0.00    -0.108 A  
HETATM   16  C   UNL     1     -10.959   8.770  71.758  1.00  0.00    -0.415 A  
HETATM   17  C   UNL     1     -11.115   7.947  72.863  1.00  0.00    -0.442 A  
BRANCH  12  18
HETATM   18  C   UNL     1      -7.937   5.467  69.618  1.00  0.00    -0.093 C  
BRANCH  18  19
HETATM   19  C   UNL     1      -8.877   4.281  69.351  1.00  0.00    -0.138 C  
BRANCH  19  20
HETATM   20  C   UNL     1      -8.195   2.940  69.660  1.00  0.00    -0.047 C  
BRANCH  20  21
HETATM   21  N   UNL     1      -8.487   1.911  68.647  1.00  0.00    -0.056 NA 
HETATM   22  C   UNL     1      -9.626   2.275  67.784  1.00  0.00     0.030 C  
HETATM   23  C   UNL     1      -9.309   3.423  66.808  1.00  0.00    -0.167 C  
HETATM   24  N   UNL     1      -8.204   3.103  65.882  1.00  0.00    -0.093 NA 
HETATM   25  C   UNL     1      -7.026   2.696  66.696  1.00  0.00    -0.049 C  
HETATM   26  C   UNL     1      -7.307   1.635  67.797  1.00  0.00    -0.050 C  
BRANCH  24  27
HETATM   27  C   UNL     1      -8.567   2.028  64.925  1.00  0.00    -0.099 C  
BRANCH  27  28
HETATM   28  C   UNL     1      -9.554   2.495  63.842  1.00  0.00    -0.133 C  
HETATM   29  O   UNL     1     -10.826   1.884  64.035  1.00  0.00    -0.394 OA 
HETATM   30  H   UNL     1     -11.435   2.172  63.365  1.00  0.00     0.000 HD 
ENDBRANCH  27  28
ENDBRANCH  24  27
ENDBRANCH  20  21
ENDBRANCH  19  20
ENDBRANCH  18  19
ENDBRANCH  12  18
ENDBRANCH   2   4
TORSDOF 7
ENDMDL
MODEL      199
REMARK 921   NORMALIZED FREE ENERGY PREDICTED BY IDOCK:   -2.39 KCAL/MOL
REMARK 922        TOTAL FREE ENERGY PREDICTED BY IDOCK:   -4.12 KCAL/MOL
REMARK 923 INTER-LIGAND FREE ENERGY PREDICTED BY IDOCK:   -3.50 KCAL/MOL
REMARK 924 INTRA-LIGAND FREE ENERGY PREDICTED BY IDOCK:   -0.62 KCAL/MOL
REMARK 927      BINDING AFFINITY PREDICTED BY RF-SCORE:    0.00 PKD
ROOT
HETATM    1  C   UNL     1      -6.128  12.431  67.562  1.00  0.00    -0.148 C  
HETATM    2  C   UNL     1      -7.612  12.414  67.809  1.00  0.00    -0.134 C  
HETATM    3  O   UNL     1      -8.209  13.422  68.185  1.00  0.00    -0.143 OA 
ENDROOT
BRANCH   2   4
HETATM    4  C   UNL     1      -8.359  11.143  67.587  1.00  0.00    -0.122 A  
HETATM    5  C   UNL     1      -9.740  11.117  67.440  1.00  0.00    -0.191 A  
HETATM    6  C   UNL     1     -10.375   9.901  67.228  1.00  0.00    -0.303 A  
HETATM    7  C   UNL     1      -9.656   8.698  67.162  1.00  0.00    -0.173 A  
HETATM    8  S   UNL     1     -10.646   7.256  66.881  1.00  0.00    -0.230 SA 
HETATM    9  C   UNL     1      -9.445   5.955  66.860  1.00  0.00    -0.135 A  
HETATM   10  C   UNL     1      -8.057   6.156  67.037  1.00  0.00    -0.106 A  
HETATM   11  C   UNL     1      -7.268   4.985  66.981  1.00  0.00    -0.077 A  
HETATM   12  N   UNL     1      -7.511   7.458  67.264  1.00  0.00    -0.101 NA 
HETATM   13  C   UNL     1      -8.255   8.678  67.315  1.00  0.00    -0.105 A  
HETATM   14  C   UNL     1      -7.808   3.704  66.777  1.00  0.00    -0.084 A  
HETATM   15  C   UNL     1      -7.640   9.936  67.523  1.00  0.00    -0.091 A  
HETATM   16  C   UNL     1      -9.982   4.667  66.657  1.00  0.00    -0.260 A  
HETATM   17  C   UNL     1      -9.171   3.543  66.617  1.00  0.00    -0.192 A  
BRANCH  12  18
HETATM   18  C   UNL     1      -6.053   7.578  67.500  1.00  0.00    -0.048 C  
BRANCH  18  19
HETATM   19  C   UNL     1      -5.655   6.965  68.853  1.00  0.00    -0.018 C  
BRANCH  19  20
HETATM   20  C   UNL     1      -6.439   7.598  70.011  1.00  0.00    -0.034 C  
BRANCH  20  21
HETATM   21  N   UNL     1      -7.526   6.732  70.500  1.00  0.00    -0.085 NA 
HETATM   22  C   UNL     1      -7.102   5.327  70.653  1.00  0.00    -0.060 C  
HETATM   23  C   UNL     1      -6.134   5.107  71.830  1.00  0.00    -0.029 C  
HETATM   24  N   UNL     1      -6.717   5.483  73.133  1.00  0.00    -0.072 NA 
HETATM   25  C   UNL     1      -7.194   6.889  73.035  1.00  0.00    -0.074 C  
HETATM   26  C   UNL     1      -8.067   7.214  71.790  1.00  0.00    -0.101 C  
BRANCH  24  27
HETATM   27  C   UNL     1      -7.831   4.585  73.529  1.00  0.00    -0.091 C  
BRANCH  27  28
HETATM   28  C   UNL     1      -8.803   5.237  74.527  1.00  0.00    -0.113 C  
HETATM   29  O   UNL     1     -10.142   4.842  74.243  1.00  0.00    -0.180 OA 
HETATM   30  H   UNL     1     -10.742   5.246  74.859  1.00  0.00     0.000 HD 
ENDBRANCH  27  28
ENDBRANCH  24  27
ENDBRANCH  20  21
ENDBRANCH  19  20
ENDBRANCH  18  19
ENDBRANCH  12  18
ENDBRANCH   2   4
TORSDOF 7
ENDMDL
MODEL      200
REMARK 921   NORMALIZED FREE ENERGY PREDICTED BY IDOCK:   -2.38 KCAL/MOL
REMARK 922        TOTAL FREE ENERGY PREDICTED BY IDOCK:   -4.11 KCAL/MOL
REMARK 923 INTER-LIGAND FREE ENERGY PREDICTED BY IDOCK:   -3.36 KCAL/MOL
REMARK 924 INTRA-LIGAND FREE ENERGY PREDICTED BY IDOCK:   -0.76 KCAL/MOL
REMARK 927      BINDING AFFINITY PREDICTED BY RF-SCORE:    0.00 PKD
ROOT
HETATM    1  C   UNL     1      -8.607   9.103  71.505  1.00  0.00     0.013 C  
HETATM    2  C   UNL     1      -9.757   9.345  70.565  1.00  0.00    -0.271 C  
HETATM    3  O   UNL     1     -10.911   9.442  70.979  1.00  0.00    -0.281 OA 
ENDROOT
BRANCH   2   4
HETATM    4  C   UNL     1      -9.473   9.473  69.108  1.00  0.00    -0.163 A  
HETATM    5  C   UNL     1      -9.998  10.506  68.343  1.00  0.00    -0.177 A  
HETATM    6  C   UNL     1      -9.689  10.572  66.991  1.00  0.00    -0.212 A  
HETATM    7  C   UNL     1      -8.863   9.618  66.378  1.00  0.00    -0.150 A  
HETATM    8  S   UNL     1      -8.586   9.878  64.648  1.00  0.00    -0.199 SA 
HETATM    9  C   UNL     1      -7.532   8.523  64.213  1.00  0.00    -0.111 A  
HETATM   10  C   UNL     1      -7.091   7.538  65.127  1.00  0.00    -0.063 A  
HETATM   11  C   UNL     1      -6.251   6.543  64.578  1.00  0.00    -0.037 A  
HETATM   12  N   UNL     1      -7.485   7.561  66.501  1.00  0.00    -0.083 NA 
HETATM   13  C   UNL     1      -8.317   8.548  67.115  1.00  0.00    -0.111 A  
HETATM   14  C   UNL     1      -5.882   6.511  63.222  1.00  0.00    -0.034 A  
HETATM   15  C   UNL     1      -8.647   8.516  68.491  1.00  0.00    -0.138 A  
HETATM   16  C   UNL     1      -7.160   8.486  62.854  1.00  0.00    -0.091 A  
HETATM   17  C   UNL     1      -6.339   7.485  62.356  1.00  0.00    -0.067 A  
BRANCH  12  18
HETATM   18  C   UNL     1      -7.029   6.459  67.381  1.00  0.00    -0.075 C  
BRANCH  18  19
HETATM   19  C   UNL     1      -8.090   5.352  67.484  1.00  0.00    -0.101 C  
BRANCH  19  20
HETATM   20  C   UNL     1      -7.670   4.257  68.475  1.00  0.00    -0.070 C  
BRANCH  20  21
HETATM   21  N   UNL     1      -7.542   4.761  69.854  1.00  0.00    -0.055 NA 
HETATM   22  C   UNL     1      -8.758   5.454  70.316  1.00  0.00    -0.127 C  
HETATM   23  C   UNL     1      -9.944   4.506  70.566  1.00  0.00    -0.208 C  
HETATM   24  N   UNL     1      -9.659   3.487  71.597  1.00  0.00    -0.148 NA 
HETATM   25  C   UNL     1      -8.419   2.767  71.201  1.00  0.00    -0.062 C  
HETATM   26  C   UNL     1      -7.219   3.672  70.802  1.00  0.00    -0.037 C  
BRANCH  24  27
HETATM   27  C   UNL     1      -9.503   4.084  72.947  1.00  0.00    -0.123 C  
BRANCH  27  28
HETATM   28  C   UNL     1      -9.131   3.050  74.023  1.00  0.00    -0.081 C  
HETATM   29  O   UNL     1     -10.140   2.049  74.117  1.00  0.00    -0.094 OA 
HETATM   30  H   UNL     1      -9.910   1.411  74.782  1.00  0.00     0.000 HD 
ENDBRANCH  27  28
ENDBRANCH  24  27
ENDBRANCH  20  21
ENDBRANCH  19  20
ENDBRANCH  18  19
ENDBRANCH  12  18
ENDBRANCH   2   4
TORSDOF 7
ENDMDL
MODEL      201
REMARK 921   NORMALIZED FREE ENERGY PREDICTED BY IDOCK:   -2.31 KCAL/MOL
REMARK 922        TOTAL FREE ENERGY PREDICTED BY IDOCK:   -4.01 KCAL/MOL
REMARK 923 INTER-LIGAND FREE ENERGY PREDICTED BY IDOCK:   -3.99 KCAL/MOL
REMARK 924 INTRA-LIGAND FREE ENERGY PREDICTED BY IDOCK:   -0.03 KCAL/MOL
REMARK 927      BINDING AFFINITY PREDICTED BY RF-SCORE:    0.00 PKD
ROOT
HETATM    1  C   UNL     1      -9.909   2.387  71.765  1.00  0.00    -0.228 C  
HETATM    2  C   UNL     1      -9.977   3.389  72.886  1.00  0.00    -0.149 C  
HETATM    3  O   UNL     1     -10.634   3.167  73.902  1.00  0.00    -0.156 OA 
ENDROOT
BRANCH   2   4
HETATM    4  C   UNL     1      -9.225   4.668  72.748  1.00  0.00    -0.144 A  
HETATM    5  C   UNL     1      -8.411   5.156  73.762  1.00  0.00    -0.111 A  
HETATM    6  C   UNL     1      -7.731   6.352  73.567  1.00  0.00    -0.093 A  
HETATM    7  C   UNL     1      -7.850   7.079  72.373  1.00  0.00    -0.094 A  
HETATM    8  S   UNL     1      -6.902   8.574  72.318  1.00  0.00    -0.044 SA 
HETATM    9  C   UNL     1      -7.284   9.220  70.714  1.00  0.00    -0.121 A  
HETATM   10  C   UNL     1      -8.154   8.591  69.794  1.00  0.00    -0.116 A  
HETATM   11  C   UNL     1      -8.321   9.269  68.565  1.00  0.00    -0.119 A  
HETATM   12  N   UNL     1      -8.814   7.362  70.107  1.00  0.00    -0.147 NA 
HETATM   13  C   UNL     1      -8.673   6.625  71.323  1.00  0.00    -0.129 A  
HETATM   14  C   UNL     1      -7.686  10.487  68.267  1.00  0.00    -0.101 A  
HETATM   15  C   UNL     1      -9.345   5.401  71.553  1.00  0.00    -0.177 A  
HETATM   16  C   UNL     1      -6.650  10.443  70.410  1.00  0.00    -0.121 A  
HETATM   17  C   UNL     1      -6.849  11.078  69.194  1.00  0.00    -0.094 A  
BRANCH  12  18
HETATM   18  C   UNL     1      -9.758   6.799  69.112  1.00  0.00    -0.146 C  
BRANCH  18  19
HETATM   19  C   UNL     1      -9.200   5.515  68.479  1.00  0.00    -0.133 C  
BRANCH  19  20
HETATM   20  C   UNL     1      -8.299   5.825  67.275  1.00  0.00    -0.104 C  
BRANCH  20  21
HETATM   21  N   UNL     1      -9.045   5.872  66.006  1.00  0.00    -0.155 NA 
HETATM   22  C   UNL     1      -8.172   5.692  64.831  1.00  0.00    -0.134 C  
HETATM   23  C   UNL     1      -7.635   4.257  64.686  1.00  0.00    -0.077 C  
HETATM   24  N   UNL     1      -8.706   3.253  64.534  1.00  0.00    -0.097 NA 
HETATM   25  C   UNL     1      -9.643   3.404  65.680  1.00  0.00    -0.078 C  
HETATM   26  C   UNL     1     -10.119   4.856  65.969  1.00  0.00    -0.239 C  
BRANCH  24  27
HETATM   27  C   UNL     1      -9.434   3.399  63.248  1.00  0.00    -0.100 C  
BRANCH  27  28
HETATM   28  C   UNL     1     -10.955   3.227  63.395  1.00  0.00    -0.118 C  
HETATM   29  O   UNL     1     -11.303   1.847  63.355  1.00  0.00    -0.463 OA 
HETATM   30  H   UNL     1     -12.243   1.741  63.445  1.00  0.00     0.000 HD 
ENDBRANCH  27  28
ENDBRANCH  24  27
ENDBRANCH  20  21
ENDBRANCH  19  20
ENDBRANCH  18  19
ENDBRANCH  12  18
ENDBRANCH   2   4
TORSDOF 7
ENDMDL
MODEL      202
REMARK 921   NORMALIZED FREE ENERGY PREDICTED BY IDOCK:   -2.14 KCAL/MOL
REMARK 922        TOTAL FREE ENERGY PREDICTED BY IDOCK:   -3.77 KCAL/MOL
REMARK 923 INTER-LIGAND FREE ENERGY PREDICTED BY IDOCK:   -4.71 KCAL/MOL
REMARK 924 INTRA-LIGAND FREE ENERGY PREDICTED BY IDOCK:    0.94 KCAL/MOL
REMARK 927      BINDING AFFINITY PREDICTED BY RF-SCORE:    0.00 PKD
ROOT
HETATM    1  C   UNL     1     -11.018  11.568  68.109  1.00  0.00    -0.279 C  
HETATM    2  C   UNL     1     -11.042  10.063  68.107  1.00  0.00    -0.193 C  
HETATM    3  O   UNL     1     -11.155   9.427  67.060  1.00  0.00    -0.005 OA 
ENDROOT
BRANCH   2   4
HETATM    4  C   UNL     1     -10.922   9.346  69.408  1.00  0.00    -0.165 A  
HETATM    5  C   UNL     1     -11.063  10.000  70.625  1.00  0.00    -0.408 A  
HETATM    6  C   UNL     1     -10.947   9.271  71.802  1.00  0.00    -0.383 A  
HETATM    7  C   UNL     1     -10.687   7.893  71.791  1.00  0.00    -0.232 A  
HETATM    8  S   UNL     1     -10.579   7.145  73.393  1.00  0.00    -0.364 SA 
HETATM    9  C   UNL     1     -10.247   5.448  73.010  1.00  0.00    -0.183 A  
HETATM   10  C   UNL     1     -10.124   4.942  71.696  1.00  0.00    -0.198 A  
HETATM   11  C   UNL     1      -9.863   3.556  71.608  1.00  0.00    -0.227 A  
HETATM   12  N   UNL     1     -10.249   5.790  70.552  1.00  0.00    -0.206 NA 
HETATM   13  C   UNL     1     -10.528   7.192  70.578  1.00  0.00    -0.212 A  
HETATM   14  C   UNL     1      -9.720   2.728  72.734  1.00  0.00    -0.181 A  
HETATM   15  C   UNL     1     -10.659   7.964  69.399  1.00  0.00    -0.209 A  
HETATM   16  C   UNL     1     -10.102   4.613  74.137  1.00  0.00    -0.236 A  
HETATM   17  C   UNL     1      -9.838   3.258  74.004  1.00  0.00    -0.152 A  
BRANCH  12  18
HETATM   18  C   UNL     1     -10.046   5.194  69.210  1.00  0.00    -0.213 C  
BRANCH  18  19
HETATM   19  C   UNL     1      -8.561   5.202  68.815  1.00  0.00    -0.089 C  
BRANCH  19  20
HETATM   20  C   UNL     1      -7.874   6.513  69.225  1.00  0.00    -0.110 C  
BRANCH  20  21
HETATM   21  N   UNL     1      -7.268   7.216  68.082  1.00  0.00    -0.092 NA 
HETATM   22  C   UNL     1      -5.866   6.818  67.855  1.00  0.00    -0.020 C  
HETATM   23  C   UNL     1      -5.719   5.389  67.302  1.00  0.00    -0.013 C  
HETATM   24  N   UNL     1      -6.394   5.202  66.003  1.00  0.00    -0.038 NA 
HETATM   25  C   UNL     1      -7.814   5.617  66.158  1.00  0.00    -0.100 C  
HETATM   26  C   UNL     1      -8.038   6.997  66.838  1.00  0.00    -0.116 C  
BRANCH  24  27
HETATM   27  C   UNL     1      -5.744   5.978  64.916  1.00  0.00    -0.024 C  
BRANCH  27  28
HETATM   28  C   UNL     1      -6.548   5.967  63.606  1.00  0.00    -0.033 C  
HETATM   29  O   UNL     1      -6.536   4.666  63.029  1.00  0.00    -0.025 OA 
HETATM   30  H   UNL     1      -7.032   4.659  62.219  1.00  0.00     0.000 HD 
ENDBRANCH  27  28
ENDBRANCH  24  27
ENDBRANCH  20  21
ENDBRANCH  19  20
ENDBRANCH  18  19
ENDBRANCH  12  18
ENDBRANCH   2   4
TORSDOF 7
ENDMDL
MODEL      203
REMARK 921   NORMALIZED FREE ENERGY PREDICTED BY IDOCK:   -2.10 KCAL/MOL
REMARK 922        TOTAL FREE ENERGY PREDICTED BY IDOCK:   -3.72 KCAL/MOL
REMARK 923 INTER-LIGAND FREE ENERGY PREDICTED BY IDOCK:   -3.64 KCAL/MOL
REMARK 924 INTRA-LIGAND FREE ENERGY PREDICTED BY IDOCK:   -0.07 KCAL/MOL
REMARK 927      BINDING AFFINITY PREDICTED BY RF-SCORE:    0.00 PKD
ROOT
HETATM    1  C   UNL     1      -5.377   8.525  64.355  1.00  0.00    -0.044 C  
HETATM    2  C   UNL     1      -5.866   7.601  65.437  1.00  0.00    -0.038 C  
HETATM    3  O   UNL     1      -6.316   6.487  65.172  1.00  0.00    -0.036 OA 
ENDROOT
BRANCH   2   4
HETATM    4  C   UNL     1      -5.794   8.058  66.854  1.00  0.00    -0.048 A  
HETATM    5  C   UNL     1      -5.161   9.241  67.214  1.00  0.00    -0.036 A  
HETATM    6  C   UNL     1      -5.135   9.614  68.551  1.00  0.00    -0.033 A  
HETATM    7  C   UNL     1      -5.727   8.823  69.547  1.00  0.00    -0.034 A  
HETATM    8  S   UNL     1      -5.590   9.472  71.189  1.00  0.00    -0.069 SA 
HETATM    9  C   UNL     1      -6.421   8.250  72.164  1.00  0.00    -0.069 A  
HETATM   10  C   UNL     1      -7.011   7.080  71.631  1.00  0.00    -0.069 A  
HETATM   11  C   UNL     1      -7.631   6.235  72.580  1.00  0.00    -0.101 A  
HETATM   12  N   UNL     1      -6.967   6.789  70.232  1.00  0.00    -0.064 NA 
HETATM   13  C   UNL     1      -6.371   7.611  69.227  1.00  0.00    -0.035 A  
HETATM   14  C   UNL     1      -7.656   6.514  73.957  1.00  0.00    -0.086 A  
HETATM   15  C   UNL     1      -6.385   7.265  67.855  1.00  0.00    -0.048 A  
HETATM   16  C   UNL     1      -6.448   8.524  73.547  1.00  0.00    -0.107 A  
HETATM   17  C   UNL     1      -7.061   7.662  74.443  1.00  0.00    -0.139 A  
BRANCH  12  18
HETATM   18  C   UNL     1      -7.556   5.513  69.762  1.00  0.00    -0.074 C  
BRANCH  18  19
HETATM   19  C   UNL     1      -9.088   5.527  69.884  1.00  0.00    -0.159 C  
BRANCH  19  20
HETATM   20  C   UNL     1      -9.762   5.032  68.596  1.00  0.00    -0.158 C  
BRANCH  20  21
HETATM   21  N   UNL     1     -10.853   5.916  68.151  1.00  0.00    -0.266 NA 
HETATM   22  C   UNL     1     -11.165   6.966  69.138  1.00  0.00    -0.108 C  
HETATM   23  C   UNL     1     -10.073   8.046  69.246  1.00  0.00    -0.198 C  
HETATM   24  N   UNL     1      -9.842   8.760  67.975  1.00  0.00    -0.162 NA 
HETATM   25  C   UNL     1      -9.549   7.747  66.925  1.00  0.00    -0.198 C  
HETATM   26  C   UNL     1     -10.542   6.552  66.853  1.00  0.00    -0.305 C  
BRANCH  24  27
HETATM   27  C   UNL     1     -11.006   9.593  67.580  1.00  0.00    -0.124 C  
BRANCH  27  28
HETATM   28  C   UNL     1     -10.853  11.069  67.984  1.00  0.00    -0.229 C  
HETATM   29  O   UNL     1     -11.991  11.816  67.565  1.00  0.00    -0.607 OA 
HETATM   30  H   UNL     1     -11.896  12.729  67.814  1.00  0.00     0.000 HD 
ENDBRANCH  27  28
ENDBRANCH  24  27
ENDBRANCH  20  21
ENDBRANCH  19  20
ENDBRANCH  18  19
ENDBRANCH  12  18
ENDBRANCH   2   4
TORSDOF 7
ENDMDL
MODEL      204
REMARK 921   NORMALIZED FREE ENERGY PREDICTED BY IDOCK:   -2.08 KCAL/MOL
REMARK 922        TOTAL FREE ENERGY PREDICTED BY IDOCK:   -3.69 KCAL/MOL
REMARK 923 INTER-LIGAND FREE ENERGY PREDICTED BY IDOCK:   -3.88 KCAL/MOL
REMARK 924 INTRA-LIGAND FREE ENERGY PREDICTED BY IDOCK:    0.19 KCAL/MOL
REMARK 927      BINDING AFFINITY PREDICTED BY RF-SCORE:    0.00 PKD
ROOT
HETATM    1  C   UNL     1      -9.485   9.589  70.650  1.00  0.00    -0.277 C  
HETATM    2  C   UNL     1     -10.452   9.443  69.507  1.00  0.00    -0.218 C  
HETATM    3  O   UNL     1     -11.660   9.610  69.668  1.00  0.00    -0.088 OA 
ENDROOT
BRANCH   2   4
HETATM    4  C   UNL     1      -9.919   9.094  68.160  1.00  0.00    -0.206 A  
HETATM    5  C   UNL     1     -10.127   9.907  67.053  1.00  0.00    -0.275 A  
HETATM    6  C   UNL     1      -9.597   9.528  65.827  1.00  0.00    -0.337 A  
HETATM    7  C   UNL     1      -8.862   8.342  65.678  1.00  0.00    -0.156 A  
HETATM    8  S   UNL     1      -8.268   8.038  64.037  1.00  0.00     0.023 SA 
HETATM    9  C   UNL     1      -7.409   6.499  64.212  1.00  0.00    -0.073 A  
HETATM   10  C   UNL     1      -7.300   5.787  65.428  1.00  0.00    -0.076 A  
HETATM   11  C   UNL     1      -6.567   4.580  65.354  1.00  0.00    -0.044 A  
HETATM   12  N   UNL     1      -7.899   6.267  66.634  1.00  0.00    -0.103 NA 
HETATM   13  C   UNL     1      -8.635   7.484  66.773  1.00  0.00    -0.127 A  
HETATM   14  C   UNL     1      -5.995   4.101  64.164  1.00  0.00    -0.014 A  
HETATM   15  C   UNL     1      -9.183   7.905  68.009  1.00  0.00    -0.134 A  
HETATM   16  C   UNL     1      -6.835   6.013  63.019  1.00  0.00    -0.040 A  
HETATM   17  C   UNL     1      -6.131   4.818  62.991  1.00  0.00    -0.018 A  
BRANCH  12  18
HETATM   18  C   UNL     1      -7.790   5.432  67.854  1.00  0.00    -0.092 C  
BRANCH  18  19
HETATM   19  C   UNL     1      -9.029   4.541  68.033  1.00  0.00    -0.136 C  
BRANCH  19  20
HETATM   20  C   UNL     1      -8.889   3.617  69.252  1.00  0.00    -0.101 C  
BRANCH  20  21
HETATM   21  N   UNL     1      -8.561   4.353  70.485  1.00  0.00    -0.080 NA 
HETATM   22  C   UNL     1      -9.442   5.515  70.700  1.00  0.00    -0.165 C  
HETATM   23  C   UNL     1     -10.882   5.127  71.082  1.00  0.00     0.010 C  
HETATM   24  N   UNL     1     -10.955   4.346  72.333  1.00  0.00     0.019 NA 
HETATM   25  C   UNL     1     -10.058   3.167  72.191  1.00  0.00    -0.130 C  
HETATM   26  C   UNL     1      -8.624   3.475  71.674  1.00  0.00    -0.084 C  
BRANCH  24  27
HETATM   27  C   UNL     1     -10.568   5.150  73.520  1.00  0.00    -0.258 C  
BRANCH  27  28
HETATM   28  C   UNL     1     -10.153   6.587  73.164  1.00  0.00    -0.193 C  
HETATM   29  O   UNL     1     -10.826   7.519  74.005  1.00  0.00    -0.511 OA 
HETATM   30  H   UNL     1     -10.569   8.407  73.784  1.00  0.00     0.000 HD 
ENDBRANCH  27  28
ENDBRANCH  24  27
ENDBRANCH  20  21
ENDBRANCH  19  20
ENDBRANCH  18  19
ENDBRANCH  12  18
ENDBRANCH   2   4
TORSDOF 7
ENDMDL
MODEL      205
REMARK 921   NORMALIZED FREE ENERGY PREDICTED BY IDOCK:   -1.65 KCAL/MOL
REMARK 922        TOTAL FREE ENERGY PREDICTED BY IDOCK:   -3.08 KCAL/MOL
REMARK 923 INTER-LIGAND FREE ENERGY PREDICTED BY IDOCK:   -3.44 KCAL/MOL
REMARK 924 INTRA-LIGAND FREE ENERGY PREDICTED BY IDOCK:    0.37 KCAL/MOL
REMARK 927      BINDING AFFINITY PREDICTED BY RF-SCORE:    0.00 PKD
ROOT
HETATM    1  C   UNL     1      -7.370   9.993  64.527  1.00  0.00    -0.142 C  
HETATM    2  C   UNL     1      -7.845   9.240  65.740  1.00  0.00    -0.098 C  
HETATM    3  O   UNL     1      -8.756   9.672  66.444  1.00  0.00    -0.131 OA 
ENDROOT
BRANCH   2   4
HETATM    4  C   UNL     1      -7.189   7.946  66.079  1.00  0.00    -0.073 A  
HETATM    5  C   UNL     1      -6.123   7.446  65.342  1.00  0.00    -0.038 A  
HETATM    6  C   UNL     1      -5.551   6.236  65.715  1.00  0.00    -0.017 A  
HETATM    7  C   UNL     1      -6.026   5.506  66.814  1.00  0.00    -0.019 A  
HETATM    8  S   UNL     1      -5.162   3.992  67.129  1.00  0.00    -0.012 SA 
HETATM    9  C   UNL     1      -6.007   3.347  68.546  1.00  0.00    -0.024 A  
HETATM   10  C   UNL     1      -7.097   3.990  69.178  1.00  0.00    -0.047 A  
HETATM   11  C   UNL     1      -7.627   3.310  70.298  1.00  0.00    -0.044 A  
HETATM   12  N   UNL     1      -7.615   5.233  68.698  1.00  0.00    -0.081 NA 
HETATM   13  C   UNL     1      -7.111   5.972  67.584  1.00  0.00    -0.074 A  
HETATM   14  C   UNL     1      -7.128   2.078  70.756  1.00  0.00    -0.033 A  
HETATM   15  C   UNL     1      -7.665   7.211  67.180  1.00  0.00    -0.108 A  
HETATM   16  C   UNL     1      -5.512   2.111  69.008  1.00  0.00    -0.013 A  
HETATM   17  C   UNL     1      -6.068   1.475  70.107  1.00  0.00    -0.023 A  
BRANCH  12  18
HETATM   18  C   UNL     1      -8.797   5.811  69.379  1.00  0.00    -0.117 C  
BRANCH  18  19
HETATM   19  C   UNL     1      -8.382   6.674  70.581  1.00  0.00    -0.129 C  
BRANCH  19  20
HETATM   20  C   UNL     1      -9.423   6.613  71.708  1.00  0.00    -0.151 C  
BRANCH  20  21
HETATM   21  N   UNL     1     -10.090   7.906  71.934  1.00  0.00    -0.185 NA 
HETATM   22  C   UNL     1      -9.194   9.052  71.693  1.00  0.00    -0.153 C  
HETATM   23  C   UNL     1      -8.861   9.264  70.205  1.00  0.00    -0.224 C  
HETATM   24  N   UNL     1     -10.056   9.523  69.379  1.00  0.00    -0.187 NA 
HETATM   25  C   UNL     1     -11.018   8.410  69.601  1.00  0.00    -0.087 C  
HETATM   26  C   UNL     1     -11.296   8.052  71.088  1.00  0.00    -0.266 C  
BRANCH  24  27
HETATM   27  C   UNL     1     -10.690  10.826  69.700  1.00  0.00    -0.211 C  
BRANCH  27  28
HETATM   28  C   UNL     1     -12.045  11.025  69.002  1.00  0.00    -0.215 C  
HETATM   29  O   UNL     1     -11.871  11.722  67.772  1.00  0.00    -0.541 OA 
HETATM   30  H   UNL     1     -12.709  11.845  67.341  1.00  0.00     0.000 HD 
ENDBRANCH  27  28
ENDBRANCH  24  27
ENDBRANCH  20  21
ENDBRANCH  19  20
ENDBRANCH  18  19
ENDBRANCH  12  18
ENDBRANCH   2   4
TORSDOF 7
ENDMDL
MODEL      206
REMARK 921   NORMALIZED FREE ENERGY PREDICTED BY IDOCK:   -1.59 KCAL/MOL
REMARK 922        TOTAL FREE ENERGY PREDICTED BY IDOCK:   -3.00 KCAL/MOL
REMARK 923 INTER-LIGAND FREE ENERGY PREDICTED BY IDOCK:   -4.78 KCAL/MOL
REMARK 924 INTRA-LIGAND FREE ENERGY PREDICTED BY IDOCK:    1.77 KCAL/MOL
REMARK 927      BINDING AFFINITY PREDICTED BY RF-SCORE:    0.00 PKD
ROOT
HETATM    1  C   UNL     1      -9.888  15.117  67.473  1.00  0.00    -0.220 C  
HETATM    2  C   UNL     1     -10.437  13.716  67.486  1.00  0.00    -0.241 C  
HETATM    3  O   UNL     1     -11.156  13.320  68.402  1.00  0.00    -0.245 OA 
ENDROOT
BRANCH   2   4
HETATM    4  C   UNL     1     -10.095  12.805  66.356  1.00  0.00    -0.266 A  
HETATM    5  C   UNL     1     -10.566  13.023  65.068  1.00  0.00    -0.336 A  
HETATM    6  C   UNL     1     -10.205  12.140  64.058  1.00  0.00    -0.396 A  
HETATM    7  C   UNL     1      -9.381  11.033  64.309  1.00  0.00    -0.205 A  
HETATM    8  S   UNL     1      -9.032  10.031  62.891  1.00  0.00    -0.282 SA 
HETATM    9  C   UNL     1      -7.997   8.757  63.557  1.00  0.00    -0.158 A  
HETATM   10  C   UNL     1      -7.615   8.678  64.917  1.00  0.00    -0.100 A  
HETATM   11  C   UNL     1      -6.780   7.585  65.242  1.00  0.00    -0.044 A  
HETATM   12  N   UNL     1      -8.059   9.639  65.877  1.00  0.00    -0.111 NA 
HETATM   13  C   UNL     1      -8.889  10.771  65.604  1.00  0.00    -0.190 A  
HETATM   14  C   UNL     1      -6.361   6.631  64.300  1.00  0.00    -0.038 A  
HETATM   15  C   UNL     1      -9.271  11.694  66.606  1.00  0.00    -0.196 A  
HETATM   16  C   UNL     1      -7.575   7.796  62.616  1.00  0.00    -0.119 A  
HETATM   17  C   UNL     1      -6.762   6.734  62.982  1.00  0.00    -0.043 A  
BRANCH  12  18
HETATM   18  C   UNL     1      -7.664   9.452  67.293  1.00  0.00    -0.091 C  
BRANCH  18  19
HETATM   19  C   UNL     1      -6.279   8.795  67.403  1.00  0.00    -0.056 C  
BRANCH  19  20
HETATM   20  C   UNL     1      -5.917   8.481  68.862  1.00  0.00    -0.044 C  
BRANCH  20  21
HETATM   21  N   UNL     1      -6.521   7.223  69.337  1.00  0.00    -0.035 NA 
HETATM   22  C   UNL     1      -6.559   7.137  70.809  1.00  0.00    -0.048 C  
HETATM   23  C   UNL     1      -7.579   8.095  71.449  1.00  0.00    -0.083 C  
HETATM   24  N   UNL     1      -8.965   7.842  71.007  1.00  0.00    -0.141 NA 
HETATM   25  C   UNL     1      -8.988   7.886  69.520  1.00  0.00    -0.142 C  
HETATM   26  C   UNL     1      -7.891   7.044  68.808  1.00  0.00    -0.118 C  
BRANCH  24  27
HETATM   27  C   UNL     1      -9.479   6.537  71.493  1.00  0.00    -0.157 C  
BRANCH  27  28
HETATM   28  C   UNL     1     -11.011   6.429  71.419  1.00  0.00    -0.267 C  
HETATM   29  O   UNL     1     -11.426   6.197  70.077  1.00  0.00    -0.406 OA 
HETATM   30  H   UNL     1     -12.373   6.131  70.031  1.00  0.00     0.000 HD 
ENDBRANCH  27  28
ENDBRANCH  24  27
ENDBRANCH  20  21
ENDBRANCH  19  20
ENDBRANCH  18  19
ENDBRANCH  12  18
ENDBRANCH   2   4
TORSDOF 7
ENDMDL
MODEL      207
REMARK 921   NORMALIZED FREE ENERGY PREDICTED BY IDOCK:   -1.45 KCAL/MOL
REMARK 922        TOTAL FREE ENERGY PREDICTED BY IDOCK:   -2.80 KCAL/MOL
REMARK 923 INTER-LIGAND FREE ENERGY PREDICTED BY IDOCK:   -3.53 KCAL/MOL
REMARK 924 INTRA-LIGAND FREE ENERGY PREDICTED BY IDOCK:    0.73 KCAL/MOL
REMARK 927      BINDING AFFINITY PREDICTED BY RF-SCORE:    0.00 PKD
ROOT
HETATM    1  C   UNL     1      -5.981  11.069  68.486  1.00  0.00    -0.042 C  
HETATM    2  C   UNL     1      -7.331  10.428  68.307  1.00  0.00    -0.088 C  
HETATM    3  O   UNL     1      -8.265  10.686  69.064  1.00  0.00    -0.138 OA 
ENDROOT
BRANCH   2   4
HETATM    4  C   UNL     1      -7.523   9.469  67.183  1.00  0.00    -0.091 A  
HETATM    5  C   UNL     1      -7.547   9.883  65.858  1.00  0.00    -0.108 A  
HETATM    6  C   UNL     1      -7.723   8.936  64.857  1.00  0.00    -0.112 A  
HETATM    7  C   UNL     1      -7.881   7.574  65.152  1.00  0.00    -0.122 A  
HETATM    8  S   UNL     1      -8.089   6.527  63.738  1.00  0.00     0.050 SA 
HETATM    9  C   UNL     1      -8.259   4.921  64.463  1.00  0.00    -0.123 A  
HETATM   10  C   UNL     1      -8.220   4.672  65.855  1.00  0.00    -0.111 A  
HETATM   11  C   UNL     1      -8.371   3.316  66.227  1.00  0.00    -0.100 A  
HETATM   12  N   UNL     1      -8.046   5.729  66.801  1.00  0.00    -0.102 NA 
HETATM   13  C   UNL     1      -7.873   7.112  66.484  1.00  0.00    -0.106 A  
HETATM   14  C   UNL     1      -8.562   2.281  65.296  1.00  0.00    -0.112 A  
HETATM   15  C   UNL     1      -7.684   8.102  67.477  1.00  0.00    -0.102 A  
HETATM   16  C   UNL     1      -8.452   3.878  63.534  1.00  0.00    -0.094 A  
HETATM   17  C   UNL     1      -8.604   2.562  63.944  1.00  0.00    -0.086 A  
BRANCH  12  18
HETATM   18  C   UNL     1      -8.077   5.393  68.244  1.00  0.00    -0.095 C  
BRANCH  18  19
HETATM   19  C   UNL     1      -9.352   4.619  68.610  1.00  0.00    -0.193 C  
BRANCH  19  20
HETATM   20  C   UNL     1      -9.930   5.085  69.954  1.00  0.00    -0.251 C  
BRANCH  20  21
HETATM   21  N   UNL     1      -9.031   6.007  70.668  1.00  0.00    -0.145 NA 
HETATM   22  C   UNL     1      -9.514   7.400  70.640  1.00  0.00    -0.164 C  
HETATM   23  C   UNL     1     -10.761   7.631  71.513  1.00  0.00    -0.221 C  
HETATM   24  N   UNL     1     -10.530   7.326  72.939  1.00  0.00    -0.251 NA 
HETATM   25  C   UNL     1     -10.010   5.935  73.033  1.00  0.00    -0.175 C  
HETATM   26  C   UNL     1      -8.834   5.594  72.075  1.00  0.00    -0.138 C  
BRANCH  24  27
HETATM   27  C   UNL     1      -9.581   8.277  73.570  1.00  0.00     0.177 C  
BRANCH  27  28
HETATM   28  C   UNL     1      -8.148   7.726  73.659  1.00  0.00    -0.178 C  
HETATM   29  O   UNL     1      -7.229   8.639  73.068  1.00  0.00    -0.311 OA 
HETATM   30  H   UNL     1      -6.343   8.299  73.123  1.00  0.00     0.000 HD 
ENDBRANCH  27  28
ENDBRANCH  24  27
ENDBRANCH  20  21
ENDBRANCH  19  20
ENDBRANCH  18  19
ENDBRANCH  12  18
ENDBRANCH   2   4
TORSDOF 7
ENDMDL
MODEL      208
REMARK 921   NORMALIZED FREE ENERGY PREDICTED BY IDOCK:   -1.38 KCAL/MOL
REMARK 922        TOTAL FREE ENERGY PREDICTED BY IDOCK:   -2.71 KCAL/MOL
REMARK 923 INTER-LIGAND FREE ENERGY PREDICTED BY IDOCK:   -4.98 KCAL/MOL
REMARK 924 INTRA-LIGAND FREE ENERGY PREDICTED BY IDOCK:    2.28 KCAL/MOL
REMARK 927      BINDING AFFINITY PREDICTED BY RF-SCORE:    0.00 PKD
ROOT
HETATM    1  C   UNL     1      -8.950  16.590  68.730  1.00  0.00    -0.250 C  
HETATM    2  C   UNL     1      -9.252  15.173  69.133  1.00  0.00    -0.215 C  
HETATM    3  O   UNL     1     -10.303  14.880  69.700  1.00  0.00    -0.205 OA 
ENDROOT
BRANCH   2   4
HETATM    4  C   UNL     1      -8.248  14.114  68.828  1.00  0.00    -0.074 A  
HETATM    5  C   UNL     1      -6.884  14.372  68.825  1.00  0.00    -0.096 A  
HETATM    6  C   UNL     1      -6.000  13.339  68.539  1.00  0.00    -0.083 A  
HETATM    7  C   UNL     1      -6.453  12.044  68.250  1.00  0.00    -0.053 A  
HETATM    8  S   UNL     1      -5.171  10.867  67.917  1.00  0.00    -0.039 SA 
HETATM    9  C   UNL     1      -6.079   9.380  67.597  1.00  0.00    -0.053 A  
HETATM   10  C   UNL     1      -7.490   9.291  67.633  1.00  0.00    -0.088 A  
HETATM   11  C   UNL     1      -8.018   8.010  67.353  1.00  0.00    -0.122 A  
HETATM   12  N   UNL     1      -8.306  10.428  67.927  1.00  0.00    -0.113 NA 
HETATM   13  C   UNL     1      -7.830  11.740  68.233  1.00  0.00    -0.137 A  
HETATM   14  C   UNL     1      -7.215   6.899  67.045  1.00  0.00    -0.084 A  
HETATM   15  C   UNL     1      -8.700  12.814  68.535  1.00  0.00    -0.045 A  
HETATM   16  C   UNL     1      -5.278   8.262  67.287  1.00  0.00    -0.033 A  
HETATM   17  C   UNL     1      -5.840   7.025  67.010  1.00  0.00    -0.018 A  
BRANCH  12  18
HETATM   18  C   UNL     1      -9.778  10.265  67.886  1.00  0.00    -0.145 C  
BRANCH  18  19
HETATM   19  C   UNL     1     -10.446  11.425  67.130  1.00  0.00    -0.259 C  
BRANCH  19  20
HETATM   20  C   UNL     1     -10.533  11.141  65.623  1.00  0.00    -0.248 C  
BRANCH  20  21
HETATM   21  N   UNL     1     -11.144  12.252  64.872  1.00  0.00    -0.302 NA 
HETATM   22  C   UNL     1     -12.389  12.737  65.496  1.00  0.00    -0.434 C  
HETATM   23  C   UNL     1     -12.155  13.499  66.812  1.00  0.00    -0.375 C  
HETATM   24  N   UNL     1     -11.311  14.698  66.641  1.00  0.00    -0.350 NA 
HETATM   25  C   UNL     1     -10.043  14.278  65.985  1.00  0.00    -0.318 C  
HETATM   26  C   UNL     1     -10.207  13.386  64.722  1.00  0.00    -0.318 C  
BRANCH  24  27
HETATM   27  C   UNL     1     -11.985  15.749  65.838  1.00  0.00     0.896 C  
BRANCH  27  28
HETATM   28  C   UNL     1     -11.118  16.272  64.680  1.00  0.00    -0.246 C  
HETATM   29  O   UNL     1     -11.861  16.272  63.466  1.00  0.00    -1.174 OA 
HETATM   30  H   UNL     1     -11.325  16.594  62.751  1.00  0.00     0.000 HD 
ENDBRANCH  27  28
ENDBRANCH  24  27
ENDBRANCH  20  21
ENDBRANCH  19  20
ENDBRANCH  18  19
ENDBRANCH  12  18
ENDBRANCH   2   4
TORSDOF 7
ENDMDL
MODEL      209
REMARK 921   NORMALIZED FREE ENERGY PREDICTED BY IDOCK:   -1.25 KCAL/MOL
REMARK 922        TOTAL FREE ENERGY PREDICTED BY IDOCK:   -2.51 KCAL/MOL
REMARK 923 INTER-LIGAND FREE ENERGY PREDICTED BY IDOCK:   -2.36 KCAL/MOL
REMARK 924 INTRA-LIGAND FREE ENERGY PREDICTED BY IDOCK:   -0.15 KCAL/MOL
REMARK 927      BINDING AFFINITY PREDICTED BY RF-SCORE:    0.00 PKD
ROOT
HETATM    1  C   UNL     1      -5.756  13.056  67.120  1.00  0.00     0.298 C  
HETATM    2  C   UNL     1      -6.699  12.731  68.247  1.00  0.00    -0.087 C  
HETATM    3  O   UNL     1      -6.635  13.320  69.325  1.00  0.00    -0.106 OA 
ENDROOT
BRANCH   2   4
HETATM    4  C   UNL     1      -7.729  11.674  68.034  1.00  0.00    -0.121 A  
HETATM    5  C   UNL     1      -9.065  11.874  68.353  1.00  0.00    -0.167 A  
HETATM    6  C   UNL     1      -9.976  10.851  68.123  1.00  0.00    -0.188 A  
HETATM    7  C   UNL     1      -9.578   9.621  67.581  1.00  0.00    -0.142 A  
HETATM    8  S   UNL     1     -10.887   8.448  67.361  1.00  0.00     0.141 SA 
HETATM    9  C   UNL     1     -10.046   7.046  66.679  1.00  0.00    -0.148 A  
HETATM   10  C   UNL     1      -8.656   7.005  66.421  1.00  0.00    -0.135 A  
HETATM   11  C   UNL     1      -8.184   5.792  65.871  1.00  0.00    -0.121 A  
HETATM   12  N   UNL     1      -7.807   8.118  66.711  1.00  0.00    -0.094 NA 
HETATM   13  C   UNL     1      -8.230   9.372  67.251  1.00  0.00    -0.117 A  
HETATM   14  C   UNL     1      -9.017   4.693  65.605  1.00  0.00    -0.138 A  
HETATM   15  C   UNL     1      -7.331  10.439  67.492  1.00  0.00    -0.092 A  
HETATM   16  C   UNL     1     -10.878   5.939  66.412  1.00  0.00    -0.110 A  
HETATM   17  C   UNL     1     -10.369   4.765  65.879  1.00  0.00    -0.303 A  
BRANCH  12  18
HETATM   18  C   UNL     1      -6.352   7.974  66.468  1.00  0.00    -0.050 C  
BRANCH  18  19
HETATM   19  C   UNL     1      -5.692   7.096  67.542  1.00  0.00    -0.025 C  
BRANCH  19  20
HETATM   20  C   UNL     1      -6.393   7.240  68.900  1.00  0.00    -0.039 C  
BRANCH  20  21
HETATM   21  N   UNL     1      -5.445   7.280  70.027  1.00  0.00    -0.023 NA 
HETATM   22  C   UNL     1      -5.584   8.503  70.839  1.00  0.00    -0.032 C  
HETATM   23  C   UNL     1      -6.877   8.537  71.673  1.00  0.00    -0.081 C  
HETATM   24  N   UNL     1      -6.974   7.419  72.632  1.00  0.00    -0.067 NA 
HETATM   25  C   UNL     1      -6.811   6.148  71.874  1.00  0.00    -0.065 C  
HETATM   26  C   UNL     1      -5.596   6.099  70.905  1.00  0.00    -0.018 C  
BRANCH  24  27
HETATM   27  C   UNL     1      -5.957   7.513  73.709  1.00  0.00    -0.063 C  
BRANCH  27  28
HETATM   28  C   UNL     1      -5.807   8.936  74.272  1.00  0.00    -0.116 C  
HETATM   29  O   UNL     1      -7.086   9.489  74.566  1.00  0.00    -0.150 OA 
HETATM   30  H   UNL     1      -6.993  10.369  74.913  1.00  0.00     0.000 HD 
ENDBRANCH  27  28
ENDBRANCH  24  27
ENDBRANCH  20  21
ENDBRANCH  19  20
ENDBRANCH  18  19
ENDBRANCH  12  18
ENDBRANCH   2   4
TORSDOF 7
ENDMDL
MODEL      210
REMARK 921   NORMALIZED FREE ENERGY PREDICTED BY IDOCK:   -1.22 KCAL/MOL
REMARK 922        TOTAL FREE ENERGY PREDICTED BY IDOCK:   -2.47 KCAL/MOL
REMARK 923 INTER-LIGAND FREE ENERGY PREDICTED BY IDOCK:   -2.97 KCAL/MOL
REMARK 924 INTRA-LIGAND FREE ENERGY PREDICTED BY IDOCK:    0.50 KCAL/MOL
REMARK 927      BINDING AFFINITY PREDICTED BY RF-SCORE:    0.00 PKD
ROOT
HETATM    1  C   UNL     1      -6.336   9.139  67.008  1.00  0.00    -0.063 C  
HETATM    2  C   UNL     1      -7.337   8.704  68.044  1.00  0.00    -0.092 C  
HETATM    3  O   UNL     1      -8.375   9.335  68.235  1.00  0.00    -0.118 OA 
ENDROOT
BRANCH   2   4
HETATM    4  C   UNL     1      -7.050   7.479  68.843  1.00  0.00    -0.080 A  
HETATM    5  C   UNL     1      -5.767   6.961  68.961  1.00  0.00    -0.018 A  
HETATM    6  C   UNL     1      -5.566   5.820  69.727  1.00  0.00    -0.012 A  
HETATM    7  C   UNL     1      -6.627   5.177  70.381  1.00  0.00    -0.035 A  
HETATM    8  S   UNL     1      -6.165   3.742  71.311  1.00  0.00    -0.015 SA 
HETATM    9  C   UNL     1      -7.711   3.197  71.982  1.00  0.00    -0.054 A  
HETATM   10  C   UNL     1      -8.946   3.845  71.752  1.00  0.00    -0.110 A  
HETATM   11  C   UNL     1     -10.063   3.251  72.384  1.00  0.00    -0.226 A  
HETATM   12  N   UNL     1      -9.039   5.011  70.930  1.00  0.00    -0.139 NA 
HETATM   13  C   UNL     1      -7.946   5.664  70.281  1.00  0.00    -0.103 A  
HETATM   14  C   UNL     1      -9.972   2.094  73.175  1.00  0.00    -0.172 A  
HETATM   15  C   UNL     1      -8.113   6.831  69.498  1.00  0.00    -0.126 A  
HETATM   16  C   UNL     1      -7.626   2.034  72.775  1.00  0.00    -0.040 A  
HETATM   17  C   UNL     1      -8.749   1.481  73.370  1.00  0.00    -0.061 A  
BRANCH  12  18
HETATM   18  C   UNL     1     -10.379   5.597  70.690  1.00  0.00    -0.252 C  
BRANCH  18  19
HETATM   19  C   UNL     1     -10.775   6.566  71.815  1.00  0.00    -0.262 C  
BRANCH  19  20
HETATM   20  C   UNL     1     -12.292   6.566  72.053  1.00  0.00    -0.260 C  
BRANCH  20  21
HETATM   21  N   UNL     1     -12.889   7.904  71.902  1.00  0.00    -0.319 NA 
HETATM   22  C   UNL     1     -12.092   8.954  72.561  1.00  0.00    -0.196 C  
HETATM   23  C   UNL     1     -10.763   9.253  71.843  1.00  0.00    -0.139 C  
HETATM   24  N   UNL     1     -10.951   9.719  70.455  1.00  0.00    -0.297 NA 
HETATM   25  C   UNL     1     -11.779   8.710  69.740  1.00  0.00     0.519 C  
HETATM   26  C   UNL     1     -13.071   8.260  70.478  1.00  0.00     0.870 C  
BRANCH  24  27
HETATM   27  C   UNL     1     -11.596  11.055  70.394  1.00  0.00    -0.293 C  
BRANCH  27  28
HETATM   28  C   UNL     1     -11.316  11.799  69.077  1.00  0.00    -0.278 C  
HETATM   29  O   UNL     1     -12.283  11.446  68.094  1.00  0.00    -0.602 OA 
HETATM   30  H   UNL     1     -12.109  11.905  67.280  1.00  0.00     0.000 HD 
ENDBRANCH  27  28
ENDBRANCH  24  27
ENDBRANCH  20  21
ENDBRANCH  19  20
ENDBRANCH  18  19
ENDBRANCH  12  18
ENDBRANCH   2   4
TORSDOF 7
ENDMDL
MODEL      211
REMARK 921   NORMALIZED FREE ENERGY PREDICTED BY IDOCK:   -1.01 KCAL/MOL
REMARK 922        TOTAL FREE ENERGY PREDICTED BY IDOCK:   -2.18 KCAL/MOL
REMARK 923 INTER-LIGAND FREE ENERGY PREDICTED BY IDOCK:   -1.93 KCAL/MOL
REMARK 924 INTRA-LIGAND FREE ENERGY PREDICTED BY IDOCK:   -0.26 KCAL/MOL
REMARK 927      BINDING AFFINITY PREDICTED BY RF-SCORE:    0.00 PKD
ROOT
HETATM    1  C   UNL     1      -5.759   8.053  64.155  1.00  0.00    -0.052 C  
HETATM    2  C   UNL     1      -6.061   7.128  65.303  1.00  0.00    -0.037 C  
HETATM    3  O   UNL     1      -6.391   5.958  65.111  1.00  0.00    -0.035 OA 
ENDROOT
BRANCH   2   4
HETATM    4  C   UNL     1      -5.950   7.654  66.693  1.00  0.00    -0.040 A  
HETATM    5  C   UNL     1      -5.543   8.955  66.957  1.00  0.00    -0.041 A  
HETATM    6  C   UNL     1      -5.467   9.386  68.275  1.00  0.00    -0.037 A  
HETATM    7  C   UNL     1      -5.788   8.538  69.345  1.00  0.00    -0.030 A  
HETATM    8  S   UNL     1      -5.632   9.275  70.948  1.00  0.00    -0.049 SA 
HETATM    9  C   UNL     1      -6.099   7.954  72.032  1.00  0.00    -0.041 A  
HETATM   10  C   UNL     1      -6.484   6.667  71.592  1.00  0.00    -0.046 A  
HETATM   11  C   UNL     1      -6.823   5.758  72.620  1.00  0.00    -0.078 A  
HETATM   12  N   UNL     1      -6.513   6.327  70.204  1.00  0.00    -0.039 NA 
HETATM   13  C   UNL     1      -6.196   7.207  69.122  1.00  0.00    -0.035 A  
HETATM   14  C   UNL     1      -6.775   6.088  73.985  1.00  0.00    -0.080 A  
HETATM   15  C   UNL     1      -6.269   6.804  67.768  1.00  0.00    -0.040 A  
HETATM   16  C   UNL     1      -6.051   8.280  73.404  1.00  0.00    -0.102 A  
HETATM   17  C   UNL     1      -6.385   7.353  74.379  1.00  0.00    -0.082 A  
BRANCH  12  18
HETATM   18  C   UNL     1      -6.869   4.939  69.827  1.00  0.00    -0.052 C  
BRANCH  18  19
HETATM   19  C   UNL     1      -8.393   4.749  69.775  1.00  0.00    -0.078 C  
BRANCH  19  20
HETATM   20  C   UNL     1      -8.771   3.285  69.507  1.00  0.00    -0.078 C  
BRANCH  20  21
HETATM   21  N   UNL     1      -9.716   3.139  68.387  1.00  0.00    -0.035 NA 
HETATM   22  C   UNL     1      -9.624   4.251  67.423  1.00  0.00    -0.180 C  
HETATM   23  C   UNL     1      -8.330   4.230  66.589  1.00  0.00    -0.101 C  
HETATM   24  N   UNL     1      -8.185   3.002  65.783  1.00  0.00    -0.087 NA 
HETATM   25  C   UNL     1      -8.299   1.834  66.699  1.00  0.00    -0.089 C  
HETATM   26  C   UNL     1      -9.515   1.861  67.668  1.00  0.00    -0.044 C  
BRANCH  24  27
HETATM   27  C   UNL     1      -9.202   2.914  64.704  1.00  0.00    -0.144 C  
BRANCH  27  28
HETATM   28  C   UNL     1      -9.275   1.521  64.058  1.00  0.00    -0.113 C  
HETATM   29  O   UNL     1      -8.669   1.541  62.770  1.00  0.00    -0.064 OA 
HETATM   30  H   UNL     1      -8.714   0.680  62.370  1.00  0.00     0.000 HD 
ENDBRANCH  27  28
ENDBRANCH  24  27
ENDBRANCH  20  21
ENDBRANCH  19  20
ENDBRANCH  18  19
ENDBRANCH  12  18
ENDBRANCH   2   4
TORSDOF 7
ENDMDL
MODEL      212
REMARK 921   NORMALIZED FREE ENERGY PREDICTED BY IDOCK:   -0.89 KCAL/MOL
REMARK 922        TOTAL FREE ENERGY PREDICTED BY IDOCK:   -2.01 KCAL/MOL
REMARK 923 INTER-LIGAND FREE ENERGY PREDICTED BY IDOCK:   -1.98 KCAL/MOL
REMARK 924 INTRA-LIGAND FREE ENERGY PREDICTED BY IDOCK:   -0.03 KCAL/MOL
REMARK 927      BINDING AFFINITY PREDICTED BY RF-SCORE:    0.00 PKD
ROOT
HETATM    1  C   UNL     1      -8.158  10.642  63.601  1.00  0.00     0.031 C  
HETATM    2  C   UNL     1      -7.120   9.719  63.021  1.00  0.00    -0.114 C  
HETATM    3  O   UNL     1      -6.192  10.150  62.337  1.00  0.00    -0.107 OA 
ENDROOT
BRANCH   2   4
HETATM    4  C   UNL     1      -7.231   8.258  63.293  1.00  0.00    -0.093 A  
HETATM    5  C   UNL     1      -7.719   7.368  62.345  1.00  0.00    -0.118 A  
HETATM    6  C   UNL     1      -7.790   6.017  62.659  1.00  0.00    -0.096 A  
HETATM    7  C   UNL     1      -7.386   5.531  63.911  1.00  0.00    -0.054 A  
HETATM    8  S   UNL     1      -7.551   3.779  64.116  1.00  0.00    -0.076 SA 
HETATM    9  C   UNL     1      -6.969   3.522  65.768  1.00  0.00    -0.058 A  
HETATM   10  C   UNL     1      -6.509   4.557  66.615  1.00  0.00    -0.041 A  
HETATM   11  C   UNL     1      -6.083   4.139  67.897  1.00  0.00    -0.032 A  
HETATM   12  N   UNL     1      -6.492   5.922  66.190  1.00  0.00    -0.045 NA 
HETATM   13  C   UNL     1      -6.894   6.401  64.905  1.00  0.00    -0.050 A  
HETATM   14  C   UNL     1      -6.119   2.799  68.319  1.00  0.00    -0.025 A  
HETATM   15  C   UNL     1      -6.829   7.769  64.549  1.00  0.00    -0.058 A  
HETATM   16  C   UNL     1      -7.004   2.180  66.198  1.00  0.00    -0.044 A  
HETATM   17  C   UNL     1      -6.583   1.815  67.467  1.00  0.00    -0.028 A  
BRANCH  12  18
HETATM   18  C   UNL     1      -6.052   6.954  67.159  1.00  0.00    -0.029 C  
BRANCH  18  19
HETATM   19  C   UNL     1      -7.027   8.141  67.190  1.00  0.00    -0.075 C  
BRANCH  19  20
HETATM   20  C   UNL     1      -7.808   8.196  68.511  1.00  0.00    -0.118 C  
BRANCH  20  21
HETATM   21  N   UNL     1      -9.267   8.159  68.308  1.00  0.00    -0.135 NA 
HETATM   22  C   UNL     1     -10.013   8.615  69.496  1.00  0.00    -0.196 C  
HETATM   23  C   UNL     1      -9.891  10.129  69.748  1.00  0.00    -0.208 C  
HETATM   24  N   UNL     1     -10.404  10.942  68.628  1.00  0.00    -0.182 NA 
HETATM   25  C   UNL     1      -9.708  10.508  67.387  1.00  0.00    -0.164 C  
HETATM   26  C   UNL     1      -9.674   8.973  67.142  1.00  0.00    -0.181 C  
BRANCH  24  27
HETATM   27  C   UNL     1     -11.875  10.814  68.468  1.00  0.00    -0.096 C  
BRANCH  27  28
HETATM   28  C   UNL     1     -12.644  12.052  68.959  1.00  0.00     0.742 C  
HETATM   29  O   UNL     1     -12.116  13.231  68.360  1.00  0.00    -0.333 OA 
HETATM   30  H   UNL     1     -12.591  13.996  68.663  1.00  0.00     0.000 HD 
ENDBRANCH  27  28
ENDBRANCH  24  27
ENDBRANCH  20  21
ENDBRANCH  19  20
ENDBRANCH  18  19
ENDBRANCH  12  18
ENDBRANCH   2   4
TORSDOF 7
ENDMDL
MODEL      213
REMARK 921   NORMALIZED FREE ENERGY PREDICTED BY IDOCK:   -0.89 KCAL/MOL
REMARK 922        TOTAL FREE ENERGY PREDICTED BY IDOCK:   -2.01 KCAL/MOL
REMARK 923 INTER-LIGAND FREE ENERGY PREDICTED BY IDOCK:   -3.03 KCAL/MOL
REMARK 924 INTRA-LIGAND FREE ENERGY PREDICTED BY IDOCK:    1.02 KCAL/MOL
REMARK 927      BINDING AFFINITY PREDICTED BY RF-SCORE:    0.00 PKD
ROOT
HETATM    1  C   UNL     1      -9.656   2.459  69.387  1.00  0.00    -0.039 C  
HETATM    2  C   UNL     1      -9.083   2.663  70.763  1.00  0.00    -0.118 C  
HETATM    3  O   UNL     1      -9.025   1.740  71.574  1.00  0.00    -0.065 OA 
ENDROOT
BRANCH   2   4
HETATM    4  C   UNL     1      -8.575   4.014  71.133  1.00  0.00    -0.110 A  
HETATM    5  C   UNL     1      -8.291   4.359  72.448  1.00  0.00    -0.109 A  
HETATM    6  C   UNL     1      -7.813   5.633  72.725  1.00  0.00    -0.102 A  
HETATM    7  C   UNL     1      -7.616   6.581  71.710  1.00  0.00    -0.094 A  
HETATM    8  S   UNL     1      -6.998   8.146  72.266  1.00  0.00    -0.093 SA 
HETATM    9  C   UNL     1      -6.875   9.074  70.762  1.00  0.00    -0.075 A  
HETATM   10  C   UNL     1      -7.220   8.566  69.488  1.00  0.00    -0.060 A  
HETATM   11  C   UNL     1      -7.044   9.469  68.415  1.00  0.00    -0.071 A  
HETATM   12  N   UNL     1      -7.717   7.236  69.321  1.00  0.00    -0.105 NA 
HETATM   13  C   UNL     1      -7.900   6.276  70.363  1.00  0.00    -0.107 A  
HETATM   14  C   UNL     1      -6.574  10.782  68.584  1.00  0.00    -0.056 A  
HETATM   15  C   UNL     1      -8.378   4.967  70.117  1.00  0.00    -0.081 A  
HETATM   16  C   UNL     1      -6.405  10.393  70.927  1.00  0.00     0.078 A  
HETATM   17  C   UNL     1      -6.255  11.247  69.845  1.00  0.00    -0.137 A  
BRANCH  12  18
HETATM   18  C   UNL     1      -8.113   6.800  67.961  1.00  0.00    -0.114 C  
BRANCH  18  19
HETATM   19  C   UNL     1      -6.888   6.402  67.123  1.00  0.00    -0.066 C  
BRANCH  19  20
HETATM   20  C   UNL     1      -6.522   7.490  66.104  1.00  0.00    -0.045 C  
BRANCH  20  21
HETATM   21  N   UNL     1      -7.463   7.543  64.971  1.00  0.00    -0.078 NA 
HETATM   22  C   UNL     1      -8.837   7.868  65.394  1.00  0.00     0.021 C  
HETATM   23  C   UNL     1      -9.005   9.327  65.855  1.00  0.00    -0.184 C  
HETATM   24  N   UNL     1      -8.681  10.306  64.798  1.00  0.00    -0.177 NA 
HETATM   25  C   UNL     1      -7.308  10.011  64.305  1.00  0.00    -0.133 C  
HETATM   26  C   UNL     1      -7.029   8.523  63.951  1.00  0.00    -0.083 C  
BRANCH  24  27
HETATM   27  C   UNL     1      -9.653  10.264  63.676  1.00  0.00    -0.277 C  
BRANCH  27  28
HETATM   28  C   UNL     1      -9.045  10.706  62.335  1.00  0.00    -0.286 C  
HETATM   29  O   UNL     1      -8.606  12.058  62.413  1.00  0.00    -0.259 OA 
HETATM   30  H   UNL     1      -8.230  12.332  61.584  1.00  0.00     0.000 HD 
ENDBRANCH  27  28
ENDBRANCH  24  27
ENDBRANCH  20  21
ENDBRANCH  19  20
ENDBRANCH  18  19
ENDBRANCH  12  18
ENDBRANCH   2   4
TORSDOF 7
ENDMDL
MODEL      214
REMARK 921   NORMALIZED FREE ENERGY PREDICTED BY IDOCK:   -0.73 KCAL/MOL
REMARK 922        TOTAL FREE ENERGY PREDICTED BY IDOCK:   -1.78 KCAL/MOL
REMARK 923 INTER-LIGAND FREE ENERGY PREDICTED BY IDOCK:   -2.15 KCAL/MOL
REMARK 924 INTRA-LIGAND FREE ENERGY PREDICTED BY IDOCK:    0.37 KCAL/MOL
REMARK 927      BINDING AFFINITY PREDICTED BY RF-SCORE:    0.00 PKD
ROOT
HETATM    1  C   UNL     1      -8.281  11.177  63.597  1.00  0.00     0.447 C  
HETATM    2  C   UNL     1      -8.908  10.325  64.666  1.00  0.00    -0.199 C  
HETATM    3  O   UNL     1      -9.763  10.778  65.426  1.00  0.00    -0.213 OA 
ENDROOT
BRANCH   2   4
HETATM    4  C   UNL     1      -8.477   8.904  64.792  1.00  0.00    -0.193 A  
HETATM    5  C   UNL     1      -7.508   8.353  63.964  1.00  0.00    -0.111 A  
HETATM    6  C   UNL     1      -7.145   7.023  64.138  1.00  0.00    -0.063 A  
HETATM    7  C   UNL     1      -7.737   6.223  65.126  1.00  0.00    -0.099 A  
HETATM    8  S   UNL     1      -7.137   4.558  65.191  1.00  0.00    -0.064 SA 
HETATM    9  C   UNL     1      -8.079   3.854  66.514  1.00  0.00    -0.097 A  
HETATM   10  C   UNL     1      -9.048   4.563  67.261  1.00  0.00    -0.127 A  
HETATM   11  C   UNL     1      -9.685   3.818  68.279  1.00  0.00    -0.099 A  
HETATM   12  N   UNL     1      -9.352   5.933  66.985  1.00  0.00    -0.118 NA 
HETATM   13  C   UNL     1      -8.731   6.740  65.982  1.00  0.00    -0.146 A  
HETATM   14  C   UNL     1      -9.399   2.466  68.536  1.00  0.00    -0.252 A  
HETATM   15  C   UNL     1      -9.070   8.099  65.782  1.00  0.00    -0.139 A  
HETATM   16  C   UNL     1      -7.796   2.497  66.775  1.00  0.00    -0.072 A  
HETATM   17  C   UNL     1      -8.453   1.802  67.780  1.00  0.00    -0.089 A  
BRANCH  12  18
HETATM   18  C   UNL     1     -10.423   6.587  67.773  1.00  0.00    -0.227 C  
BRANCH  18  19
HETATM   19  C   UNL     1      -9.967   6.860  69.215  1.00  0.00    -0.164 C  
BRANCH  19  20
HETATM   20  C   UNL     1     -11.088   7.494  70.051  1.00  0.00    -0.204 C  
BRANCH  20  21
HETATM   21  N   UNL     1     -10.662   8.734  70.722  1.00  0.00    -0.217 NA 
HETATM   22  C   UNL     1      -9.246   8.695  71.134  1.00  0.00    -0.213 C  
HETATM   23  C   UNL     1      -8.265   8.767  69.951  1.00  0.00    -0.118 C  
HETATM   24  N   UNL     1      -8.407  10.006  69.160  1.00  0.00    -0.134 NA 
HETATM   25  C   UNL     1      -9.829  10.120  68.736  1.00  0.00    -0.175 C  
HETATM   26  C   UNL     1     -10.881   9.919  69.864  1.00  0.00    -0.278 C  
BRANCH  24  27
HETATM   27  C   UNL     1      -7.996  11.210  69.925  1.00  0.00     0.845 C  
BRANCH  27  28
HETATM   28  C   UNL     1      -8.323  12.525  69.197  1.00  0.00     0.595 C  
HETATM   29  O   UNL     1      -7.155  13.330  69.081  1.00  0.00    -0.227 OA 
HETATM   30  H   UNL     1      -7.357  14.143  68.632  1.00  0.00     0.000 HD 
ENDBRANCH  27  28
ENDBRANCH  24  27
ENDBRANCH  20  21
ENDBRANCH  19  20
ENDBRANCH  18  19
ENDBRANCH  12  18
ENDBRANCH   2   4
TORSDOF 7
ENDMDL
MODEL      215
REMARK 921   NORMALIZED FREE ENERGY PREDICTED BY IDOCK:   -0.67 KCAL/MOL
REMARK 922        TOTAL FREE ENERGY PREDICTED BY IDOCK:   -1.71 KCAL/MOL
REMARK 923 INTER-LIGAND FREE ENERGY PREDICTED BY IDOCK:   -5.13 KCAL/MOL
REMARK 924 INTRA-LIGAND FREE ENERGY PREDICTED BY IDOCK:    3.43 KCAL/MOL
REMARK 927      BINDING AFFINITY PREDICTED BY RF-SCORE:    0.00 PKD
ROOT
HETATM    1  C   UNL     1     -11.690  13.856  65.031  1.00  0.00    -0.365 C  
HETATM    2  C   UNL     1     -11.212  13.217  66.306  1.00  0.00    -0.301 C  
HETATM    3  O   UNL     1     -11.848  12.312  66.845  1.00  0.00    -0.524 OA 
ENDROOT
BRANCH   2   4
HETATM    4  C   UNL     1      -9.939  13.698  66.913  1.00  0.00    -0.260 A  
HETATM    5  C   UNL     1      -8.831  12.873  67.049  1.00  0.00    -0.208 A  
HETATM    6  C   UNL     1      -7.671  13.386  67.617  1.00  0.00    -0.179 A  
HETATM    7  C   UNL     1      -7.595  14.714  68.060  1.00  0.00    -0.128 A  
HETATM    8  S   UNL     1      -6.031  15.178  68.750  1.00  0.00    -0.090 SA 
HETATM    9  C   UNL     1      -6.287  16.872  69.196  1.00  0.00    -0.204 A  
HETATM   10  C   UNL     1      -7.501  17.569  68.994  1.00  0.00    -0.179 A  
HETATM   11  C   UNL     1      -7.496  18.918  69.416  1.00  0.00    -0.043 A  
HETATM   12  N   UNL     1      -8.641  16.935  68.409  1.00  0.00    -0.231 NA 
HETATM   13  C   UNL     1      -8.700  15.583  67.950  1.00  0.00    -0.163 A  
HETATM   14  C   UNL     1      -6.381  19.534  70.008  1.00  0.00    -0.285 A  
HETATM   15  C   UNL     1      -9.861  15.030  67.360  1.00  0.00    -0.224 A  
HETATM   16  C   UNL     1      -5.171  17.495  69.792  1.00  0.00    -0.191 A  
HETATM   17  C   UNL     1      -5.214  18.819  70.200  1.00  0.00    -0.211 A  
BRANCH  12  18
HETATM   18  C   UNL     1      -9.894  17.717  68.286  1.00  0.00    -0.324 C  
BRANCH  18  19
HETATM   19  C   UNL     1     -10.996  16.900  67.593  1.00  0.00    -0.165 C  
BRANCH  19  20
HETATM   20  C   UNL     1     -12.117  16.520  68.570  1.00  0.00     0.752 C  
BRANCH  20  21
HETATM   21  N   UNL     1     -11.612  16.204  69.917  1.00  0.00    -0.292 NA 
HETATM   22  C   UNL     1     -12.635  16.397  70.962  1.00  0.00     1.049 C  
HETATM   23  C   UNL     1     -13.755  15.342  70.923  1.00  0.00    -0.293 C  
HETATM   24  N   UNL     1     -13.256  13.965  71.113  1.00  0.00    -0.279 NA 
HETATM   25  C   UNL     1     -12.194  13.716  70.101  1.00  0.00    -0.342 C  
HETATM   26  C   UNL     1     -11.101  14.817  69.994  1.00  0.00    -0.204 C  
BRANCH  24  27
HETATM   27  C   UNL     1     -12.727  13.744  72.483  1.00  0.00    -0.136 C  
BRANCH  27  28
HETATM   28  C   UNL     1     -12.654  15.035  73.315  1.00  0.00    -0.485 C  
HETATM   29  O   UNL     1     -11.845  14.834  74.469  1.00  0.00    -0.625 OA 
HETATM   30  H   UNL     1     -11.800  15.632  74.984  1.00  0.00     0.000 HD 
ENDBRANCH  27  28
ENDBRANCH  24  27
ENDBRANCH  20  21
ENDBRANCH  19  20
ENDBRANCH  18  19
ENDBRANCH  12  18
ENDBRANCH   2   4
TORSDOF 7
ENDMDL
MODEL      216
REMARK 921   NORMALIZED FREE ENERGY PREDICTED BY IDOCK:    0.04 KCAL/MOL
REMARK 922        TOTAL FREE ENERGY PREDICTED BY IDOCK:   -0.71 KCAL/MOL
REMARK 923 INTER-LIGAND FREE ENERGY PREDICTED BY IDOCK:   -0.92 KCAL/MOL
REMARK 924 INTRA-LIGAND FREE ENERGY PREDICTED BY IDOCK:    0.21 KCAL/MOL
REMARK 927      BINDING AFFINITY PREDICTED BY RF-SCORE:    0.00 PKD
ROOT
HETATM    1  C   UNL     1     -14.161   8.206  71.008  1.00  0.00    -0.101 C  
HETATM    2  C   UNL     1     -13.298   7.325  71.870  1.00  0.00    -0.223 C  
HETATM    3  O   UNL     1     -13.561   7.137  73.056  1.00  0.00     1.317 OA 
ENDROOT
BRANCH   2   4
HETATM    4  C   UNL     1     -12.106   6.673  71.257  1.00  0.00    -0.395 A  
HETATM    5  C   UNL     1     -12.021   5.296  71.098  1.00  0.00     1.810 A  
HETATM    6  C   UNL     1     -10.885   4.752  70.512  1.00  0.00     0.530 A  
HETATM    7  C   UNL     1      -9.821   5.558  70.082  1.00  0.00    -0.198 A  
HETATM    8  S   UNL     1      -8.466   4.676  69.359  1.00  0.00    -0.082 SA 
HETATM    9  C   UNL     1      -7.332   5.971  68.945  1.00  0.00    -0.085 A  
HETATM   10  C   UNL     1      -7.574   7.343  69.188  1.00  0.00    -0.105 A  
HETATM   11  C   UNL     1      -6.542   8.217  68.778  1.00  0.00    -0.054 A  
HETATM   12  N   UNL     1      -8.780   7.792  69.813  1.00  0.00    -0.138 NA 
HETATM   13  C   UNL     1      -9.862   6.959  70.234  1.00  0.00    -0.178 A  
HETATM   14  C   UNL     1      -5.350   7.772  68.182  1.00  0.00    -0.031 A  
HETATM   15  C   UNL     1     -11.037   7.480  70.827  1.00  0.00    -0.280 A  
HETATM   16  C   UNL     1      -6.134   5.530  68.348  1.00  0.00    -0.022 A  
HETATM   17  C   UNL     1      -5.143   6.423  67.968  1.00  0.00    -0.004 A  
BRANCH  12  18
HETATM   18  C   UNL     1      -8.931   9.241  70.088  1.00  0.00    -0.214 C  
BRANCH  18  19
HETATM   19  C   UNL     1     -10.040   9.860  69.222  1.00  0.00    -0.214 C  
BRANCH  19  20
HETATM   20  C   UNL     1      -9.676   9.829  67.731  1.00  0.00    -0.141 C  
BRANCH  20  21
HETATM   21  N   UNL     1     -10.404  10.843  66.949  1.00  0.00    -0.228 NA 
HETATM   22  C   UNL     1     -11.168  11.772  67.803  1.00  0.00    -0.266 C  
HETATM   23  C   UNL     1     -10.276  12.744  68.597  1.00  0.00    -0.152 C  
HETATM   24  N   UNL     1      -9.446  13.603  67.730  1.00  0.00    -0.213 NA 
HETATM   25  C   UNL     1      -8.668  12.721  66.818  1.00  0.00    -0.121 C  
HETATM   26  C   UNL     1      -9.491  11.623  66.086  1.00  0.00    -0.224 C  
BRANCH  24  27
HETATM   27  C   UNL     1     -10.262  14.565  66.947  1.00  0.00    -0.264 C  
BRANCH  27  28
HETATM   28  C   UNL     1     -11.380  15.220  67.775  1.00  0.00    -0.326 C  
HETATM   29  O   UNL     1     -11.128  16.612  67.935  1.00  0.00    -0.315 OA 
HETATM   30  H   UNL     1     -11.818  17.016  68.447  1.00  0.00     0.000 HD 
ENDBRANCH  27  28
ENDBRANCH  24  27
ENDBRANCH  20  21
ENDBRANCH  19  20
ENDBRANCH  18  19
ENDBRANCH  12  18
ENDBRANCH   2   4
TORSDOF 7
ENDMDL
MODEL      217
REMARK 921   NORMALIZED FREE ENERGY PREDICTED BY IDOCK:    0.35 KCAL/MOL
REMARK 922        TOTAL FREE ENERGY PREDICTED BY IDOCK:   -0.26 KCAL/MOL
REMARK 923 INTER-LIGAND FREE ENERGY PREDICTED BY IDOCK:    0.26 KCAL/MOL
REMARK 924 INTRA-LIGAND FREE ENERGY PREDICTED BY IDOCK:   -0.52 KCAL/MOL
REMARK 927      BINDING AFFINITY PREDICTED BY RF-SCORE:    0.00 PKD
ROOT
HETATM    1  C   UNL     1      -6.761  14.397  70.238  1.00  0.00    -0.005 C  
HETATM    2  C   UNL     1      -7.930  15.332  70.087  1.00  0.00     0.470 C  
HETATM    3  O   UNL     1      -8.279  16.072  71.006  1.00  0.00     3.050 OA 
ENDROOT
BRANCH   2   4
HETATM    4  C   UNL     1      -8.667  15.353  68.791  1.00  0.00    -0.195 A  
HETATM    5  C   UNL     1      -8.877  16.529  68.083  1.00  0.00    -0.203 A  
HETATM    6  C   UNL     1      -9.565  16.478  66.878  1.00  0.00    -0.253 A  
HETATM    7  C   UNL     1     -10.056  15.270  66.361  1.00  0.00    -0.274 A  
HETATM    8  S   UNL     1     -10.901  15.415  64.811  1.00  0.00    -0.275 SA 
HETATM    9  C   UNL     1     -11.376  13.743  64.468  1.00  0.00    -0.380 A  
HETATM   10  C   UNL     1     -11.086  12.648  65.314  1.00  0.00    -0.295 A  
HETATM   11  C   UNL     1     -11.550  11.395  64.854  1.00  0.00     0.052 A  
HETATM   12  N   UNL     1     -10.379  12.819  66.545  1.00  0.00    -0.248 NA 
HETATM   13  C   UNL     1      -9.873  14.055  67.052  1.00  0.00    -0.260 A  
HETATM   14  C   UNL     1     -12.261  11.232  63.653  1.00  0.00     0.417 A  
HETATM   15  C   UNL     1      -9.162  14.142  68.273  1.00  0.00    -0.198 A  
HETATM   16  C   UNL     1     -12.092  13.575  63.264  1.00  0.00    -0.223 A  
HETATM   17  C   UNL     1     -12.536  12.327  62.856  1.00  0.00     0.195 A  
BRANCH  12  18
HETATM   18  C   UNL     1     -10.167  11.630  67.404  1.00  0.00    -0.203 C  
BRANCH  18  19
HETATM   19  C   UNL     1      -8.751  11.060  67.228  1.00  0.00    -0.129 C  
BRANCH  19  20
HETATM   20  C   UNL     1      -8.777   9.673  66.569  1.00  0.00    -0.134 C  
BRANCH  20  21
HETATM   21  N   UNL     1      -7.457   9.262  66.061  1.00  0.00    -0.094 NA 
HETATM   22  C   UNL     1      -6.669   8.528  67.068  1.00  0.00    -0.062 C  
HETATM   23  C   UNL     1      -7.212   7.118  67.359  1.00  0.00    -0.090 C  
HETATM   24  N   UNL     1      -7.227   6.249  66.166  1.00  0.00    -0.074 NA 
HETATM   25  C   UNL     1      -7.988   6.949  65.097  1.00  0.00    -0.125 C  
HETATM   26  C   UNL     1      -7.580   8.428  64.844  1.00  0.00    -0.100 C  
BRANCH  24  27
HETATM   27  C   UNL     1      -5.858   5.918  65.695  1.00  0.00    -0.024 C  
BRANCH  27  28
HETATM   28  C   UNL     1      -5.714   4.455  65.244  1.00  0.00    -0.018 C  
HETATM   29  O   UNL     1      -6.964   3.781  65.345  1.00  0.00    -0.058 OA 
HETATM   30  H   UNL     1      -6.875   2.877  65.066  1.00  0.00     0.000 HD 
ENDBRANCH  27  28
ENDBRANCH  24  27
ENDBRANCH  20  21
ENDBRANCH  19  20
ENDBRANCH  18  19
ENDBRANCH  12  18
ENDBRANCH   2   4
TORSDOF 7
ENDMDL
MODEL      218
REMARK 921   NORMALIZED FREE ENERGY PREDICTED BY IDOCK:    0.39 KCAL/MOL
REMARK 922        TOTAL FREE ENERGY PREDICTED BY IDOCK:   -0.20 KCAL/MOL
REMARK 923 INTER-LIGAND FREE ENERGY PREDICTED BY IDOCK:    0.30 KCAL/MOL
REMARK 924 INTRA-LIGAND FREE ENERGY PREDICTED BY IDOCK:   -0.51 KCAL/MOL
REMARK 927      BINDING AFFINITY PREDICTED BY RF-SCORE:    0.00 PKD
ROOT
HETATM    1  C   UNL     1      -6.756  14.396  70.227  1.00  0.00    -0.005 C  
HETATM    2  C   UNL     1      -7.915  15.347  70.101  1.00  0.00     0.502 C  
HETATM    3  O   UNL     1      -8.236  16.090  71.027  1.00  0.00     3.050 OA 
ENDROOT
BRANCH   2   4
HETATM    4  C   UNL     1      -8.677  15.378  68.820  1.00  0.00    -0.195 A  
HETATM    5  C   UNL     1      -8.877  16.556  68.111  1.00  0.00    -0.203 A  
HETATM    6  C   UNL     1      -9.590  16.516  66.920  1.00  0.00    -0.253 A  
HETATM    7  C   UNL     1     -10.117  15.316  66.419  1.00  0.00    -0.274 A  
HETATM    8  S   UNL     1     -10.990  15.473  64.886  1.00  0.00    -0.386 SA 
HETATM    9  C   UNL     1     -11.508  13.811  64.559  1.00  0.00    -0.384 A  
HETATM   10  C   UNL     1     -11.224  12.713  65.403  1.00  0.00    -0.299 A  
HETATM   11  C   UNL     1     -11.724  11.468  64.958  1.00  0.00     0.050 A  
HETATM   12  N   UNL     1     -10.489  12.873  66.619  1.00  0.00    -0.260 NA 
HETATM   13  C   UNL     1      -9.946  14.100  67.111  1.00  0.00    -0.255 A  
HETATM   14  C   UNL     1     -12.463  11.317  63.772  1.00  0.00     0.596 A  
HETATM   15  C   UNL     1      -9.208  14.177  68.317  1.00  0.00    -0.198 A  
HETATM   16  C   UNL     1     -12.251  13.654  63.371  1.00  0.00    -0.236 A  
HETATM   17  C   UNL     1     -12.730  12.414  62.977  1.00  0.00     0.097 A  
BRANCH  12  18
HETATM   18  C   UNL     1     -10.285  11.683  67.478  1.00  0.00    -0.195 C  
BRANCH  18  19
HETATM   19  C   UNL     1      -8.886  11.080  67.273  1.00  0.00    -0.135 C  
BRANCH  19  20
HETATM   20  C   UNL     1      -8.545  10.059  68.368  1.00  0.00    -0.113 C  
BRANCH  20  21
HETATM   21  N   UNL     1      -8.413   8.689  67.844  1.00  0.00    -0.129 NA 
HETATM   22  C   UNL     1      -7.033   8.375  67.428  1.00  0.00    -0.071 C  
HETATM   23  C   UNL     1      -6.059   8.225  68.611  1.00  0.00    -0.045 C  
HETATM   24  N   UNL     1      -6.442   7.144  69.539  1.00  0.00    -0.039 NA 
HETATM   25  C   UNL     1      -7.844   7.387  69.975  1.00  0.00    -0.104 C  
HETATM   26  C   UNL     1      -8.857   7.683  68.834  1.00  0.00    -0.135 C  
BRANCH  24  27
HETATM   27  C   UNL     1      -6.319   5.801  68.918  1.00  0.00    -0.037 C  
BRANCH  27  28
HETATM   28  C   UNL     1      -5.738   4.746  69.874  1.00  0.00    -0.013 C  
HETATM   29  O   UNL     1      -6.386   3.493  69.680  1.00  0.00    -0.027 OA 
HETATM   30  H   UNL     1      -6.027   2.841  70.272  1.00  0.00     0.000 HD 
ENDBRANCH  27  28
ENDBRANCH  24  27
ENDBRANCH  20  21
ENDBRANCH  19  20
ENDBRANCH  18  19
ENDBRANCH  12  18
ENDBRANCH   2   4
TORSDOF 7
ENDMDL
MODEL      219
REMARK 921   NORMALIZED FREE ENERGY PREDICTED BY IDOCK:    1.37 KCAL/MOL
REMARK 922        TOTAL FREE ENERGY PREDICTED BY IDOCK:    1.18 KCAL/MOL
REMARK 923 INTER-LIGAND FREE ENERGY PREDICTED BY IDOCK:   -1.30 KCAL/MOL
REMARK 924 INTRA-LIGAND FREE ENERGY PREDICTED BY IDOCK:    2.48 KCAL/MOL
REMARK 927      BINDING AFFINITY PREDICTED BY RF-SCORE:    0.00 PKD
ROOT
HETATM    1  C   UNL     1      -5.127  12.901  67.895  1.00  0.00    -0.101 C  
HETATM    2  C   UNL     1      -6.415  13.546  68.330  1.00  0.00    -0.094 C  
HETATM    3  O   UNL     1      -7.268  12.914  68.952  1.00  0.00    -0.100 OA 
ENDROOT
BRANCH   2   4
HETATM    4  C   UNL     1      -6.643  14.980  67.997  1.00  0.00    -0.156 A  
HETATM    5  C   UNL     1      -5.664  15.946  68.189  1.00  0.00    -0.122 A  
HETATM    6  C   UNL     1      -5.938  17.265  67.852  1.00  0.00    -0.134 A  
HETATM    7  C   UNL     1      -7.181  17.645  67.325  1.00  0.00    -0.181 A  
HETATM    8  S   UNL     1      -7.333  19.371  66.955  1.00  0.00    -0.216 SA 
HETATM    9  C   UNL     1      -8.986  19.492  66.330  1.00  0.00    -0.364 A  
HETATM   10  C   UNL     1      -9.868  18.394  66.207  1.00  0.00    -0.331 A  
HETATM   11  C   UNL     1     -11.143  18.705  65.680  1.00  0.00     0.428 A  
HETATM   12  N   UNL     1      -9.483  17.075  66.600  1.00  0.00    -0.252 NA 
HETATM   13  C   UNL     1      -8.207  16.700  67.123  1.00  0.00    -0.179 A  
HETATM   14  C   UNL     1     -11.526  20.005  65.312  1.00  0.00     1.127 A  
HETATM   15  C   UNL     1      -7.890  15.365  67.471  1.00  0.00    -0.193 A  
HETATM   16  C   UNL     1      -9.376  20.796  65.960  1.00  0.00     0.413 A  
HETATM   17  C   UNL     1     -10.641  21.056  65.455  1.00  0.00     2.023 A  
BRANCH  12  18
HETATM   18  C   UNL     1     -10.486  15.989  66.496  1.00  0.00    -0.302 C  
BRANCH  18  19
HETATM   19  C   UNL     1     -10.667  15.535  65.039  1.00  0.00    -0.463 C  
BRANCH  19  20
HETATM   20  C   UNL     1     -10.155  14.103  64.827  1.00  0.00    -0.165 C  
BRANCH  20  21
HETATM   21  N   UNL     1      -9.725  13.463  66.082  1.00  0.00    -0.275 NA 
HETATM   22  C   UNL     1     -10.580  13.833  67.225  1.00  0.00    -0.275 C  
HETATM   23  C   UNL     1     -11.985  13.209  67.163  1.00  0.00    -0.341 C  
HETATM   24  N   UNL     1     -11.961  11.733  67.154  1.00  0.00    -0.595 NA 
HETATM   25  C   UNL     1     -11.086  11.294  66.034  1.00  0.00    -0.116 C  
HETATM   26  C   UNL     1      -9.697  11.989  65.959  1.00  0.00    -0.239 C  
BRANCH  24  27
HETATM   27  C   UNL     1     -11.475  11.172  68.441  1.00  0.00    -0.306 C  
BRANCH  27  28
HETATM   28  C   UNL     1     -11.779   9.673  68.597  1.00  0.00     0.698 C  
HETATM   29  O   UNL     1     -10.912   8.904  67.769  1.00  0.00    -0.494 OA 
HETATM   30  H   UNL     1     -11.100   7.978  67.865  1.00  0.00     0.000 HD 
ENDBRANCH  27  28
ENDBRANCH  24  27
ENDBRANCH  20  21
ENDBRANCH  19  20
ENDBRANCH  18  19
ENDBRANCH  12  18
ENDBRANCH   2   4
TORSDOF 7
ENDMDL
MODEL      220
REMARK 921   NORMALIZED FREE ENERGY PREDICTED BY IDOCK:    1.71 KCAL/MOL
REMARK 922        TOTAL FREE ENERGY PREDICTED BY IDOCK:    1.65 KCAL/MOL
REMARK 923 INTER-LIGAND FREE ENERGY PREDICTED BY IDOCK:   -0.96 KCAL/MOL
REMARK 924 INTRA-LIGAND FREE ENERGY PREDICTED BY IDOCK:    2.61 KCAL/MOL
REMARK 927      BINDING AFFINITY PREDICTED BY RF-SCORE:    0.00 PKD
ROOT
HETATM    1  C   UNL     1     -13.857   8.196  70.906  1.00  0.00     0.195 C  
HETATM    2  C   UNL     1     -13.106   7.842  72.161  1.00  0.00    -0.118 C  
HETATM    3  O   UNL     1     -13.136   8.571  73.152  1.00  0.00    -0.107 OA 
ENDROOT
BRANCH   2   4
HETATM    4  C   UNL     1     -12.319   6.577  72.189  1.00  0.00    -0.244 A  
HETATM    5  C   UNL     1     -12.686   5.499  72.984  1.00  0.00     0.919 A  
HETATM    6  C   UNL     1     -11.913   4.345  72.959  1.00  0.00     0.153 A  
HETATM    7  C   UNL     1     -10.769   4.245  72.154  1.00  0.00     0.099 A  
HETATM    8  S   UNL     1      -9.922   2.692  72.259  1.00  0.00    -0.159 SA 
HETATM    9  C   UNL     1      -8.561   2.913  71.147  1.00  0.00    -0.064 A  
HETATM   10  C   UNL     1      -8.325   4.098  70.411  1.00  0.00    -0.065 A  
HETATM   11  C   UNL     1      -7.185   4.067  69.575  1.00  0.00    -0.049 A  
HETATM   12  N   UNL     1      -9.183   5.235  70.525  1.00  0.00    -0.142 NA 
HETATM   13  C   UNL     1     -10.355   5.318  71.340  1.00  0.00    -0.221 A  
HETATM   14  C   UNL     1      -6.332   2.955  69.479  1.00  0.00    -0.029 A  
HETATM   15  C   UNL     1     -11.169   6.475  71.385  1.00  0.00    -0.331 A  
HETATM   16  C   UNL     1      -7.701   1.801  71.048  1.00  0.00    -0.032 A  
HETATM   17  C   UNL     1      -6.589   1.818  70.220  1.00  0.00    -0.028 A  
BRANCH  12  18
HETATM   18  C   UNL     1      -8.832   6.459  69.767  1.00  0.00    -0.142 C  
BRANCH  18  19
HETATM   19  C   UNL     1      -8.833   7.698  70.676  1.00  0.00    -0.145 C  
BRANCH  19  20
HETATM   20  C   UNL     1     -10.138   8.497  70.541  1.00  0.00    -0.192 C  
BRANCH  20  21
HETATM   21  N   UNL     1      -9.922   9.952  70.617  1.00  0.00    -0.138 NA 
HETATM   22  C   UNL     1      -8.494  10.315  70.543  1.00  0.00     0.937 C  
HETATM   23  C   UNL     1      -7.882  10.101  69.146  1.00  0.00    -0.120 C  
HETATM   24  N   UNL     1      -8.544  10.903  68.099  1.00  0.00    -0.127 NA 
HETATM   25  C   UNL     1     -10.001  10.603  68.141  1.00  0.00    -0.158 C  
HETATM   26  C   UNL     1     -10.656  10.667  69.550  1.00  0.00    -0.230 C  
BRANCH  24  27
HETATM   27  C   UNL     1      -8.310  12.359  68.275  1.00  0.00    -0.169 C  
BRANCH  27  28
HETATM   28  C   UNL     1      -6.878  12.688  68.729  1.00  0.00    -0.096 C  
HETATM   29  O   UNL     1      -6.168  13.348  67.687  1.00  0.00    -0.153 OA 
HETATM   30  H   UNL     1      -5.283  13.550  67.967  1.00  0.00     0.000 HD 
ENDBRANCH  27  28
ENDBRANCH  24  27
ENDBRANCH  20  21
ENDBRANCH  19  20
ENDBRANCH  18  19
ENDBRANCH  12  18
ENDBRANCH   2   4
TORSDOF 7
ENDMDL
MODEL      221
REMARK 921   NORMALIZED FREE ENERGY PREDICTED BY IDOCK:    1.94 KCAL/MOL
REMARK 922        TOTAL FREE ENERGY PREDICTED BY IDOCK:    1.98 KCAL/MOL
REMARK 923 INTER-LIGAND FREE ENERGY PREDICTED BY IDOCK:    0.27 KCAL/MOL
REMARK 924 INTRA-LIGAND FREE ENERGY PREDICTED BY IDOCK:    1.71 KCAL/MOL
REMARK 927      BINDING AFFINITY PREDICTED BY RF-SCORE:    0.00 PKD
ROOT
HETATM    1  C   UNL     1      -9.610  14.843  65.423  1.00  0.00    -0.085 C  
HETATM    2  C   UNL     1      -9.582  15.132  66.899  1.00  0.00    -0.239 C  
HETATM    3  O   UNL     1     -10.202  16.081  67.376  1.00  0.00    -0.261 OA 
ENDROOT
BRANCH   2   4
HETATM    4  C   UNL     1      -8.786  14.238  67.787  1.00  0.00    -0.179 A  
HETATM    5  C   UNL     1      -8.352  14.644  69.042  1.00  0.00    -0.102 A  
HETATM    6  C   UNL     1      -7.620  13.760  69.824  1.00  0.00     0.703 A  
HETATM    7  C   UNL     1      -7.304  12.470  69.374  1.00  0.00     0.336 A  
HETATM    8  S   UNL     1      -6.367  11.494  70.518  1.00  0.00     0.459 SA 
HETATM    9  C   UNL     1      -6.149   9.969  69.645  1.00  0.00    -0.044 A  
HETATM   10  C   UNL     1      -6.656   9.720  68.348  1.00  0.00    -0.056 A  
HETATM   11  C   UNL     1      -6.376   8.435  67.831  1.00  0.00    -0.056 A  
HETATM   12  N   UNL     1      -7.389  10.713  67.627  1.00  0.00    -0.089 NA 
HETATM   13  C   UNL     1      -7.715  12.020  68.103  1.00  0.00    -0.135 A  
HETATM   14  C   UNL     1      -5.639   7.467  68.534  1.00  0.00    -0.027 A  
HETATM   15  C   UNL     1      -8.465  12.944  67.337  1.00  0.00    -0.196 A  
HETATM   16  C   UNL     1      -5.409   8.995  70.346  1.00  0.00    -0.026 A  
HETATM   17  C   UNL     1      -5.151   7.749  69.796  1.00  0.00    -0.023 A  
BRANCH  12  18
HETATM   18  C   UNL     1      -7.834  10.395  66.249  1.00  0.00    -0.132 C  
BRANCH  18  19
HETATM   19  C   UNL     1      -9.310  10.767  66.040  1.00  0.00    -0.215 C  
BRANCH  19  20
HETATM   20  C   UNL     1     -10.242   9.864  66.860  1.00  0.00    -0.240 C  
BRANCH  20  21
HETATM   21  N   UNL     1      -9.662   8.535  67.117  1.00  0.00    -0.175 NA 
HETATM   22  C   UNL     1      -9.501   8.258  68.556  1.00  0.00    -0.146 C  
HETATM   23  C   UNL     1     -10.836   8.030  69.287  1.00  0.00    -0.059 C  
HETATM   24  N   UNL     1     -11.598   6.884  68.751  1.00  0.00     0.208 NA 
HETATM   25  C   UNL     1     -11.769   7.090  67.288  1.00  0.00     1.341 C  
HETATM   26  C   UNL     1     -10.476   7.460  66.508  1.00  0.00     0.039 C  
BRANCH  24  27
HETATM   27  C   UNL     1     -10.922   5.589  69.016  1.00  0.00     0.050 C  
BRANCH  27  28
HETATM   28  C   UNL     1     -10.741   5.300  70.516  1.00  0.00    -0.138 C  
HETATM   29  O   UNL     1     -10.933   6.490  71.275  1.00  0.00    -0.242 OA 
HETATM   30  H   UNL     1     -10.820   6.311  72.202  1.00  0.00     0.000 HD 
ENDBRANCH  27  28
ENDBRANCH  24  27
ENDBRANCH  20  21
ENDBRANCH  19  20
ENDBRANCH  18  19
ENDBRANCH  12  18
ENDBRANCH   2   4
TORSDOF 7
ENDMDL
MODEL      222
REMARK 921   NORMALIZED FREE ENERGY PREDICTED BY IDOCK:    2.31 KCAL/MOL
REMARK 922        TOTAL FREE ENERGY PREDICTED BY IDOCK:    2.50 KCAL/MOL
REMARK 923 INTER-LIGAND FREE ENERGY PREDICTED BY IDOCK:   -2.74 KCAL/MOL
REMARK 924 INTRA-LIGAND FREE ENERGY PREDICTED BY IDOCK:    5.24 KCAL/MOL
REMARK 927      BINDING AFFINITY PREDICTED BY RF-SCORE:    0.00 PKD
ROOT
HETATM    1  C   UNL     1      -5.825  10.203  62.827  1.00  0.00    -0.121 C  
HETATM    2  C   UNL     1      -6.115   9.840  64.258  1.00  0.00    -0.113 C  
HETATM    3  O   UNL     1      -5.401   9.050  64.874  1.00  0.00    -0.041 OA 
ENDROOT
BRANCH   2   4
HETATM    4  C   UNL     1      -7.291  10.462  64.929  1.00  0.00    -0.059 A  
HETATM    5  C   UNL     1      -8.090  11.401  64.291  1.00  0.00     1.016 A  
HETATM    6  C   UNL     1      -9.177  11.938  64.970  1.00  0.00     0.179 A  
HETATM    7  C   UNL     1      -9.483  11.558  66.285  1.00  0.00    -0.217 A  
HETATM    8  S   UNL     1     -10.908  12.352  66.974  1.00  0.00    -0.256 SA 
HETATM    9  C   UNL     1     -10.995  11.656  68.601  1.00  0.00    -0.220 A  
HETATM   10  C   UNL     1     -10.080  10.702  69.104  1.00  0.00    -0.216 A  
HETATM   11  C   UNL     1     -10.330  10.270  70.426  1.00  0.00    -0.069 A  
HETATM   12  N   UNL     1      -8.985  10.227  68.317  1.00  0.00    -0.130 NA 
HETATM   13  C   UNL     1      -8.693  10.614  66.973  1.00  0.00    -0.128 A  
HETATM   14  C   UNL     1     -11.396  10.753  71.204  1.00  0.00     0.395 A  
HETATM   15  C   UNL     1      -7.599  10.083  66.249  1.00  0.00    -0.106 A  
HETATM   16  C   UNL     1     -12.062  12.138  69.386  1.00  0.00    -0.247 A  
HETATM   17  C   UNL     1     -12.264  11.692  70.683  1.00  0.00    -0.461 A  
BRANCH  12  18
HETATM   18  C   UNL     1      -8.036   9.273  68.938  1.00  0.00    -0.098 C  
BRANCH  18  19
HETATM   19  C   UNL     1      -8.632   7.859  69.008  1.00  0.00    -0.135 C  
BRANCH  19  20
HETATM   20  C   UNL     1     -10.163   7.896  69.126  1.00  0.00    -0.216 C  
BRANCH  20  21
HETATM   21  N   UNL     1     -10.658   7.159  70.302  1.00  0.00    -0.221 NA 
HETATM   22  C   UNL     1     -10.527   5.698  70.147  1.00  0.00    -0.296 C  
HETATM   23  C   UNL     1      -9.070   5.206  70.210  1.00  0.00    -0.126 C  
HETATM   24  N   UNL     1      -8.410   5.524  71.492  1.00  0.00    -0.122 NA 
HETATM   25  C   UNL     1      -8.534   6.989  71.722  1.00  0.00    -0.114 C  
HETATM   26  C   UNL     1      -9.962   7.577  71.538  1.00  0.00    -0.177 C  
BRANCH  24  27
HETATM   27  C   UNL     1      -8.997   4.771  72.628  1.00  0.00    -0.124 C  
BRANCH  27  28
HETATM   28  C   UNL     1      -9.791   5.664  73.596  1.00  0.00    -0.172 C  
HETATM   29  O   UNL     1      -8.920   6.579  74.252  1.00  0.00    -0.149 OA 
HETATM   30  H   UNL     1      -9.410   7.130  74.851  1.00  0.00     0.000 HD 
ENDBRANCH  27  28
ENDBRANCH  24  27
ENDBRANCH  20  21
ENDBRANCH  19  20
ENDBRANCH  18  19
ENDBRANCH  12  18
ENDBRANCH   2   4
TORSDOF 7
ENDMDL
MODEL      223
REMARK 921   NORMALIZED FREE ENERGY PREDICTED BY IDOCK:    8.22 KCAL/MOL
REMARK 922        TOTAL FREE ENERGY PREDICTED BY IDOCK:   10.83 KCAL/MOL
REMARK 923 INTER-LIGAND FREE ENERGY PREDICTED BY IDOCK:    6.65 KCAL/MOL
REMARK 924 INTRA-LIGAND FREE ENERGY PREDICTED BY IDOCK:    4.18 KCAL/MOL
REMARK 927      BINDING AFFINITY PREDICTED BY RF-SCORE:    0.00 PKD
ROOT
HETATM    1  C   UNL     1      -9.041  19.717  68.913  1.00  0.00    -0.198 C  
HETATM    2  C   UNL     1      -9.606  18.323  68.941  1.00  0.00    -0.250 C  
HETATM    3  O   UNL     1      -9.522  17.619  69.946  1.00  0.00     0.745 OA 
ENDROOT
BRANCH   2   4
HETATM    4  C   UNL     1     -10.283  17.802  67.720  1.00  0.00    -0.362 A  
HETATM    5  C   UNL     1     -11.062  18.615  66.907  1.00  0.00     0.110 A  
HETATM    6  C   UNL     1     -11.659  18.069  65.778  1.00  0.00     2.254 A  
HETATM    7  C   UNL     1     -11.498  16.716  65.442  1.00  0.00     0.576 A  
HETATM    8  S   UNL     1     -12.336  16.213  63.965  1.00  0.00     1.575 SA 
HETATM    9  C   UNL     1     -11.928  14.494  63.850  1.00  0.00    -0.059 A  
HETATM   10  C   UNL     1     -11.116  13.809  64.784  1.00  0.00    -0.377 A  
HETATM   11  C   UNL     1     -10.909  12.438  64.507  1.00  0.00    -0.358 A  
HETATM   12  N   UNL     1     -10.562  14.471  65.923  1.00  0.00    -0.297 NA 
HETATM   13  C   UNL     1     -10.724  15.854  66.245  1.00  0.00    -0.261 A  
HETATM   14  C   UNL     1     -11.471  11.785  63.397  1.00  0.00    -0.424 A  
HETATM   15  C   UNL     1     -10.124  16.446  67.382  1.00  0.00    -0.262 A  
HETATM   16  C   UNL     1     -12.491  13.833  62.739  1.00  0.00     1.285 A  
HETATM   17  C   UNL     1     -12.267  12.484  62.511  1.00  0.00     1.572 A  
BRANCH  12  18
HETATM   18  C   UNL     1      -9.771  13.669  66.886  1.00  0.00    -0.262 C  
BRANCH  18  19
HETATM   19  C   UNL     1      -8.334  13.454  66.386  1.00  0.00     0.613 C  
BRANCH  19  20
HETATM   20  C   UNL     1      -7.566  12.472  67.282  1.00  0.00    -0.131 C  
BRANCH  20  21
HETATM   21  N   UNL     1      -8.315  11.229  67.534  1.00  0.00    -0.128 NA 
HETATM   22  C   UNL     1      -8.206  10.778  68.934  1.00  0.00    -0.149 C  
HETATM   23  C   UNL     1      -8.976  11.671  69.923  1.00  0.00     2.126 C  
HETATM   24  N   UNL     1     -10.424  11.727  69.642  1.00  0.00     0.289 NA 
HETATM   25  C   UNL     1     -10.602  12.150  68.226  1.00  0.00    -0.217 C  
HETATM   26  C   UNL     1      -9.745  11.376  67.185  1.00  0.00    -0.182 C  
BRANCH  24  27
HETATM   27  C   UNL     1     -11.093  10.423  69.880  1.00  0.00    -0.305 C  
BRANCH  27  28
HETATM   28  C   UNL     1     -11.164  10.046  71.370  1.00  0.00    -0.092 C  
HETATM   29  O   UNL     1      -9.937   9.458  71.790  1.00  0.00    -0.180 OA 
HETATM   30  H   UNL     1      -9.981   9.225  72.710  1.00  0.00     0.000 HD 
ENDBRANCH  27  28
ENDBRANCH  24  27
ENDBRANCH  20  21
ENDBRANCH  19  20
ENDBRANCH  18  19
ENDBRANCH  12  18
ENDBRANCH   2   4
TORSDOF 7
ENDMDL
MODEL      224
REMARK 921   NORMALIZED FREE ENERGY PREDICTED BY IDOCK:    9.40 KCAL/MOL
REMARK 922        TOTAL FREE ENERGY PREDICTED BY IDOCK:   12.48 KCAL/MOL
REMARK 923 INTER-LIGAND FREE ENERGY PREDICTED BY IDOCK:   10.05 KCAL/MOL
REMARK 924 INTRA-LIGAND FREE ENERGY PREDICTED BY IDOCK:    2.43 KCAL/MOL
REMARK 927      BINDING AFFINITY PREDICTED BY RF-SCORE:    0.00 PKD
ROOT
HETATM    1  C   UNL     1      -8.967  16.662  68.722  1.00  0.00    -0.253 C  
HETATM    2  C   UNL     1      -9.652  15.336  68.918  1.00  0.00    -0.220 C  
HETATM    3  O   UNL     1     -10.845  15.188  68.658  1.00  0.00    -0.231 OA 
ENDROOT
BRANCH   2   4
HETATM    4  C   UNL     1      -8.853  14.189  69.435  1.00  0.00     0.503 A  
HETATM    5  C   UNL     1      -8.115  14.276  70.608  1.00  0.00     2.508 A  
HETATM    6  C   UNL     1      -7.397  13.168  71.039  1.00  0.00     4.351 A  
HETATM    7  C   UNL     1      -7.396  11.966  70.317  1.00  0.00     1.896 A  
HETATM    8  S   UNL     1      -6.423  10.670  71.033  1.00  0.00     0.731 SA 
HETATM    9  C   UNL     1      -6.642   9.338  69.886  1.00  0.00    -0.049 A  
HETATM   10  C   UNL     1      -7.433   9.422  68.717  1.00  0.00    -0.075 A  
HETATM   11  C   UNL     1      -7.480   8.243  67.938  1.00  0.00    -0.098 A  
HETATM   12  N   UNL     1      -8.121  10.623  68.362  1.00  0.00    -0.116 NA 
HETATM   13  C   UNL     1      -8.124  11.838  69.116  1.00  0.00     0.249 A  
HETATM   14  C   UNL     1      -6.787   7.069  68.279  1.00  0.00    -0.074 A  
HETATM   15  C   UNL     1      -8.849  12.983  68.710  1.00  0.00     0.174 A  
HETATM   16  C   UNL     1      -5.948   8.158  70.223  1.00  0.00    -0.028 A  
HETATM   17  C   UNL     1      -6.016   7.026  69.425  1.00  0.00    -0.026 A  
BRANCH  12  18
HETATM   18  C   UNL     1      -8.880  10.649  67.089  1.00  0.00    -0.137 C  
BRANCH  18  19
HETATM   19  C   UNL     1      -8.477   9.481  66.176  1.00  0.00    -0.127 C  
BRANCH  19  20
HETATM   20  C   UNL     1      -9.546   9.203  65.109  1.00  0.00     0.070 C  
BRANCH  20  21
HETATM   21  N   UNL     1      -9.238   8.014  64.295  1.00  0.00     1.133 NA 
HETATM   22  C   UNL     1      -8.909   8.357  62.899  1.00  0.00     0.327 C  
HETATM   23  C   UNL     1      -7.545   9.053  62.747  1.00  0.00    -0.106 C  
HETATM   24  N   UNL     1      -6.419   8.225  63.222  1.00  0.00    -0.081 NA 
HETATM   25  C   UNL     1      -6.706   7.819  64.625  1.00  0.00    -0.047 C  
HETATM   26  C   UNL     1      -8.124   7.232  64.875  1.00  0.00    -0.108 C  
BRANCH  24  27
HETATM   27  C   UNL     1      -6.205   7.027  62.371  1.00  0.00    -0.045 C  
BRANCH  27  28
HETATM   28  C   UNL     1      -6.459   5.706  63.116  1.00  0.00    -0.028 C  
HETATM   29  O   UNL     1      -7.384   4.900  62.393  1.00  0.00    -0.040 OA 
HETATM   30  H   UNL     1      -7.541   4.084  62.854  1.00  0.00     0.000 HD 
ENDBRANCH  27  28
ENDBRANCH  24  27
ENDBRANCH  20  21
ENDBRANCH  19  20
ENDBRANCH  18  19
ENDBRANCH  12  18
ENDBRANCH   2   4
TORSDOF 7
ENDMDL
MODEL      225
REMARK 921   NORMALIZED FREE ENERGY PREDICTED BY IDOCK:   24.63 KCAL/MOL
REMARK 922        TOTAL FREE ENERGY PREDICTED BY IDOCK:   33.95 KCAL/MOL
REMARK 923 INTER-LIGAND FREE ENERGY PREDICTED BY IDOCK:   26.16 KCAL/MOL
REMARK 924 INTRA-LIGAND FREE ENERGY PREDICTED BY IDOCK:    7.79 KCAL/MOL
REMARK 927      BINDING AFFINITY PREDICTED BY RF-SCORE:    0.00 PKD
ROOT
HETATM    1  C   UNL     1     -10.242  15.578  64.178  1.00  0.00     2.302 C  
HETATM    2  C   UNL     1      -9.120  14.941  64.952  1.00  0.00     2.344 C  
HETATM    3  O   UNL     1      -8.701  13.820  64.666  1.00  0.00     2.837 OA 
ENDROOT
BRANCH   2   4
HETATM    4  C   UNL     1      -8.513  15.698  66.083  1.00  0.00    -0.037 A  
HETATM    5  C   UNL     1      -7.217  15.456  66.519  1.00  0.00     0.939 A  
HETATM    6  C   UNL     1      -6.707  16.201  67.574  1.00  0.00    -0.198 A  
HETATM    7  C   UNL     1      -7.471  17.190  68.212  1.00  0.00    -0.217 A  
HETATM    8  S   UNL     1      -6.642  18.032  69.532  1.00  0.00    -0.064 SA 
HETATM    9  C   UNL     1      -7.869  19.176  70.097  1.00  0.00     1.134 A  
HETATM   10  C   UNL     1      -9.164  19.289  69.539  1.00  0.00     0.216 A  
HETATM   11  C   UNL     1      -9.991  20.269  70.133  1.00  0.00     0.686 A  
HETATM   12  N   UNL     1      -9.589  18.456  68.458  1.00  0.00    -0.331 NA 
HETATM   13  C   UNL     1      -8.794  17.461  67.808  1.00  0.00    -0.232 A  
HETATM   14  C   UNL     1      -9.578  21.073  71.209  1.00  0.00     2.799 A  
HETATM   15  C   UNL     1      -9.278  16.688  66.726  1.00  0.00    -0.259 A  
HETATM   16  C   UNL     1      -7.460  19.985  71.177  1.00  0.00     1.253 A  
HETATM   17  C   UNL     1      -8.308  20.930  71.735  1.00  0.00     3.102 A  
BRANCH  12  18
HETATM   18  C   UNL     1     -10.981  18.594  67.969  1.00  0.00     0.053 C  
BRANCH  18  19
HETATM   19  C   UNL     1     -11.149  17.967  66.577  1.00  0.00     0.474 C  
BRANCH  19  20
HETATM   20  C   UNL     1     -11.591  16.499  66.668  1.00  0.00     0.972 C  
BRANCH  20  21
HETATM   21  N   UNL     1     -12.755  16.311  67.550  1.00  0.00     2.483 NA 
HETATM   22  C   UNL     1     -12.836  14.943  68.095  1.00  0.00     1.513 C  
HETATM   23  C   UNL     1     -11.749  14.638  69.141  1.00  0.00    -0.309 C  
HETATM   24  N   UNL     1     -11.814  15.529  70.315  1.00  0.00    -0.329 NA 
HETATM   25  C   UNL     1     -11.766  16.935  69.829  1.00  0.00     1.104 C  
HETATM   26  C   UNL     1     -12.748  17.276  68.672  1.00  0.00     4.712 C  
BRANCH  24  27
HETATM   27  C   UNL     1     -13.037  15.303  71.125  1.00  0.00    -0.479 C  
BRANCH  27  28
HETATM   28  C   UNL     1     -13.640  13.903  70.927  1.00  0.00     0.104 C  
HETATM   29  O   UNL     1     -14.169  13.413  72.155  1.00  0.00    -0.413 OA 
HETATM   30  H   UNL     1     -14.541  12.547  72.032  1.00  0.00     0.000 HD 
ENDBRANCH  27  28
ENDBRANCH  24  27
ENDBRANCH  20  21
ENDBRANCH  19  20
ENDBRANCH  18  19
ENDBRANCH  12  18
ENDBRANCH   2   4
TORSDOF 7
ENDMDL
MODEL      226
REMARK 921   NORMALIZED FREE ENERGY PREDICTED BY IDOCK:   25.54 KCAL/MOL
REMARK 922        TOTAL FREE ENERGY PREDICTED BY IDOCK:   35.23 KCAL/MOL
REMARK 923 INTER-LIGAND FREE ENERGY PREDICTED BY IDOCK:    4.92 KCAL/MOL
REMARK 924 INTRA-LIGAND FREE ENERGY PREDICTED BY IDOCK:   30.31 KCAL/MOL
REMARK 927      BINDING AFFINITY PREDICTED BY RF-SCORE:    0.00 PKD
ROOT
HETATM    1  C   UNL     1     -10.114   2.334  68.873  1.00  0.00     0.865 C  
HETATM    2  C   UNL     1     -10.216   2.591  70.352  1.00  0.00     0.974 C  
HETATM    3  O   UNL     1     -10.152   1.672  71.167  1.00  0.00    -0.075 OA 
ENDROOT
BRANCH   2   4
HETATM    4  C   UNL     1     -10.394   3.994  70.822  1.00  0.00     0.317 A  
HETATM    5  C   UNL     1     -10.900   4.290  72.081  1.00  0.00     0.134 A  
HETATM    6  C   UNL     1     -11.034   5.619  72.462  1.00  0.00    -0.313 A  
HETATM    7  C   UNL     1     -10.676   6.669  71.604  1.00  0.00    -0.229 A  
HETATM    8  S   UNL     1     -10.918   8.291  72.274  1.00  0.00    -0.366 SA 
HETATM    9  C   UNL     1     -10.380   9.343  70.955  1.00  0.00    -0.310 A  
HETATM   10  C   UNL     1      -9.893   8.871  69.714  1.00  0.00    -0.180 A  
HETATM   11  C   UNL     1      -9.510   9.877  68.798  1.00  0.00    -0.157 A  
HETATM   12  N   UNL     1      -9.810   7.473  69.424  1.00  0.00    -0.164 NA 
HETATM   13  C   UNL     1     -10.167   6.414  70.314  1.00  0.00    -0.195 A  
HETATM   14  C   UNL     1      -9.611  11.250  69.077  1.00  0.00    -0.048 A  
HETATM   15  C   UNL     1     -10.037   5.049  69.962  1.00  0.00    -0.342 A  
HETATM   16  C   UNL     1     -10.480  10.722  71.230  1.00  0.00     2.714 A  
HETATM   17  C   UNL     1     -10.100  11.675  70.298  1.00  0.00     2.354 A  
BRANCH  12  18
HETATM   18  C   UNL     1      -9.347   7.062  68.077  1.00  0.00    -0.127 C  
BRANCH  18  19
HETATM   19  C   UNL     1      -7.961   7.647  67.761  1.00  0.00    -0.121 C  
BRANCH  19  20
HETATM   20  C   UNL     1      -8.050   9.129  67.371  1.00  0.00    -0.107 C  
BRANCH  20  21
HETATM   21  N   UNL     1      -8.410   9.994  68.507  1.00  0.00    -0.110 NA 
HETATM   22  C   UNL     1      -8.016   9.414  69.804  1.00  0.00    -0.119 C  
HETATM   23  C   UNL     1      -6.494   9.414  70.035  1.00  0.00    -0.057 C  
HETATM   24  N   UNL     1      -5.910  10.770  70.020  1.00  0.00    -0.070 NA 
HETATM   25  C   UNL     1      -6.298  11.423  68.741  1.00  0.00    -0.053 C  
HETATM   26  C   UNL     1      -7.808  11.339  68.378  1.00  0.00    -0.136 C  
BRANCH  24  27
HETATM   27  C   UNL     1      -6.357  11.587  71.176  1.00  0.00     1.305 C  
BRANCH  27  28
HETATM   28  C   UNL     1      -5.611  12.927  71.290  1.00  0.00    -0.037 C  
HETATM   29  O   UNL     1      -6.452  13.999  70.877  1.00  0.00    -0.428 OA 
HETATM   30  H   UNL     1      -5.991  14.826  70.947  1.00  0.00     0.000 HD 
ENDBRANCH  27  28
ENDBRANCH  24  27
ENDBRANCH  20  21
ENDBRANCH  19  20
ENDBRANCH  18  19
ENDBRANCH  12  18
ENDBRANCH   2   4
TORSDOF 7
ENDMDL
MODEL      227
REMARK 921   NORMALIZED FREE ENERGY PREDICTED BY IDOCK:   29.56 KCAL/MOL
REMARK 922        TOTAL FREE ENERGY PREDICTED BY IDOCK:   40.89 KCAL/MOL
REMARK 923 INTER-LIGAND FREE ENERGY PREDICTED BY IDOCK:   32.06 KCAL/MOL
REMARK 924 INTRA-LIGAND FREE ENERGY PREDICTED BY IDOCK:    8.83 KCAL/MOL
REMARK 927      BINDING AFFINITY PREDICTED BY RF-SCORE:    0.00 PKD
ROOT
HETATM    1  C   UNL     1      -7.189  17.797  71.184  1.00  0.00     4.861 C  
HETATM    2  C   UNL     1      -7.049  16.922  69.968  1.00  0.00     0.818 C  
HETATM    3  O   UNL     1      -6.701  17.387  68.883  1.00  0.00    -0.205 OA 
ENDROOT
BRANCH   2   4
HETATM    4  C   UNL     1      -7.336  15.466  70.098  1.00  0.00     0.217 A  
HETATM    5  C   UNL     1      -7.509  14.858  71.335  1.00  0.00     2.500 A  
HETATM    6  C   UNL     1      -7.783  13.497  71.388  1.00  0.00     6.438 A  
HETATM    7  C   UNL     1      -7.884  12.722  70.223  1.00  0.00     3.379 A  
HETATM    8  S   UNL     1      -8.242  11.010  70.501  1.00  0.00     3.325 SA 
HETATM    9  C   UNL     1      -8.294  10.350  68.858  1.00  0.00    -0.138 A  
HETATM   10  C   UNL     1      -8.084  11.118  67.690  1.00  0.00    -0.117 A  
HETATM   11  C   UNL     1      -8.174  10.401  66.475  1.00  0.00    -0.131 A  
HETATM   12  N   UNL     1      -7.794  12.517  67.754  1.00  0.00    -0.137 NA 
HETATM   13  C   UNL     1      -7.707  13.297  68.948  1.00  0.00     0.065 A  
HETATM   14  C   UNL     1      -8.439   9.022  66.415  1.00  0.00    -0.126 A  
HETATM   15  C   UNL     1      -7.437  14.686  68.932  1.00  0.00    -0.134 A  
HETATM   16  C   UNL     1      -8.559   8.967  68.792  1.00  0.00    -0.136 A  
HETATM   17  C   UNL     1      -8.630   8.301  67.578  1.00  0.00    -0.129 A  
BRANCH  12  18
HETATM   18  C   UNL     1      -7.526  13.238  66.487  1.00  0.00     1.372 C  
BRANCH  18  19
HETATM   19  C   UNL     1      -8.582  14.325  66.230  1.00  0.00     0.430 C  
BRANCH  19  20
HETATM   20  C   UNL     1      -9.399  14.629  67.494  1.00  0.00    -0.195 C  
BRANCH  20  21
HETATM   21  N   UNL     1     -10.841  14.393  67.306  1.00  0.00    -0.286 NA 
HETATM   22  C   UNL     1     -11.355  13.319  68.177  1.00  0.00    -0.288 C  
HETATM   23  C   UNL     1     -11.415  13.715  69.663  1.00  0.00    -0.221 C  
HETATM   24  N   UNL     1     -12.292  14.875  69.915  1.00  0.00    -0.303 NA 
HETATM   25  C   UNL     1     -11.842  15.991  69.040  1.00  0.00    -0.252 C  
HETATM   26  C   UNL     1     -11.628  15.623  67.544  1.00  0.00    -0.040 C  
BRANCH  24  27
HETATM   27  C   UNL     1     -13.722  14.563  69.662  1.00  0.00     2.623 C  
BRANCH  27  28
HETATM   28  C   UNL     1     -13.926  13.221  68.939  1.00  0.00     8.392 C  
HETATM   29  O   UNL     1     -12.769  12.888  68.180  1.00  0.00     0.477 OA 
HETATM   30  H   UNL     1     -12.895  12.059  67.733  1.00  0.00     0.000 HD 
ENDBRANCH  27  28
ENDBRANCH  24  27
ENDBRANCH  20  21
ENDBRANCH  19  20
ENDBRANCH  18  19
ENDBRANCH  12  18
ENDBRANCH   2   4
TORSDOF 7
ENDMDL
MODEL      228
REMARK 921   NORMALIZED FREE ENERGY PREDICTED BY IDOCK:   35.08 KCAL/MOL
REMARK 922        TOTAL FREE ENERGY PREDICTED BY IDOCK:   48.68 KCAL/MOL
REMARK 923 INTER-LIGAND FREE ENERGY PREDICTED BY IDOCK:   48.90 KCAL/MOL
REMARK 924 INTRA-LIGAND FREE ENERGY PREDICTED BY IDOCK:   -0.22 KCAL/MOL
REMARK 927      BINDING AFFINITY PREDICTED BY RF-SCORE:    0.00 PKD
ROOT
HETATM    1  C   UNL     1      -8.684  12.255  71.462  1.00  0.00    15.675 C  
HETATM    2  C   UNL     1      -9.921  12.918  70.918  1.00  0.00     7.156 C  
HETATM    3  O   UNL     1     -10.816  13.311  71.664  1.00  0.00     4.092 OA 
ENDROOT
BRANCH   2   4
HETATM    4  C   UNL     1     -10.045  13.098  69.443  1.00  0.00     0.623 A  
HETATM    5  C   UNL     1      -9.337  14.078  68.760  1.00  0.00    -0.059 A  
HETATM    6  C   UNL     1      -9.492  14.189  67.384  1.00  0.00    -0.220 A  
HETATM    7  C   UNL     1     -10.349  13.338  66.670  1.00  0.00    -0.274 A  
HETATM    8  S   UNL     1     -10.406  13.637  64.925  1.00  0.00    -0.359 SA 
HETATM    9  C   UNL     1     -11.558  12.417  64.357  1.00  0.00    -0.354 A  
HETATM   10  C   UNL     1     -12.207  11.487  65.202  1.00  0.00     0.863 A  
HETATM   11  C   UNL     1     -13.087  10.595  64.548  1.00  0.00     6.423 A  
HETATM   12  N   UNL     1     -11.981  11.472  66.613  1.00  0.00    -0.277 NA 
HETATM   13  C   UNL     1     -11.094  12.337  67.326  1.00  0.00    -0.275 A  
HETATM   14  C   UNL     1     -13.322  10.624  63.163  1.00  0.00     5.010 A  
HETATM   15  C   UNL     1     -10.906  12.248  68.726  1.00  0.00    -0.266 A  
HETATM   16  C   UNL     1     -11.799  12.443  62.968  1.00  0.00    -0.116 A  
HETATM   17  C   UNL     1     -12.678  11.553  62.370  1.00  0.00     2.174 A  
BRANCH  12  18
HETATM   18  C   UNL     1     -12.745  10.506  67.437  1.00  0.00     6.049 C  
BRANCH  18  19
HETATM   19  C   UNL     1     -11.811   9.503  68.132  1.00  0.00     1.725 C  
BRANCH  19  20
HETATM   20  C   UNL     1     -11.441   8.338  67.203  1.00  0.00     1.848 C  
BRANCH  20  21
HETATM   21  N   UNL     1     -10.241   7.612  67.654  1.00  0.00    -0.197 NA 
HETATM   22  C   UNL     1      -9.749   6.654  66.646  1.00  0.00    -0.159 C  
HETATM   23  C   UNL     1      -9.114   7.333  65.419  1.00  0.00     0.320 C  
HETATM   24  N   UNL     1      -7.949   8.171  65.763  1.00  0.00    -0.099 NA 
HETATM   25  C   UNL     1      -8.374   9.145  66.804  1.00  0.00    -0.123 C  
HETATM   26  C   UNL     1      -9.146   8.541  68.011  1.00  0.00    -0.140 C  
BRANCH  24  27
HETATM   27  C   UNL     1      -6.801   7.364  66.249  1.00  0.00    -0.061 C  
BRANCH  27  28
HETATM   28  C   UNL     1      -5.449   8.077  66.076  1.00  0.00    -0.029 C  
HETATM   29  O   UNL     1      -5.553   9.438  66.480  1.00  0.00    -0.050 OA 
HETATM   30  H   UNL     1      -4.717   9.879  66.373  1.00  0.00     0.000 HD 
ENDBRANCH  27  28
ENDBRANCH  24  27
ENDBRANCH  20  21
ENDBRANCH  19  20
ENDBRANCH  18  19
ENDBRANCH  12  18
ENDBRANCH   2   4
TORSDOF 7
ENDMDL
MODEL      229
REMARK 921   NORMALIZED FREE ENERGY PREDICTED BY IDOCK:   35.26 KCAL/MOL
REMARK 922        TOTAL FREE ENERGY PREDICTED BY IDOCK:   48.94 KCAL/MOL
REMARK 923 INTER-LIGAND FREE ENERGY PREDICTED BY IDOCK:   49.23 KCAL/MOL
REMARK 924 INTRA-LIGAND FREE ENERGY PREDICTED BY IDOCK:   -0.30 KCAL/MOL
REMARK 927      BINDING AFFINITY PREDICTED BY RF-SCORE:    0.00 PKD
ROOT
HETATM    1  C   UNL     1      -8.684  12.255  71.462  1.00  0.00    15.675 C  
HETATM    2  C   UNL     1      -9.921  12.918  70.918  1.00  0.00     7.156 C  
HETATM    3  O   UNL     1     -10.816  13.311  71.664  1.00  0.00     4.092 OA 
ENDROOT
BRANCH   2   4
HETATM    4  C   UNL     1     -10.045  13.098  69.443  1.00  0.00     0.623 A  
HETATM    5  C   UNL     1      -9.337  14.078  68.760  1.00  0.00    -0.059 A  
HETATM    6  C   UNL     1      -9.492  14.189  67.384  1.00  0.00    -0.220 A  
HETATM    7  C   UNL     1     -10.349  13.338  66.670  1.00  0.00    -0.274 A  
HETATM    8  S   UNL     1     -10.406  13.637  64.925  1.00  0.00    -0.359 SA 
HETATM    9  C   UNL     1     -11.558  12.417  64.357  1.00  0.00    -0.354 A  
HETATM   10  C   UNL     1     -12.207  11.487  65.202  1.00  0.00     0.863 A  
HETATM   11  C   UNL     1     -13.087  10.595  64.548  1.00  0.00     6.423 A  
HETATM   12  N   UNL     1     -11.981  11.472  66.613  1.00  0.00    -0.277 NA 
HETATM   13  C   UNL     1     -11.094  12.337  67.326  1.00  0.00    -0.275 A  
HETATM   14  C   UNL     1     -13.322  10.624  63.163  1.00  0.00     5.010 A  
HETATM   15  C   UNL     1     -10.906  12.248  68.726  1.00  0.00    -0.266 A  
HETATM   16  C   UNL     1     -11.799  12.443  62.968  1.00  0.00    -0.116 A  
HETATM   17  C   UNL     1     -12.678  11.553  62.370  1.00  0.00     2.174 A  
BRANCH  12  18
HETATM   18  C   UNL     1     -12.745  10.506  67.437  1.00  0.00     6.049 C  
BRANCH  18  19
HETATM   19  C   UNL     1     -11.811   9.503  68.132  1.00  0.00     1.725 C  
BRANCH  19  20
HETATM   20  C   UNL     1     -11.441   8.338  67.203  1.00  0.00     1.848 C  
BRANCH  20  21
HETATM   21  N   UNL     1     -10.241   7.612  67.654  1.00  0.00    -0.197 NA 
HETATM   22  C   UNL     1     -10.561   6.282  68.205  1.00  0.00    -0.257 C  
HETATM   23  C   UNL     1     -11.008   5.270  67.134  1.00  0.00     0.326 C  
HETATM   24  N   UNL     1      -9.979   5.029  66.104  1.00  0.00    -0.200 NA 
HETATM   25  C   UNL     1      -9.589   6.344  65.527  1.00  0.00     0.561 C  
HETATM   26  C   UNL     1      -9.256   7.456  66.561  1.00  0.00    -0.165 C  
BRANCH  24  27
HETATM   27  C   UNL     1      -8.788   4.332  66.652  1.00  0.00    -0.116 C  
BRANCH  27  28
HETATM   28  C   UNL     1      -7.986   3.577  65.579  1.00  0.00    -0.093 C  
HETATM   29  O   UNL     1      -7.605   2.292  66.059  1.00  0.00    -0.066 OA 
HETATM   30  H   UNL     1      -7.108   1.826  65.397  1.00  0.00     0.000 HD 
ENDBRANCH  27  28
ENDBRANCH  24  27
ENDBRANCH  20  21
ENDBRANCH  19  20
ENDBRANCH  18  19
ENDBRANCH  12  18
ENDBRANCH   2   4
TORSDOF 7
ENDMDL
MODEL      230
REMARK 921   NORMALIZED FREE ENERGY PREDICTED BY IDOCK:   37.52 KCAL/MOL
REMARK 922        TOTAL FREE ENERGY PREDICTED BY IDOCK:   52.11 KCAL/MOL
REMARK 923 INTER-LIGAND FREE ENERGY PREDICTED BY IDOCK:   43.78 KCAL/MOL
REMARK 924 INTRA-LIGAND FREE ENERGY PREDICTED BY IDOCK:    8.34 KCAL/MOL
REMARK 927      BINDING AFFINITY PREDICTED BY RF-SCORE:    0.00 PKD
ROOT
HETATM    1  C   UNL     1      -5.540  10.397  63.501  1.00  0.00    -0.150 C  
HETATM    2  C   UNL     1      -5.954  10.468  64.946  1.00  0.00    -0.087 C  
HETATM    3  O   UNL     1      -6.041   9.453  65.636  1.00  0.00    -0.058 OA 
ENDROOT
BRANCH   2   4
HETATM    4  C   UNL     1      -6.256  11.801  65.538  1.00  0.00     1.788 A  
HETATM    5  C   UNL     1      -5.896  12.985  64.908  1.00  0.00    10.767 A  
HETATM    6  C   UNL     1      -6.214  14.196  65.510  1.00  0.00    11.108 A  
HETATM    7  C   UNL     1      -6.885  14.251  66.740  1.00  0.00     1.582 A  
HETATM    8  S   UNL     1      -7.202  15.888  67.339  1.00  0.00    -0.213 SA 
HETATM    9  C   UNL     1      -8.037  15.588  68.872  1.00  0.00    -0.194 A  
HETATM   10  C   UNL     1      -8.321  14.299  69.379  1.00  0.00     0.336 A  
HETATM   11  C   UNL     1      -9.001  14.279  70.619  1.00  0.00     3.132 A  
HETATM   12  N   UNL     1      -7.934  13.115  68.678  1.00  0.00    -0.084 NA 
HETATM   13  C   UNL     1      -7.261  13.074  67.418  1.00  0.00    -0.116 A  
HETATM   14  C   UNL     1      -9.364  15.444  71.316  1.00  0.00     2.834 A  
HETATM   15  C   UNL     1      -6.928  11.859  66.773  1.00  0.00    -0.003 A  
HETATM   16  C   UNL     1      -8.402  16.754  69.576  1.00  0.00     0.403 A  
HETATM   17  C   UNL     1      -9.061  16.687  70.794  1.00  0.00     3.921 A  
BRANCH  12  18
HETATM   18  C   UNL     1      -8.215  11.803  69.307  1.00  0.00     0.447 C  
BRANCH  18  19
HETATM   19  C   UNL     1      -9.527  11.202  68.781  1.00  0.00    -0.173 C  
BRANCH  19  20
HETATM   20  C   UNL     1     -10.031  11.947  67.536  1.00  0.00    -0.187 C  
BRANCH  20  21
HETATM   21  N   UNL     1     -11.211  12.784  67.816  1.00  0.00    -0.259 NA 
HETATM   22  C   UNL     1     -12.478  12.053  67.629  1.00  0.00     1.268 C  
HETATM   23  C   UNL     1     -12.734  10.989  68.711  1.00  0.00     1.258 C  
HETATM   24  N   UNL     1     -12.809  11.558  70.071  1.00  0.00     0.122 NA 
HETATM   25  C   UNL     1     -11.565  12.337  70.313  1.00  0.00     0.004 C  
HETATM   26  C   UNL     1     -11.172  13.336  69.188  1.00  0.00    -0.251 C  
BRANCH  24  27
HETATM   27  C   UNL     1     -14.003  12.420  70.254  1.00  0.00     4.156 C  
BRANCH  27  28
HETATM   28  C   UNL     1     -13.769  13.874  69.812  1.00  0.00     2.768 C  
HETATM   29  O   UNL     1     -12.468  14.305  70.200  1.00  0.00    -0.340 OA 
HETATM   30  H   UNL     1     -12.324  15.204  69.928  1.00  0.00     0.000 HD 
ENDBRANCH  27  28
ENDBRANCH  24  27
ENDBRANCH  20  21
ENDBRANCH  19  20
ENDBRANCH  18  19
ENDBRANCH  12  18
ENDBRANCH   2   4
TORSDOF 7
ENDMDL
