MODEL        1
REMARK 921   NORMALIZED FREE ENERGY PREDICTED BY IDOCK:   -4.25 KCAL/MOL
REMARK 922        TOTAL FREE ENERGY PREDICTED BY IDOCK:   -6.10 KCAL/MOL
REMARK 923 INTER-LIGAND FREE ENERGY PREDICTED BY IDOCK:   -5.50 KCAL/MOL
REMARK 924 INTRA-LIGAND FREE ENERGY PREDICTED BY IDOCK:   -0.61 KCAL/MOL
REMARK 927      BINDING AFFINITY PREDICTED BY RF-SCORE:    0.00 PKD
ROOT
HETATM    1  C   UNL     1     -11.273  11.745  63.477  1.00  0.00    -0.494 C  
HETATM    2  C   UNL     1     -12.198  12.835  63.937  1.00  0.00    -0.463 C  
HETATM    3  O   UNL     1     -12.613  13.743  63.237  1.00  0.00    -0.830 OA 
ENDROOT
BRANCH   2   4
HETATM    4  O   UNL     1     -12.541  12.611  65.228  1.00  0.00    -0.630 OA 
BRANCH   4   5
HETATM    5  C   UNL     1     -11.597  12.975  66.256  1.00  0.00    -0.360 C  
BRANCH   5   6
HETATM    6  C   UNL     1     -11.852  14.434  66.717  1.00  0.00    -0.410 C  
BRANCH   6   7
HETATM    7  N   UNL     1     -10.656  15.422  66.488  1.00  0.00    -0.301 N  
HETATM    8  C   UNL     1     -10.567  16.454  67.589  1.00  0.00    -0.313 C  
HETATM    9  C   UNL     1     -10.911  16.115  65.153  1.00  0.00    -0.361 C  
HETATM   10  C   UNL     1      -9.346  14.653  66.372  1.00  0.00    -0.284 C  
ENDBRANCH   6   7
ENDBRANCH   5   6
BRANCH   5  11
HETATM   11  C   UNL     1     -11.691  12.010  67.436  1.00  0.00    -0.352 C  
HETATM   12  C   UNL     1     -10.678  10.874  67.330  1.00  0.00    -0.268 C  
HETATM   13  O   UNL     1      -9.576  11.174  66.796  1.00  0.00    -0.186 OA 
HETATM   14  O   UNL     1     -11.120   9.751  67.681  1.00  0.00    -0.244 OA 
ENDBRANCH   5  11
ENDBRANCH   4   5
ENDBRANCH   2   4
TORSDOF 5
ENDMDL
MODEL        2
REMARK 921   NORMALIZED FREE ENERGY PREDICTED BY IDOCK:   -4.23 KCAL/MOL
REMARK 922        TOTAL FREE ENERGY PREDICTED BY IDOCK:   -6.07 KCAL/MOL
REMARK 923 INTER-LIGAND FREE ENERGY PREDICTED BY IDOCK:   -5.49 KCAL/MOL
REMARK 924 INTRA-LIGAND FREE ENERGY PREDICTED BY IDOCK:   -0.58 KCAL/MOL
REMARK 927      BINDING AFFINITY PREDICTED BY RF-SCORE:    0.00 PKD
ROOT
HETATM    1  C   UNL     1     -10.272  10.166  66.360  1.00  0.00    -0.288 C  
HETATM    2  C   UNL     1     -10.881  11.451  66.844  1.00  0.00    -0.285 C  
HETATM    3  O   UNL     1     -11.952  11.545  67.419  1.00  0.00    -0.623 OA 
ENDROOT
BRANCH   2   4
HETATM    4  O   UNL     1     -10.024  12.469  66.596  1.00  0.00    -0.226 OA 
BRANCH   4   5
HETATM    5  C   UNL     1     -10.578  13.774  66.325  1.00  0.00    -0.289 C  
BRANCH   5   6
HETATM    6  C   UNL     1      -9.657  14.874  66.915  1.00  0.00    -0.245 C  
BRANCH   6   7
HETATM    7  N   UNL     1     -10.289  15.718  68.075  1.00  0.00    -0.246 N  
HETATM    8  C   UNL     1      -9.461  15.637  69.337  1.00  0.00    -0.279 C  
HETATM    9  C   UNL     1     -11.676  15.138  68.333  1.00  0.00    -0.316 C  
HETATM   10  C   UNL     1     -10.462  17.169  67.643  1.00  0.00    -0.355 C  
ENDBRANCH   6   7
ENDBRANCH   5   6
BRANCH   5  11
HETATM   11  C   UNL     1     -10.767  13.974  64.823  1.00  0.00    -0.442 C  
HETATM   12  C   UNL     1     -12.209  13.723  64.388  1.00  0.00    -0.399 C  
HETATM   13  O   UNL     1     -13.095  14.047  65.224  1.00  0.00    -0.782 OA 
HETATM   14  O   UNL     1     -12.321  13.112  63.295  1.00  0.00    -0.712 OA 
ENDBRANCH   5  11
ENDBRANCH   4   5
ENDBRANCH   2   4
TORSDOF 5
ENDMDL
MODEL        3
REMARK 921   NORMALIZED FREE ENERGY PREDICTED BY IDOCK:   -4.23 KCAL/MOL
REMARK 922        TOTAL FREE ENERGY PREDICTED BY IDOCK:   -6.07 KCAL/MOL
REMARK 923 INTER-LIGAND FREE ENERGY PREDICTED BY IDOCK:   -5.52 KCAL/MOL
REMARK 924 INTRA-LIGAND FREE ENERGY PREDICTED BY IDOCK:   -0.55 KCAL/MOL
REMARK 927      BINDING AFFINITY PREDICTED BY RF-SCORE:    0.00 PKD
ROOT
HETATM    1  C   UNL     1     -11.143  11.790  63.663  1.00  0.00    -0.518 C  
HETATM    2  C   UNL     1     -12.181  12.805  64.046  1.00  0.00    -0.441 C  
HETATM    3  O   UNL     1     -12.657  13.637  63.292  1.00  0.00    -0.816 OA 
ENDROOT
BRANCH   2   4
HETATM    4  O   UNL     1     -12.545  12.605  65.335  1.00  0.00    -0.641 OA 
BRANCH   4   5
HETATM    5  C   UNL     1     -11.563  12.845  66.364  1.00  0.00    -0.371 C  
BRANCH   5   6
HETATM    6  C   UNL     1     -11.825  14.217  67.037  1.00  0.00    -0.428 C  
BRANCH   6   7
HETATM    7  N   UNL     1     -10.706  15.293  66.815  1.00  0.00    -0.309 N  
HETATM    8  C   UNL     1     -10.746  15.856  65.413  1.00  0.00    -0.399 C  
HETATM    9  C   UNL     1      -9.372  14.591  67.048  1.00  0.00    -0.238 C  
HETATM   10  C   UNL     1     -10.832  16.411  67.842  1.00  0.00    -0.328 C  
ENDBRANCH   6   7
ENDBRANCH   5   6
BRANCH   5  11
HETATM   11  C   UNL     1     -11.583  11.721  67.397  1.00  0.00    -0.352 C  
HETATM   12  C   UNL     1     -10.518  10.665  67.117  1.00  0.00    -0.245 C  
HETATM   13  O   UNL     1      -9.444  11.093  66.614  1.00  0.00    -0.177 OA 
HETATM   14  O   UNL     1     -10.897   9.482  67.314  1.00  0.00    -0.251 OA 
ENDBRANCH   5  11
ENDBRANCH   4   5
ENDBRANCH   2   4
TORSDOF 5
ENDMDL
MODEL        4
REMARK 921   NORMALIZED FREE ENERGY PREDICTED BY IDOCK:   -4.21 KCAL/MOL
REMARK 922        TOTAL FREE ENERGY PREDICTED BY IDOCK:   -6.05 KCAL/MOL
REMARK 923 INTER-LIGAND FREE ENERGY PREDICTED BY IDOCK:   -5.43 KCAL/MOL
REMARK 924 INTRA-LIGAND FREE ENERGY PREDICTED BY IDOCK:   -0.61 KCAL/MOL
REMARK 927      BINDING AFFINITY PREDICTED BY RF-SCORE:    0.00 PKD
ROOT
HETATM    1  C   UNL     1     -11.244  11.773  63.663  1.00  0.00    -0.519 C  
HETATM    2  C   UNL     1     -12.181  12.860  64.108  1.00  0.00    -0.414 C  
HETATM    3  O   UNL     1     -12.623  13.741  63.390  1.00  0.00    -0.842 OA 
ENDROOT
BRANCH   2   4
HETATM    4  O   UNL     1     -12.501  12.664  65.409  1.00  0.00    -0.601 OA 
BRANCH   4   5
HETATM    5  C   UNL     1     -11.507  12.973  66.408  1.00  0.00    -0.341 C  
BRANCH   5   6
HETATM    6  C   UNL     1     -11.735  14.405  66.959  1.00  0.00    -0.399 C  
BRANCH   6   7
HETATM    7  N   UNL     1     -10.564  15.413  66.695  1.00  0.00    -0.302 N  
HETATM    8  C   UNL     1      -9.215  14.738  66.789  1.00  0.00    -0.260 C  
HETATM    9  C   UNL     1     -10.671  16.498  67.762  1.00  0.00    -0.329 C  
HETATM   10  C   UNL     1     -10.732  16.079  65.334  1.00  0.00    -0.383 C  
ENDBRANCH   6   7
ENDBRANCH   5   6
BRANCH   5  11
HETATM   11  C   UNL     1     -11.546  11.946  67.538  1.00  0.00    -0.374 C  
HETATM   12  C   UNL     1     -10.508  10.843  67.345  1.00  0.00    -0.224 C  
HETATM   13  O   UNL     1      -9.429  11.198  66.799  1.00  0.00    -0.179 OA 
HETATM   14  O   UNL     1     -10.914   9.692  67.649  1.00  0.00    -0.268 OA 
ENDBRANCH   5  11
ENDBRANCH   4   5
ENDBRANCH   2   4
TORSDOF 5
ENDMDL
MODEL        5
REMARK 921   NORMALIZED FREE ENERGY PREDICTED BY IDOCK:   -4.19 KCAL/MOL
REMARK 922        TOTAL FREE ENERGY PREDICTED BY IDOCK:   -6.03 KCAL/MOL
REMARK 923 INTER-LIGAND FREE ENERGY PREDICTED BY IDOCK:   -5.48 KCAL/MOL
REMARK 924 INTRA-LIGAND FREE ENERGY PREDICTED BY IDOCK:   -0.55 KCAL/MOL
REMARK 927      BINDING AFFINITY PREDICTED BY RF-SCORE:    0.00 PKD
ROOT
HETATM    1  C   UNL     1     -11.893  13.228  69.007  1.00  0.00    -0.365 C  
HETATM    2  C   UNL     1     -11.896  14.442  68.124  1.00  0.00    -0.327 C  
HETATM    3  O   UNL     1     -11.487  15.544  68.448  1.00  0.00    -0.337 OA 
ENDROOT
BRANCH   2   4
HETATM    4  O   UNL     1     -12.364  14.100  66.900  1.00  0.00    -0.419 OA 
BRANCH   4   5
HETATM    5  C   UNL     1     -11.417  13.637  65.914  1.00  0.00    -0.316 C  
BRANCH   5   6
HETATM    6  C   UNL     1     -11.550  12.104  65.729  1.00  0.00    -0.355 C  
BRANCH   6   7
HETATM    7  N   UNL     1     -10.249  11.281  66.027  1.00  0.00    -0.239 N  
HETATM    8  C   UNL     1     -10.446  10.326  67.182  1.00  0.00    -0.254 C  
HETATM    9  C   UNL     1      -9.163  12.293  66.377  1.00  0.00    -0.203 C  
HETATM   10  C   UNL     1      -9.801  10.527  64.782  1.00  0.00    -0.323 C  
ENDBRANCH   6   7
ENDBRANCH   5   6
BRANCH   5  11
HETATM   11  C   UNL     1     -11.626  14.364  64.587  1.00  0.00    -0.414 C  
HETATM   12  C   UNL     1     -11.042  15.774  64.608  1.00  0.00    -0.361 C  
HETATM   13  O   UNL     1      -9.995  15.921  65.294  1.00  0.00    -0.424 OA 
HETATM   14  O   UNL     1     -11.752  16.637  64.031  1.00  0.00    -1.143 OA 
ENDBRANCH   5  11
ENDBRANCH   4   5
ENDBRANCH   2   4
TORSDOF 5
ENDMDL
MODEL        6
REMARK 921   NORMALIZED FREE ENERGY PREDICTED BY IDOCK:   -4.19 KCAL/MOL
REMARK 922        TOTAL FREE ENERGY PREDICTED BY IDOCK:   -6.02 KCAL/MOL
REMARK 923 INTER-LIGAND FREE ENERGY PREDICTED BY IDOCK:   -5.57 KCAL/MOL
REMARK 924 INTRA-LIGAND FREE ENERGY PREDICTED BY IDOCK:   -0.45 KCAL/MOL
REMARK 927      BINDING AFFINITY PREDICTED BY RF-SCORE:    0.00 PKD
ROOT
HETATM    1  C   UNL     1     -12.031  13.540  68.378  1.00  0.00    -0.378 C  
HETATM    2  C   UNL     1     -11.472  14.925  68.221  1.00  0.00    -0.324 C  
HETATM    3  O   UNL     1     -11.956  15.934  68.705  1.00  0.00    -0.368 OA 
ENDROOT
BRANCH   2   4
HETATM    4  O   UNL     1     -10.319  14.861  67.515  1.00  0.00    -0.237 OA 
BRANCH   4   5
HETATM    5  C   UNL     1     -10.234  15.604  66.281  1.00  0.00    -0.299 C  
BRANCH   5   6
HETATM    6  C   UNL     1      -8.803  16.173  66.101  1.00  0.00    -0.332 C  
BRANCH   6   7
HETATM    7  N   UNL     1      -8.578  17.607  66.695  1.00  0.00    -0.248 N  
HETATM    8  C   UNL     1      -7.421  18.311  66.024  1.00  0.00    -0.220 C  
HETATM    9  C   UNL     1      -8.278  17.423  68.179  1.00  0.00    -0.238 C  
HETATM   10  C   UNL     1      -9.850  18.437  66.575  1.00  0.00    -0.359 C  
ENDBRANCH   6   7
ENDBRANCH   5   6
BRANCH   5  11
HETATM   11  C   UNL     1     -10.619  14.720  65.096  1.00  0.00    -0.439 C  
HETATM   12  C   UNL     1     -11.669  15.380  64.206  1.00  0.00    -0.206 C  
HETATM   13  O   UNL     1     -11.592  16.635  64.110  1.00  0.00    -1.102 OA 
HETATM   14  O   UNL     1     -12.553  14.594  63.779  1.00  0.00    -0.820 OA 
ENDBRANCH   5  11
ENDBRANCH   4   5
ENDBRANCH   2   4
TORSDOF 5
ENDMDL
MODEL        7
REMARK 921   NORMALIZED FREE ENERGY PREDICTED BY IDOCK:   -4.18 KCAL/MOL
REMARK 922        TOTAL FREE ENERGY PREDICTED BY IDOCK:   -6.01 KCAL/MOL
REMARK 923 INTER-LIGAND FREE ENERGY PREDICTED BY IDOCK:   -5.46 KCAL/MOL
REMARK 924 INTRA-LIGAND FREE ENERGY PREDICTED BY IDOCK:   -0.56 KCAL/MOL
REMARK 927      BINDING AFFINITY PREDICTED BY RF-SCORE:    0.00 PKD
ROOT
HETATM    1  C   UNL     1     -12.105  11.912  63.466  1.00  0.00    -0.575 C  
HETATM    2  C   UNL     1     -10.610  11.843  63.351  1.00  0.00    -0.430 C  
HETATM    3  O   UNL     1      -9.988  10.924  62.845  1.00  0.00    -0.302 OA 
ENDROOT
BRANCH   2   4
HETATM    4  O   UNL     1     -10.074  12.988  63.838  1.00  0.00    -0.365 OA 
BRANCH   4   5
HETATM    5  C   UNL     1     -10.507  13.443  65.136  1.00  0.00    -0.347 C  
BRANCH   5   6
HETATM    6  C   UNL     1      -9.585  12.859  66.238  1.00  0.00    -0.243 C  
BRANCH   6   7
HETATM    7  N   UNL     1     -10.294  11.906  67.262  1.00  0.00    -0.203 N  
HETATM    8  C   UNL     1     -11.724  12.325  67.514  1.00  0.00    -0.332 C  
HETATM    9  C   UNL     1      -9.498  11.990  68.561  1.00  0.00    -0.133 C  
HETATM   10  C   UNL     1     -10.238  10.464  66.773  1.00  0.00    -0.226 C  
ENDBRANCH   6   7
ENDBRANCH   5   6
BRANCH   5  11
HETATM   11  C   UNL     1     -10.518  14.969  65.193  1.00  0.00    -0.438 C  
HETATM   12  C   UNL     1     -11.761  15.558  64.529  1.00  0.00    -0.253 C  
HETATM   13  O   UNL     1     -12.815  14.875  64.641  1.00  0.00    -0.405 OA 
HETATM   14  O   UNL     1     -11.543  16.594  63.851  1.00  0.00    -1.204 OA 
ENDBRANCH   5  11
ENDBRANCH   4   5
ENDBRANCH   2   4
TORSDOF 5
ENDMDL
MODEL        8
REMARK 921   NORMALIZED FREE ENERGY PREDICTED BY IDOCK:   -4.18 KCAL/MOL
REMARK 922        TOTAL FREE ENERGY PREDICTED BY IDOCK:   -6.01 KCAL/MOL
REMARK 923 INTER-LIGAND FREE ENERGY PREDICTED BY IDOCK:   -5.45 KCAL/MOL
REMARK 924 INTRA-LIGAND FREE ENERGY PREDICTED BY IDOCK:   -0.55 KCAL/MOL
REMARK 927      BINDING AFFINITY PREDICTED BY RF-SCORE:    0.00 PKD
ROOT
HETATM    1  C   UNL     1     -10.186  10.298  65.899  1.00  0.00    -0.293 C  
HETATM    2  C   UNL     1     -10.781  11.470  66.626  1.00  0.00    -0.268 C  
HETATM    3  O   UNL     1     -11.818  11.444  67.266  1.00  0.00    -0.594 OA 
ENDROOT
BRANCH   2   4
HETATM    4  O   UNL     1      -9.950  12.533  66.508  1.00  0.00    -0.233 OA 
BRANCH   4   5
HETATM    5  C   UNL     1     -10.538  13.842  66.355  1.00  0.00    -0.284 C  
BRANCH   5   6
HETATM    6  C   UNL     1      -9.621  14.914  66.998  1.00  0.00    -0.238 C  
BRANCH   6   7
HETATM    7  N   UNL     1     -10.308  15.814  68.083  1.00  0.00    -0.237 N  
HETATM    8  C   UNL     1     -10.480  17.236  67.600  1.00  0.00    -0.363 C  
HETATM    9  C   UNL     1      -9.399  15.793  69.307  1.00  0.00    -0.261 C  
HETATM   10  C   UNL     1     -11.652  15.222  68.490  1.00  0.00    -0.352 C  
ENDBRANCH   6   7
ENDBRANCH   5   6
BRANCH   5  11
HETATM   11  C   UNL     1     -10.781  14.150  64.879  1.00  0.00    -0.444 C  
HETATM   12  C   UNL     1     -12.232  13.901  64.473  1.00  0.00    -0.417 C  
HETATM   13  O   UNL     1     -13.096  14.142  65.359  1.00  0.00    -0.743 OA 
HETATM   14  O   UNL     1     -12.368  13.372  63.340  1.00  0.00    -0.728 OA 
ENDBRANCH   5  11
ENDBRANCH   4   5
ENDBRANCH   2   4
TORSDOF 5
ENDMDL
MODEL        9
REMARK 921   NORMALIZED FREE ENERGY PREDICTED BY IDOCK:   -4.12 KCAL/MOL
REMARK 922        TOTAL FREE ENERGY PREDICTED BY IDOCK:   -5.93 KCAL/MOL
REMARK 923 INTER-LIGAND FREE ENERGY PREDICTED BY IDOCK:   -5.62 KCAL/MOL
REMARK 924 INTRA-LIGAND FREE ENERGY PREDICTED BY IDOCK:   -0.30 KCAL/MOL
REMARK 927      BINDING AFFINITY PREDICTED BY RF-SCORE:    0.00 PKD
ROOT
HETATM    1  C   UNL     1     -11.081  10.356  69.718  1.00  0.00    -0.352 C  
HETATM    2  C   UNL     1     -11.874  11.577  69.349  1.00  0.00    -0.350 C  
HETATM    3  O   UNL     1     -12.190  12.466  70.121  1.00  0.00    -0.296 OA 
ENDROOT
BRANCH   2   4
HETATM    4  O   UNL     1     -12.125  11.558  68.019  1.00  0.00    -0.617 OA 
BRANCH   4   5
HETATM    5  C   UNL     1     -11.645  12.660  67.221  1.00  0.00    -0.364 C  
BRANCH   5   6
HETATM    6  C   UNL     1     -10.245  13.104  67.717  1.00  0.00    -0.231 C  
BRANCH   6   7
HETATM    7  N   UNL     1     -10.020  14.655  67.774  1.00  0.00    -0.223 N  
HETATM    8  C   UNL     1      -9.014  15.034  68.837  1.00  0.00    -0.202 C  
HETATM    9  C   UNL     1     -11.371  15.281  68.099  1.00  0.00    -0.338 C  
HETATM   10  C   UNL     1      -9.579  15.178  66.412  1.00  0.00    -0.284 C  
ENDBRANCH   6   7
ENDBRANCH   5   6
BRANCH   5  11
HETATM   11  C   UNL     1     -11.599  12.273  65.744  1.00  0.00    -0.443 C  
HETATM   12  C   UNL     1     -12.734  12.912  64.948  1.00  0.00    -0.403 C  
HETATM   13  O   UNL     1     -13.088  14.061  65.329  1.00  0.00    -0.782 OA 
HETATM   14  O   UNL     1     -13.251  12.156  64.086  1.00  0.00    -0.740 OA 
ENDBRANCH   5  11
ENDBRANCH   4   5
ENDBRANCH   2   4
TORSDOF 5
ENDMDL
MODEL       10
REMARK 921   NORMALIZED FREE ENERGY PREDICTED BY IDOCK:   -4.11 KCAL/MOL
REMARK 922        TOTAL FREE ENERGY PREDICTED BY IDOCK:   -5.92 KCAL/MOL
REMARK 923 INTER-LIGAND FREE ENERGY PREDICTED BY IDOCK:   -5.51 KCAL/MOL
REMARK 924 INTRA-LIGAND FREE ENERGY PREDICTED BY IDOCK:   -0.42 KCAL/MOL
REMARK 927      BINDING AFFINITY PREDICTED BY RF-SCORE:    0.00 PKD
ROOT
HETATM    1  C   UNL     1      -9.126  15.424  66.086  1.00  0.00    -0.339 C  
HETATM    2  C   UNL     1     -10.536  15.647  65.618  1.00  0.00    -0.382 C  
HETATM    3  O   UNL     1     -10.851  16.256  64.610  1.00  0.00    -0.687 OA 
ENDROOT
BRANCH   2   4
HETATM    4  O   UNL     1     -11.388  15.011  66.457  1.00  0.00    -0.341 OA 
BRANCH   4   5
HETATM    5  C   UNL     1     -11.514  13.579  66.341  1.00  0.00    -0.331 C  
BRANCH   5   6
HETATM    6  C   UNL     1     -11.887  12.966  67.716  1.00  0.00    -0.339 C  
BRANCH   6   7
HETATM    7  N   UNL     1     -10.967  11.789  68.192  1.00  0.00    -0.213 N  
HETATM    8  C   UNL     1     -11.403  11.249  69.535  1.00  0.00    -0.294 C  
HETATM    9  C   UNL     1      -9.555  12.355  68.300  1.00  0.00    -0.211 C  
HETATM   10  C   UNL     1     -10.946  10.677  67.151  1.00  0.00    -0.247 C  
ENDBRANCH   6   7
ENDBRANCH   5   6
BRANCH   5  11
HETATM   11  C   UNL     1     -12.557  13.216  65.286  1.00  0.00    -0.531 C  
HETATM   12  C   UNL     1     -11.943  13.085  63.895  1.00  0.00    -0.485 C  
HETATM   13  O   UNL     1     -10.767  12.632  63.858  1.00  0.00    -0.391 OA 
HETATM   14  O   UNL     1     -12.650  13.561  62.970  1.00  0.00    -0.716 OA 
ENDBRANCH   5  11
ENDBRANCH   4   5
ENDBRANCH   2   4
TORSDOF 5
ENDMDL
MODEL       11
REMARK 921   NORMALIZED FREE ENERGY PREDICTED BY IDOCK:   -4.08 KCAL/MOL
REMARK 922        TOTAL FREE ENERGY PREDICTED BY IDOCK:   -5.88 KCAL/MOL
REMARK 923 INTER-LIGAND FREE ENERGY PREDICTED BY IDOCK:   -5.24 KCAL/MOL
REMARK 924 INTRA-LIGAND FREE ENERGY PREDICTED BY IDOCK:   -0.64 KCAL/MOL
REMARK 927      BINDING AFFINITY PREDICTED BY RF-SCORE:    0.00 PKD
ROOT
HETATM    1  C   UNL     1     -12.283  14.641  64.491  1.00  0.00    -0.473 C  
HETATM    2  C   UNL     1     -11.186  15.659  64.614  1.00  0.00    -0.369 C  
HETATM    3  O   UNL     1     -11.268  16.823  64.259  1.00  0.00    -1.163 OA 
ENDROOT
BRANCH   2   4
HETATM    4  O   UNL     1     -10.123  15.094  65.234  1.00  0.00    -0.348 OA 
BRANCH   4   5
HETATM    5  C   UNL     1     -10.205  14.873  66.657  1.00  0.00    -0.261 C  
BRANCH   5   6
HETATM    6  C   UNL     1      -9.488  13.549  67.030  1.00  0.00    -0.251 C  
BRANCH   6   7
HETATM    7  N   UNL     1     -10.428  12.302  67.178  1.00  0.00    -0.218 N  
HETATM    8  C   UNL     1     -10.632  11.599  65.856  1.00  0.00    -0.271 C  
HETATM    9  C   UNL     1     -11.765  12.822  67.696  1.00  0.00    -0.367 C  
HETATM   10  C   UNL     1      -9.869  11.336  68.216  1.00  0.00    -0.197 C  
ENDBRANCH   6   7
ENDBRANCH   5   6
BRANCH   5  11
HETATM   11  C   UNL     1      -9.599  16.050  67.419  1.00  0.00    -0.225 C  
HETATM   12  C   UNL     1     -10.665  16.887  68.122  1.00  0.00    -0.375 C  
HETATM   13  O   UNL     1     -11.661  16.248  68.558  1.00  0.00    -0.346 OA 
HETATM   14  O   UNL     1     -10.466  18.127  68.070  1.00  0.00    -0.377 OA 
ENDBRANCH   5  11
ENDBRANCH   4   5
ENDBRANCH   2   4
TORSDOF 5
ENDMDL
MODEL       12
REMARK 921   NORMALIZED FREE ENERGY PREDICTED BY IDOCK:   -4.07 KCAL/MOL
REMARK 922        TOTAL FREE ENERGY PREDICTED BY IDOCK:   -5.86 KCAL/MOL
REMARK 923 INTER-LIGAND FREE ENERGY PREDICTED BY IDOCK:   -5.27 KCAL/MOL
REMARK 924 INTRA-LIGAND FREE ENERGY PREDICTED BY IDOCK:   -0.59 KCAL/MOL
REMARK 927      BINDING AFFINITY PREDICTED BY RF-SCORE:    0.00 PKD
ROOT
HETATM    1  C   UNL     1     -12.059  12.570  63.571  1.00  0.00    -0.653 C  
HETATM    2  C   UNL     1     -12.148  13.752  64.494  1.00  0.00    -0.428 C  
HETATM    3  O   UNL     1     -13.149  14.092  65.100  1.00  0.00    -0.757 OA 
ENDROOT
BRANCH   2   4
HETATM    4  O   UNL     1     -10.929  14.333  64.590  1.00  0.00    -0.391 OA 
BRANCH   4   5
HETATM    5  C   UNL     1     -10.368  14.524  65.905  1.00  0.00    -0.319 C  
BRANCH   5   6
HETATM    6  C   UNL     1      -9.655  13.229  66.372  1.00  0.00    -0.254 C  
BRANCH   6   7
HETATM    7  N   UNL     1     -10.397  12.429  67.498  1.00  0.00    -0.213 N  
HETATM    8  C   UNL     1     -11.357  13.309  68.266  1.00  0.00    -0.300 C  
HETATM    9  C   UNL     1      -9.320  11.900  68.440  1.00  0.00    -0.184 C  
HETATM   10  C   UNL     1     -11.129  11.232  66.905  1.00  0.00    -0.275 C  
ENDBRANCH   6   7
ENDBRANCH   5   6
BRANCH   5  11
HETATM   11  C   UNL     1      -9.401  15.706  65.909  1.00  0.00    -0.357 C  
HETATM   12  C   UNL     1     -10.027  16.958  66.519  1.00  0.00    -0.301 C  
HETATM   13  O   UNL     1     -10.843  16.757  67.459  1.00  0.00    -0.307 OA 
HETATM   14  O   UNL     1      -9.737  18.026  65.922  1.00  0.00    -0.530 OA 
ENDBRANCH   5  11
ENDBRANCH   4   5
ENDBRANCH   2   4
TORSDOF 5
ENDMDL
MODEL       13
REMARK 921   NORMALIZED FREE ENERGY PREDICTED BY IDOCK:   -4.05 KCAL/MOL
REMARK 922        TOTAL FREE ENERGY PREDICTED BY IDOCK:   -5.84 KCAL/MOL
REMARK 923 INTER-LIGAND FREE ENERGY PREDICTED BY IDOCK:   -5.24 KCAL/MOL
REMARK 924 INTRA-LIGAND FREE ENERGY PREDICTED BY IDOCK:   -0.60 KCAL/MOL
REMARK 927      BINDING AFFINITY PREDICTED BY RF-SCORE:    0.00 PKD
ROOT
HETATM    1  C   UNL     1     -12.039  14.614  64.240  1.00  0.00    -0.437 C  
HETATM    2  C   UNL     1     -12.629  13.629  65.208  1.00  0.00    -0.469 C  
HETATM    3  O   UNL     1     -12.972  12.492  64.929  1.00  0.00    -0.821 OA 
ENDROOT
BRANCH   2   4
HETATM    4  O   UNL     1     -12.660  14.184  66.443  1.00  0.00    -0.427 OA 
BRANCH   4   5
HETATM    5  C   UNL     1     -11.453  14.152  67.233  1.00  0.00    -0.350 C  
BRANCH   5   6
HETATM    6  C   UNL     1     -11.102  15.582  67.721  1.00  0.00    -0.315 C  
BRANCH   6   7
HETATM    7  N   UNL     1      -9.661  16.077  67.349  1.00  0.00    -0.230 N  
HETATM    8  C   UNL     1      -8.883  15.017  66.604  1.00  0.00    -0.272 C  
HETATM    9  C   UNL     1      -8.958  16.402  68.663  1.00  0.00    -0.233 C  
HETATM   10  C   UNL     1      -9.735  17.359  66.529  1.00  0.00    -0.293 C  
ENDBRANCH   6   7
ENDBRANCH   5   6
BRANCH   5  11
HETATM   11  C   UNL     1     -11.611  13.199  68.416  1.00  0.00    -0.372 C  
HETATM   12  C   UNL     1     -11.281  11.757  68.038  1.00  0.00    -0.263 C  
HETATM   13  O   UNL     1     -10.370  11.613  67.178  1.00  0.00    -0.209 OA 
HETATM   14  O   UNL     1     -12.047  10.900  68.548  1.00  0.00    -0.545 OA 
ENDBRANCH   5  11
ENDBRANCH   4   5
ENDBRANCH   2   4
TORSDOF 5
ENDMDL
MODEL       14
REMARK 921   NORMALIZED FREE ENERGY PREDICTED BY IDOCK:   -4.02 KCAL/MOL
REMARK 922        TOTAL FREE ENERGY PREDICTED BY IDOCK:   -5.81 KCAL/MOL
REMARK 923 INTER-LIGAND FREE ENERGY PREDICTED BY IDOCK:   -5.17 KCAL/MOL
REMARK 924 INTRA-LIGAND FREE ENERGY PREDICTED BY IDOCK:   -0.64 KCAL/MOL
REMARK 927      BINDING AFFINITY PREDICTED BY RF-SCORE:    0.00 PKD
ROOT
HETATM    1  C   UNL     1     -11.488  12.920  64.549  1.00  0.00    -0.389 C  
HETATM    2  C   UNL     1     -12.245  14.181  64.852  1.00  0.00    -0.438 C  
HETATM    3  O   UNL     1     -12.500  15.056  64.042  1.00  0.00    -0.796 OA 
ENDROOT
BRANCH   2   4
HETATM    4  O   UNL     1     -12.649  14.157  66.144  1.00  0.00    -0.465 OA 
BRANCH   4   5
HETATM    5  C   UNL     1     -11.642  14.256  67.173  1.00  0.00    -0.380 C  
BRANCH   5   6
HETATM    6  C   UNL     1     -11.458  15.737  67.594  1.00  0.00    -0.119 C  
BRANCH   6   7
HETATM    7  N   UNL     1     -10.070  16.366  67.222  1.00  0.00    -0.264 N  
HETATM    8  C   UNL     1     -10.224  17.537  66.279  1.00  0.00    -0.355 C  
HETATM    9  C   UNL     1      -9.258  15.266  66.547  1.00  0.00    -0.290 C  
HETATM   10  C   UNL     1      -9.325  16.791  68.482  1.00  0.00    -0.246 C  
ENDBRANCH   6   7
ENDBRANCH   5   6
BRANCH   5  11
HETATM   11  C   UNL     1     -12.020  13.394  68.377  1.00  0.00    -0.359 C  
HETATM   12  C   UNL     1     -11.429  11.990  68.283  1.00  0.00    -0.303 C  
HETATM   13  O   UNL     1     -10.300  11.908  67.728  1.00  0.00    -0.192 OA 
HETATM   14  O   UNL     1     -12.204  11.076  68.667  1.00  0.00    -0.571 OA 
ENDBRANCH   5  11
ENDBRANCH   4   5
ENDBRANCH   2   4
TORSDOF 5
ENDMDL
MODEL       15
REMARK 921   NORMALIZED FREE ENERGY PREDICTED BY IDOCK:   -4.01 KCAL/MOL
REMARK 922        TOTAL FREE ENERGY PREDICTED BY IDOCK:   -5.79 KCAL/MOL
REMARK 923 INTER-LIGAND FREE ENERGY PREDICTED BY IDOCK:   -5.15 KCAL/MOL
REMARK 924 INTRA-LIGAND FREE ENERGY PREDICTED BY IDOCK:   -0.64 KCAL/MOL
REMARK 927      BINDING AFFINITY PREDICTED BY RF-SCORE:    0.00 PKD
ROOT
HETATM    1  C   UNL     1     -10.990  13.439  64.424  1.00  0.00    -0.413 C  
HETATM    2  C   UNL     1     -12.333  13.295  65.080  1.00  0.00    -0.448 C  
HETATM    3  O   UNL     1     -13.222  12.551  64.700  1.00  0.00    -0.848 OA 
ENDROOT
BRANCH   2   4
HETATM    4  O   UNL     1     -12.371  14.072  66.188  1.00  0.00    -0.448 OA 
BRANCH   4   5
HETATM    5  C   UNL     1     -11.325  13.912  67.168  1.00  0.00    -0.327 C  
BRANCH   5   6
HETATM    6  C   UNL     1     -11.055  15.262  67.881  1.00  0.00    -0.321 C  
BRANCH   6   7
HETATM    7  N   UNL     1      -9.797  16.046  67.369  1.00  0.00    -0.234 N  
HETATM    8  C   UNL     1      -9.301  17.037  68.397  1.00  0.00    -0.266 C  
HETATM    9  C   UNL     1     -10.228  16.787  66.107  1.00  0.00    -0.351 C  
HETATM   10  C   UNL     1      -8.687  15.076  66.984  1.00  0.00    -0.237 C  
ENDBRANCH   6   7
ENDBRANCH   5   6
BRANCH   5  11
HETATM   11  C   UNL     1     -11.698  12.830  68.179  1.00  0.00    -0.392 C  
HETATM   12  C   UNL     1     -11.019  11.498  67.870  1.00  0.00    -0.233 C  
HETATM   13  O   UNL     1      -9.865  11.577  67.368  1.00  0.00    -0.184 OA 
HETATM   14  O   UNL     1     -11.751  10.491  68.046  1.00  0.00    -0.450 OA 
ENDBRANCH   5  11
ENDBRANCH   4   5
ENDBRANCH   2   4
TORSDOF 5
ENDMDL
MODEL       16
REMARK 921   NORMALIZED FREE ENERGY PREDICTED BY IDOCK:   -4.00 KCAL/MOL
REMARK 922        TOTAL FREE ENERGY PREDICTED BY IDOCK:   -5.78 KCAL/MOL
REMARK 923 INTER-LIGAND FREE ENERGY PREDICTED BY IDOCK:   -5.20 KCAL/MOL
REMARK 924 INTRA-LIGAND FREE ENERGY PREDICTED BY IDOCK:   -0.58 KCAL/MOL
REMARK 927      BINDING AFFINITY PREDICTED BY RF-SCORE:    0.00 PKD
ROOT
HETATM    1  C   UNL     1     -11.370  11.912  67.297  1.00  0.00    -0.393 C  
HETATM    2  C   UNL     1     -10.083  12.686  67.258  1.00  0.00    -0.214 C  
HETATM    3  O   UNL     1      -9.199  12.617  68.095  1.00  0.00    -0.201 OA 
ENDROOT
BRANCH   2   4
HETATM    4  O   UNL     1     -10.040  13.419  66.120  1.00  0.00    -0.289 OA 
BRANCH   4   5
HETATM    5  C   UNL     1     -10.599  14.749  66.145  1.00  0.00    -0.311 C  
BRANCH   5   6
HETATM    6  C   UNL     1      -9.513  15.773  66.566  1.00  0.00    -0.272 C  
BRANCH   6   7
HETATM    7  N   UNL     1      -9.928  16.745  67.724  1.00  0.00    -0.261 N  
HETATM    8  C   UNL     1      -8.824  16.898  68.745  1.00  0.00    -0.255 C  
HETATM    9  C   UNL     1     -11.159  16.135  68.387  1.00  0.00    -0.359 C  
HETATM   10  C   UNL     1     -10.326  18.103  67.161  1.00  0.00    -0.379 C  
ENDBRANCH   6   7
ENDBRANCH   5   6
BRANCH   5  11
HETATM   11  C   UNL     1     -11.184  15.110  64.782  1.00  0.00    -0.396 C  
HETATM   12  C   UNL     1     -12.506  14.393  64.517  1.00  0.00    -0.339 C  
HETATM   13  O   UNL     1     -13.233  14.199  65.529  1.00  0.00    -0.688 OA 
HETATM   14  O   UNL     1     -12.644  13.981  63.337  1.00  0.00    -0.845 OA 
ENDBRANCH   5  11
ENDBRANCH   4   5
ENDBRANCH   2   4
TORSDOF 5
ENDMDL
MODEL       17
REMARK 921   NORMALIZED FREE ENERGY PREDICTED BY IDOCK:   -4.00 KCAL/MOL
REMARK 922        TOTAL FREE ENERGY PREDICTED BY IDOCK:   -5.78 KCAL/MOL
REMARK 923 INTER-LIGAND FREE ENERGY PREDICTED BY IDOCK:   -5.25 KCAL/MOL
REMARK 924 INTRA-LIGAND FREE ENERGY PREDICTED BY IDOCK:   -0.54 KCAL/MOL
REMARK 927      BINDING AFFINITY PREDICTED BY RF-SCORE:    0.00 PKD
ROOT
HETATM    1  C   UNL     1     -11.067  15.919  68.474  1.00  0.00    -0.340 C  
HETATM    2  C   UNL     1     -11.573  14.509  68.371  1.00  0.00    -0.326 C  
HETATM    3  O   UNL     1     -11.524  13.681  69.265  1.00  0.00    -0.261 OA 
ENDROOT
BRANCH   2   4
HETATM    4  O   UNL     1     -12.146  14.330  67.158  1.00  0.00    -0.423 OA 
BRANCH   4   5
HETATM    5  C   UNL     1     -11.372  13.680  66.129  1.00  0.00    -0.312 C  
BRANCH   5   6
HETATM    6  C   UNL     1     -11.671  12.159  66.121  1.00  0.00    -0.315 C  
BRANCH   6   7
HETATM    7  N   UNL     1     -10.416  11.232  66.277  1.00  0.00    -0.251 N  
HETATM    8  C   UNL     1      -9.208  12.007  66.753  1.00  0.00    -0.201 C  
HETATM    9  C   UNL     1     -10.136  10.639  64.901  1.00  0.00    -0.335 C  
HETATM   10  C   UNL     1     -10.720  10.082  67.229  1.00  0.00    -0.244 C  
ENDBRANCH   6   7
ENDBRANCH   5   6
BRANCH   5  11
HETATM   11  C   UNL     1     -11.668  14.298  64.764  1.00  0.00    -0.420 C  
HETATM   12  C   UNL     1     -11.130  15.722  64.650  1.00  0.00    -0.361 C  
HETATM   13  O   UNL     1     -10.056  15.950  65.270  1.00  0.00    -0.433 OA 
HETATM   14  O   UNL     1     -11.894  16.518  64.047  1.00  0.00    -1.022 OA 
ENDBRANCH   5  11
ENDBRANCH   4   5
ENDBRANCH   2   4
TORSDOF 5
ENDMDL
MODEL       18
REMARK 921   NORMALIZED FREE ENERGY PREDICTED BY IDOCK:   -3.99 KCAL/MOL
REMARK 922        TOTAL FREE ENERGY PREDICTED BY IDOCK:   -5.77 KCAL/MOL
REMARK 923 INTER-LIGAND FREE ENERGY PREDICTED BY IDOCK:   -5.40 KCAL/MOL
REMARK 924 INTRA-LIGAND FREE ENERGY PREDICTED BY IDOCK:   -0.37 KCAL/MOL
REMARK 927      BINDING AFFINITY PREDICTED BY RF-SCORE:    0.00 PKD
ROOT
HETATM    1  C   UNL     1     -11.637  14.603  68.772  1.00  0.00    -0.346 C  
HETATM    2  C   UNL     1     -10.757  15.809  68.940  1.00  0.00    -0.248 C  
HETATM    3  O   UNL     1     -10.898  16.664  69.798  1.00  0.00    -0.333 OA 
ENDROOT
BRANCH   2   4
HETATM    4  O   UNL     1      -9.754  15.757  68.032  1.00  0.00    -0.210 OA 
BRANCH   4   5
HETATM    5  C   UNL     1      -9.969  16.373  66.746  1.00  0.00    -0.272 C  
BRANCH   5   6
HETATM    6  C   UNL     1      -8.785  17.316  66.405  1.00  0.00    -0.250 C  
BRANCH   6   7
HETATM    7  N   UNL     1      -8.914  18.775  66.965  1.00  0.00    -0.284 N  
HETATM    8  C   UNL     1      -8.449  18.864  68.400  1.00  0.00    -0.350 C  
HETATM    9  C   UNL     1     -10.390  19.147  66.879  1.00  0.00    -0.416 C  
HETATM   10  C   UNL     1      -8.135  19.750  66.090  1.00  0.00    -0.342 C  
ENDBRANCH   6   7
ENDBRANCH   5   6
BRANCH   5  11
HETATM   11  C   UNL     1     -10.143  15.309  65.664  1.00  0.00    -0.401 C  
HETATM   12  C   UNL     1     -11.246  15.673  64.674  1.00  0.00    -0.369 C  
HETATM   13  O   UNL     1     -11.377  16.903  64.431  1.00  0.00    -1.133 OA 
HETATM   14  O   UNL     1     -11.963  14.703  64.319  1.00  0.00    -0.444 OA 
ENDBRANCH   5  11
ENDBRANCH   4   5
ENDBRANCH   2   4
TORSDOF 5
ENDMDL
MODEL       19
REMARK 921   NORMALIZED FREE ENERGY PREDICTED BY IDOCK:   -3.99 KCAL/MOL
REMARK 922        TOTAL FREE ENERGY PREDICTED BY IDOCK:   -5.77 KCAL/MOL
REMARK 923 INTER-LIGAND FREE ENERGY PREDICTED BY IDOCK:   -5.62 KCAL/MOL
REMARK 924 INTRA-LIGAND FREE ENERGY PREDICTED BY IDOCK:   -0.14 KCAL/MOL
REMARK 927      BINDING AFFINITY PREDICTED BY RF-SCORE:    0.00 PKD
ROOT
HETATM    1  C   UNL     1     -11.800  13.258  69.132  1.00  0.00    -0.378 C  
HETATM    2  C   UNL     1     -11.901  12.729  67.730  1.00  0.00    -0.332 C  
HETATM    3  O   UNL     1     -11.765  11.560  67.412  1.00  0.00    -0.567 OA 
ENDROOT
BRANCH   2   4
HETATM    4  O   UNL     1     -12.227  13.745  66.895  1.00  0.00    -0.410 OA 
BRANCH   4   5
HETATM    5  C   UNL     1     -11.277  14.119  65.876  1.00  0.00    -0.313 C  
BRANCH   5   6
HETATM    6  C   UNL     1      -9.908  14.451  66.522  1.00  0.00    -0.287 C  
BRANCH   6   7
HETATM    7  N   UNL     1      -9.594  15.980  66.667  1.00  0.00    -0.226 N  
HETATM    8  C   UNL     1      -9.932  16.491  68.049  1.00  0.00    -0.245 C  
HETATM    9  C   UNL     1     -10.448  16.702  65.629  1.00  0.00    -0.297 C  
HETATM   10  C   UNL     1      -8.131  16.255  66.340  1.00  0.00    -0.299 C  
ENDBRANCH   6   7
ENDBRANCH   5   6
BRANCH   5  11
HETATM   11  C   UNL     1     -11.132  13.002  64.843  1.00  0.00    -0.326 C  
HETATM   12  C   UNL     1     -12.200  13.086  63.755  1.00  0.00    -0.460 C  
HETATM   13  O   UNL     1     -12.564  14.251  63.437  1.00  0.00    -0.777 OA 
HETATM   14  O   UNL     1     -12.665  11.973  63.400  1.00  0.00    -0.706 OA 
ENDBRANCH   5  11
ENDBRANCH   4   5
ENDBRANCH   2   4
TORSDOF 5
ENDMDL
MODEL       20
REMARK 921   NORMALIZED FREE ENERGY PREDICTED BY IDOCK:   -3.98 KCAL/MOL
REMARK 922        TOTAL FREE ENERGY PREDICTED BY IDOCK:   -5.75 KCAL/MOL
REMARK 923 INTER-LIGAND FREE ENERGY PREDICTED BY IDOCK:   -5.23 KCAL/MOL
REMARK 924 INTRA-LIGAND FREE ENERGY PREDICTED BY IDOCK:   -0.52 KCAL/MOL
REMARK 927      BINDING AFFINITY PREDICTED BY RF-SCORE:    0.00 PKD
ROOT
HETATM    1  C   UNL     1     -10.536  18.120  66.170  1.00  0.00    -0.377 C  
HETATM    2  C   UNL     1     -10.679  17.043  65.133  1.00  0.00    -0.053 C  
HETATM    3  O   UNL     1     -11.486  17.055  64.219  1.00  0.00    -1.124 OA 
ENDROOT
BRANCH   2   4
HETATM    4  O   UNL     1      -9.732  16.097  65.340  1.00  0.00    -0.453 OA 
BRANCH   4   5
HETATM    5  C   UNL     1     -10.148  14.824  65.875  1.00  0.00    -0.321 C  
BRANCH   5   6
HETATM    6  C   UNL     1     -10.351  13.805  64.723  1.00  0.00    -0.398 C  
BRANCH   6   7
HETATM    7  N   UNL     1     -11.636  12.915  64.841  1.00  0.00    -0.314 N  
HETATM    8  C   UNL     1     -12.094  12.416  63.490  1.00  0.00    -0.558 C  
HETATM    9  C   UNL     1     -12.720  13.791  65.460  1.00  0.00    -0.488 C  
HETATM   10  C   UNL     1     -11.387  11.744  65.785  1.00  0.00    -0.250 C  
ENDBRANCH   6   7
ENDBRANCH   5   6
BRANCH   5  11
HETATM   11  C   UNL     1      -9.124  14.305  66.883  1.00  0.00    -0.268 C  
HETATM   12  C   UNL     1      -9.536  14.602  68.323  1.00  0.00    -0.211 C  
HETATM   13  O   UNL     1     -10.775  14.574  68.552  1.00  0.00    -0.236 OA 
HETATM   14  O   UNL     1      -8.588  14.954  69.070  1.00  0.00    -0.180 OA 
ENDBRANCH   5  11
ENDBRANCH   4   5
ENDBRANCH   2   4
TORSDOF 5
ENDMDL
MODEL       21
REMARK 921   NORMALIZED FREE ENERGY PREDICTED BY IDOCK:   -3.91 KCAL/MOL
REMARK 922        TOTAL FREE ENERGY PREDICTED BY IDOCK:   -5.66 KCAL/MOL
REMARK 923 INTER-LIGAND FREE ENERGY PREDICTED BY IDOCK:   -5.63 KCAL/MOL
REMARK 924 INTRA-LIGAND FREE ENERGY PREDICTED BY IDOCK:   -0.02 KCAL/MOL
REMARK 927      BINDING AFFINITY PREDICTED BY RF-SCORE:    0.00 PKD
ROOT
HETATM    1  C   UNL     1     -10.029  17.480  66.386  1.00  0.00    -0.330 C  
HETATM    2  C   UNL     1     -10.690  16.620  65.348  1.00  0.00    -0.215 C  
HETATM    3  O   UNL     1     -11.396  17.032  64.443  1.00  0.00    -1.140 OA 
ENDROOT
BRANCH   2   4
HETATM    4  O   UNL     1     -10.326  15.330  65.543  1.00  0.00    -0.323 OA 
BRANCH   4   5
HETATM    5  C   UNL     1     -11.269  14.447  66.185  1.00  0.00    -0.336 C  
BRANCH   5   6
HETATM    6  C   UNL     1     -11.747  15.065  67.525  1.00  0.00    -0.253 C  
BRANCH   6   7
HETATM    7  N   UNL     1     -11.204  14.358  68.815  1.00  0.00    -0.247 N  
HETATM    8  C   UNL     1     -12.165  14.501  69.974  1.00  0.00    -0.342 C  
HETATM    9  C   UNL     1      -9.880  15.032  69.159  1.00  0.00    -0.223 C  
HETATM   10  C   UNL     1     -10.921  12.887  68.535  1.00  0.00    -0.259 C  
ENDBRANCH   6   7
ENDBRANCH   5   6
BRANCH   5  11
HETATM   11  C   UNL     1     -12.455  14.166  65.265  1.00  0.00    -0.474 C  
HETATM   12  C   UNL     1     -12.039  13.399  64.012  1.00  0.00    -0.449 C  
HETATM   13  O   UNL     1     -11.100  12.572  64.166  1.00  0.00    -0.324 OA 
HETATM   14  O   UNL     1     -12.610  13.779  62.959  1.00  0.00    -0.721 OA 
ENDBRANCH   5  11
ENDBRANCH   4   5
ENDBRANCH   2   4
TORSDOF 5
ENDMDL
MODEL       22
REMARK 921   NORMALIZED FREE ENERGY PREDICTED BY IDOCK:   -3.91 KCAL/MOL
REMARK 922        TOTAL FREE ENERGY PREDICTED BY IDOCK:   -5.66 KCAL/MOL
REMARK 923 INTER-LIGAND FREE ENERGY PREDICTED BY IDOCK:   -5.72 KCAL/MOL
REMARK 924 INTRA-LIGAND FREE ENERGY PREDICTED BY IDOCK:    0.06 KCAL/MOL
REMARK 927      BINDING AFFINITY PREDICTED BY RF-SCORE:    0.00 PKD
ROOT
HETATM    1  C   UNL     1     -10.463  16.821  65.456  1.00  0.00    -0.254 C  
HETATM    2  C   UNL     1     -11.251  15.822  64.658  1.00  0.00    -0.363 C  
HETATM    3  O   UNL     1     -12.197  16.092  63.938  1.00  0.00    -0.935 OA 
ENDROOT
BRANCH   2   4
HETATM    4  O   UNL     1     -10.704  14.594  64.819  1.00  0.00    -0.412 OA 
BRANCH   4   5
HETATM    5  C   UNL     1     -11.278  13.719  65.812  1.00  0.00    -0.297 C  
BRANCH   5   6
HETATM    6  C   UNL     1     -11.689  14.534  67.065  1.00  0.00    -0.393 C  
BRANCH   6   7
HETATM    7  N   UNL     1     -10.959  14.128  68.392  1.00  0.00    -0.246 N  
HETATM    8  C   UNL     1      -9.919  13.058  68.151  1.00  0.00    -0.231 C  
HETATM    9  C   UNL     1     -12.032  13.598  69.337  1.00  0.00    -0.342 C  
HETATM   10  C   UNL     1     -10.325  15.350  69.045  1.00  0.00    -0.243 C  
ENDBRANCH   6   7
ENDBRANCH   5   6
BRANCH   5  11
HETATM   11  C   UNL     1     -12.478  12.969  65.236  1.00  0.00    -0.555 C  
HETATM   12  C   UNL     1     -12.093  12.103  64.040  1.00  0.00    -0.443 C  
HETATM   13  O   UNL     1     -10.942  11.591  64.085  1.00  0.00    -0.347 OA 
HETATM   14  O   UNL     1     -12.933  12.111  63.103  1.00  0.00    -0.659 OA 
ENDBRANCH   5  11
ENDBRANCH   4   5
ENDBRANCH   2   4
TORSDOF 5
ENDMDL
MODEL       23
REMARK 921   NORMALIZED FREE ENERGY PREDICTED BY IDOCK:   -3.90 KCAL/MOL
REMARK 922        TOTAL FREE ENERGY PREDICTED BY IDOCK:   -5.65 KCAL/MOL
REMARK 923 INTER-LIGAND FREE ENERGY PREDICTED BY IDOCK:   -5.07 KCAL/MOL
REMARK 924 INTRA-LIGAND FREE ENERGY PREDICTED BY IDOCK:   -0.58 KCAL/MOL
REMARK 927      BINDING AFFINITY PREDICTED BY RF-SCORE:    0.00 PKD
ROOT
HETATM    1  C   UNL     1     -11.251  15.871  69.830  1.00  0.00    -0.348 C  
HETATM    2  C   UNL     1     -11.319  15.692  68.341  1.00  0.00    -0.364 C  
HETATM    3  O   UNL     1     -10.702  16.357  67.527  1.00  0.00    -0.325 OA 
ENDROOT
BRANCH   2   4
HETATM    4  O   UNL     1     -12.122  14.639  68.057  1.00  0.00    -0.286 OA 
BRANCH   4   5
HETATM    5  C   UNL     1     -11.698  13.716  67.033  1.00  0.00    -0.384 C  
BRANCH   5   6
HETATM    6  C   UNL     1     -11.603  12.283  67.616  1.00  0.00    -0.354 C  
BRANCH   6   7
HETATM    7  N   UNL     1     -10.203  11.593  67.464  1.00  0.00    -0.193 N  
HETATM    8  C   UNL     1     -10.166  10.662  66.274  1.00  0.00    -0.245 C  
HETATM    9  C   UNL     1      -9.964  10.800  68.745  1.00  0.00    -0.193 C  
HETATM   10  C   UNL     1      -9.103  12.643  67.354  1.00  0.00    -0.191 C  
ENDBRANCH   6   7
ENDBRANCH   5   6
BRANCH   5  11
HETATM   11  C   UNL     1     -12.657  13.755  65.844  1.00  0.00    -0.494 C  
HETATM   12  C   UNL     1     -11.959  14.192  64.559  1.00  0.00    -0.458 C  
HETATM   13  O   UNL     1     -10.758  13.827  64.439  1.00  0.00    -0.407 OA 
HETATM   14  O   UNL     1     -12.640  14.964  63.837  1.00  0.00    -0.831 OA 
ENDBRANCH   5  11
ENDBRANCH   4   5
ENDBRANCH   2   4
TORSDOF 5
ENDMDL
MODEL       24
REMARK 921   NORMALIZED FREE ENERGY PREDICTED BY IDOCK:   -3.88 KCAL/MOL
REMARK 922        TOTAL FREE ENERGY PREDICTED BY IDOCK:   -5.63 KCAL/MOL
REMARK 923 INTER-LIGAND FREE ENERGY PREDICTED BY IDOCK:   -5.07 KCAL/MOL
REMARK 924 INTRA-LIGAND FREE ENERGY PREDICTED BY IDOCK:   -0.55 KCAL/MOL
REMARK 927      BINDING AFFINITY PREDICTED BY RF-SCORE:    0.00 PKD
ROOT
HETATM    1  C   UNL     1     -12.105  14.325  64.570  1.00  0.00    -0.499 C  
HETATM    2  C   UNL     1     -11.266  15.570  64.595  1.00  0.00    -0.371 C  
HETATM    3  O   UNL     1     -11.549  16.616  64.037  1.00  0.00    -1.197 OA 
ENDROOT
BRANCH   2   4
HETATM    4  O   UNL     1     -10.186  15.361  65.385  1.00  0.00    -0.350 OA 
BRANCH   4   5
HETATM    5  C   UNL     1     -10.149  16.011  66.672  1.00  0.00    -0.279 C  
BRANCH   5   6
HETATM    6  C   UNL     1      -9.911  14.963  67.790  1.00  0.00    -0.217 C  
BRANCH   6   7
HETATM    7  N   UNL     1     -10.955  14.987  68.959  1.00  0.00    -0.238 N  
HETATM    8  C   UNL     1     -12.154  15.842  68.617  1.00  0.00     0.006 C  
HETATM    9  C   UNL     1     -10.239  15.570  70.173  1.00  0.00    -0.214 C  
HETATM   10  C   UNL     1     -11.392  13.571  69.310  1.00  0.00    -0.262 C  
ENDBRANCH   6   7
ENDBRANCH   5   6
BRANCH   5  11
HETATM   11  C   UNL     1      -9.065  17.087  66.699  1.00  0.00    -0.278 C  
HETATM   12  C   UNL     1      -9.650  18.493  66.598  1.00  0.00    -0.321 C  
HETATM   13  O   UNL     1     -10.771  18.659  67.150  1.00  0.00    -0.421 OA 
HETATM   14  O   UNL     1      -8.989  19.278  65.870  1.00  0.00    -0.434 OA 
ENDBRANCH   5  11
ENDBRANCH   4   5
ENDBRANCH   2   4
TORSDOF 5
ENDMDL
MODEL       25
REMARK 921   NORMALIZED FREE ENERGY PREDICTED BY IDOCK:   -3.85 KCAL/MOL
REMARK 922        TOTAL FREE ENERGY PREDICTED BY IDOCK:   -5.58 KCAL/MOL
REMARK 923 INTER-LIGAND FREE ENERGY PREDICTED BY IDOCK:   -5.00 KCAL/MOL
REMARK 924 INTRA-LIGAND FREE ENERGY PREDICTED BY IDOCK:   -0.57 KCAL/MOL
REMARK 927      BINDING AFFINITY PREDICTED BY RF-SCORE:    0.00 PKD
ROOT
HETATM    1  C   UNL     1     -12.511  12.031  63.494  1.00  0.00    -0.654 C  
HETATM    2  C   UNL     1     -11.921  13.386  63.759  1.00  0.00    -0.461 C  
HETATM    3  O   UNL     1     -12.530  14.440  63.694  1.00  0.00    -0.805 OA 
ENDROOT
BRANCH   2   4
HETATM    4  O   UNL     1     -10.629  13.241  64.140  1.00  0.00    -0.416 OA 
BRANCH   4   5
HETATM    5  C   UNL     1     -10.338  13.187  65.552  1.00  0.00    -0.290 C  
BRANCH   5   6
HETATM    6  C   UNL     1      -9.463  11.946  65.866  1.00  0.00    -0.214 C  
BRANCH   6   7
HETATM    7  N   UNL     1      -9.964  11.065  67.063  1.00  0.00    -0.186 N  
HETATM    8  C   UNL     1      -9.033  11.158  68.251  1.00  0.00    -0.166 C  
HETATM    9  C   UNL     1     -10.010   9.627  66.559  1.00  0.00    -0.246 C  
HETATM   10  C   UNL     1     -11.378  11.466  67.463  1.00  0.00    -0.292 C  
ENDBRANCH   6   7
ENDBRANCH   5   6
BRANCH   5  11
HETATM   11  C   UNL     1      -9.643  14.469  66.005  1.00  0.00    -0.305 C  
HETATM   12  C   UNL     1     -10.616  15.450  66.655  1.00  0.00    -0.306 C  
HETATM   13  O   UNL     1     -11.557  14.930  67.313  1.00  0.00    -0.360 OA 
HETATM   14  O   UNL     1     -10.419  16.654  66.348  1.00  0.00    -0.305 OA 
ENDBRANCH   5  11
ENDBRANCH   4   5
ENDBRANCH   2   4
TORSDOF 5
ENDMDL
MODEL       26
REMARK 921   NORMALIZED FREE ENERGY PREDICTED BY IDOCK:   -3.83 KCAL/MOL
REMARK 922        TOTAL FREE ENERGY PREDICTED BY IDOCK:   -5.56 KCAL/MOL
REMARK 923 INTER-LIGAND FREE ENERGY PREDICTED BY IDOCK:   -5.28 KCAL/MOL
REMARK 924 INTRA-LIGAND FREE ENERGY PREDICTED BY IDOCK:   -0.29 KCAL/MOL
REMARK 927      BINDING AFFINITY PREDICTED BY RF-SCORE:    0.00 PKD
ROOT
HETATM    1  C   UNL     1     -12.439  11.992  63.618  1.00  0.00    -0.637 C  
HETATM    2  C   UNL     1     -12.496  12.867  64.837  1.00  0.00    -0.478 C  
HETATM    3  O   UNL     1     -13.403  13.636  65.106  1.00  0.00    -0.677 OA 
ENDROOT
BRANCH   2   4
HETATM    4  O   UNL     1     -11.415  12.616  65.614  1.00  0.00    -0.317 OA 
BRANCH   4   5
HETATM    5  C   UNL     1     -10.537  13.716  65.934  1.00  0.00    -0.289 C  
BRANCH   5   6
HETATM    6  C   UNL     1      -9.168  13.177  66.422  1.00  0.00    -0.122 C  
BRANCH   6   7
HETATM    7  N   UNL     1      -9.008  13.079  67.979  1.00  0.00    -0.193 N  
HETATM    8  C   UNL     1      -9.385  11.709  68.493  1.00  0.00    -0.167 C  
HETATM    9  C   UNL     1      -9.938  14.128  68.581  1.00  0.00    -0.222 C  
HETATM   10  C   UNL     1      -7.583  13.429  68.389  1.00  0.00    -0.133 C  
ENDBRANCH   6   7
ENDBRANCH   5   6
BRANCH   5  11
HETATM   11  C   UNL     1     -10.360  14.629  64.723  1.00  0.00    -0.286 C  
HETATM   12  C   UNL     1     -10.908  16.031  64.976  1.00  0.00    -0.404 C  
HETATM   13  O   UNL     1     -10.796  16.455  66.158  1.00  0.00    -0.213 OA 
HETATM   14  O   UNL     1     -11.513  16.535  63.996  1.00  0.00    -1.137 OA 
ENDBRANCH   5  11
ENDBRANCH   4   5
ENDBRANCH   2   4
TORSDOF 5
ENDMDL
MODEL       27
REMARK 921   NORMALIZED FREE ENERGY PREDICTED BY IDOCK:   -3.80 KCAL/MOL
REMARK 922        TOTAL FREE ENERGY PREDICTED BY IDOCK:   -5.52 KCAL/MOL
REMARK 923 INTER-LIGAND FREE ENERGY PREDICTED BY IDOCK:   -4.94 KCAL/MOL
REMARK 924 INTRA-LIGAND FREE ENERGY PREDICTED BY IDOCK:   -0.58 KCAL/MOL
REMARK 927      BINDING AFFINITY PREDICTED BY RF-SCORE:    0.00 PKD
ROOT
HETATM    1  C   UNL     1     -10.303  19.987  66.088  1.00  0.00    -0.570 C  
HETATM    2  C   UNL     1     -10.658  18.534  65.961  1.00  0.00    -0.331 C  
HETATM    3  O   UNL     1     -10.838  17.947  64.908  1.00  0.00    -0.768 OA 
ENDROOT
BRANCH   2   4
HETATM    4  O   UNL     1     -10.682  17.973  67.194  1.00  0.00    -0.356 OA 
BRANCH   4   5
HETATM    5  C   UNL     1      -9.850  16.819  67.433  1.00  0.00    -0.252 C  
BRANCH   5   6
HETATM    6  C   UNL     1      -8.904  17.086  68.632  1.00  0.00    -0.267 C  
BRANCH   6   7
HETATM    7  N   UNL     1      -7.553  17.794  68.268  1.00  0.00    -0.246 N  
HETATM    8  C   UNL     1      -7.647  19.293  68.435  1.00  0.00    -0.316 C  
HETATM    9  C   UNL     1      -7.261  17.457  66.810  1.00  0.00    -0.219 C  
HETATM   10  C   UNL     1      -6.416  17.234  69.113  1.00  0.00    -0.235 C  
ENDBRANCH   6   7
ENDBRANCH   5   6
BRANCH   5  11
HETATM   11  C   UNL     1     -10.710  15.582  67.686  1.00  0.00    -0.302 C  
HETATM   12  C   UNL     1     -11.028  14.831  66.396  1.00  0.00    -0.331 C  
HETATM   13  O   UNL     1     -10.125  14.851  65.516  1.00  0.00    -0.328 OA 
HETATM   14  O   UNL     1     -12.203  14.388  66.331  1.00  0.00    -0.417 OA 
ENDBRANCH   5  11
ENDBRANCH   4   5
ENDBRANCH   2   4
TORSDOF 5
ENDMDL
MODEL       28
REMARK 921   NORMALIZED FREE ENERGY PREDICTED BY IDOCK:   -3.80 KCAL/MOL
REMARK 922        TOTAL FREE ENERGY PREDICTED BY IDOCK:   -5.52 KCAL/MOL
REMARK 923 INTER-LIGAND FREE ENERGY PREDICTED BY IDOCK:   -4.87 KCAL/MOL
REMARK 924 INTRA-LIGAND FREE ENERGY PREDICTED BY IDOCK:   -0.64 KCAL/MOL
REMARK 927      BINDING AFFINITY PREDICTED BY RF-SCORE:    0.00 PKD
ROOT
HETATM    1  C   UNL     1     -12.083  12.775  63.493  1.00  0.00    -0.642 C  
HETATM    2  C   UNL     1     -12.185  13.659  64.703  1.00  0.00    -0.409 C  
HETATM    3  O   UNL     1     -13.228  14.049  65.199  1.00  0.00    -0.768 OA 
ENDROOT
BRANCH   2   4
HETATM    4  O   UNL     1     -10.942  13.897  65.185  1.00  0.00    -0.319 OA 
BRANCH   4   5
HETATM    5  C   UNL     1     -10.594  13.348  66.473  1.00  0.00    -0.287 C  
BRANCH   5   6
HETATM    6  C   UNL     1      -9.383  12.391  66.332  1.00  0.00    -0.219 C  
BRANCH   6   7
HETATM    7  N   UNL     1      -9.714  10.868  66.503  1.00  0.00    -0.193 N  
HETATM    8  C   UNL     1      -9.897  10.185  65.167  1.00  0.00    -0.325 C  
HETATM    9  C   UNL     1     -11.011  10.790  67.302  1.00  0.00    -0.297 C  
HETATM   10  C   UNL     1      -8.625  10.175  67.311  1.00  0.00    -0.125 C  
ENDBRANCH   6   7
ENDBRANCH   5   6
BRANCH   5  11
HETATM   11  C   UNL     1     -10.289  14.467  67.467  1.00  0.00    -0.251 C  
HETATM   12  C   UNL     1     -11.495  14.801  68.342  1.00  0.00    -0.314 C  
HETATM   13  O   UNL     1     -12.242  13.830  68.635  1.00  0.00    -0.347 OA 
HETATM   14  O   UNL     1     -11.652  16.030  68.558  1.00  0.00    -0.381 OA 
ENDBRANCH   5  11
ENDBRANCH   4   5
ENDBRANCH   2   4
TORSDOF 5
ENDMDL
MODEL       29
REMARK 921   NORMALIZED FREE ENERGY PREDICTED BY IDOCK:   -3.74 KCAL/MOL
REMARK 922        TOTAL FREE ENERGY PREDICTED BY IDOCK:   -5.44 KCAL/MOL
REMARK 923 INTER-LIGAND FREE ENERGY PREDICTED BY IDOCK:   -4.88 KCAL/MOL
REMARK 924 INTRA-LIGAND FREE ENERGY PREDICTED BY IDOCK:   -0.56 KCAL/MOL
REMARK 927      BINDING AFFINITY PREDICTED BY RF-SCORE:    0.00 PKD
ROOT
HETATM    1  C   UNL     1     -10.769   9.722  67.629  1.00  0.00    -0.334 C  
HETATM    2  C   UNL     1     -11.223  10.818  68.549  1.00  0.00    -0.279 C  
HETATM    3  O   UNL     1     -10.799  11.005  69.677  1.00  0.00    -0.240 OA 
ENDROOT
BRANCH   2   4
HETATM    4  O   UNL     1     -12.125  11.595  67.904  1.00  0.00    -0.613 OA 
BRANCH   4   5
HETATM    5  C   UNL     1     -11.665  12.832  67.322  1.00  0.00    -0.378 C  
BRANCH   5   6
HETATM    6  C   UNL     1     -12.275  13.013  65.908  1.00  0.00    -0.432 C  
BRANCH   6   7
HETATM    7  N   UNL     1     -11.233  13.087  64.739  1.00  0.00    -0.306 N  
HETATM    8  C   UNL     1     -10.189  12.000  64.853  1.00  0.00    -0.270 C  
HETATM    9  C   UNL     1     -10.564  14.454  64.835  1.00  0.00    -0.434 C  
HETATM   10  C   UNL     1     -11.940  13.008  63.392  1.00  0.00    -0.520 C  
ENDBRANCH   6   7
ENDBRANCH   5   6
BRANCH   5  11
HETATM   11  C   UNL     1     -12.023  14.013  68.222  1.00  0.00    -0.384 C  
HETATM   12  C   UNL     1     -10.839  14.465  69.073  1.00  0.00    -0.252 C  
HETATM   13  O   UNL     1      -9.705  14.354  68.534  1.00  0.00    -0.216 OA 
HETATM   14  O   UNL     1     -11.140  14.780  70.253  1.00  0.00    -0.224 OA 
ENDBRANCH   5  11
ENDBRANCH   4   5
ENDBRANCH   2   4
TORSDOF 5
ENDMDL
MODEL       30
REMARK 921   NORMALIZED FREE ENERGY PREDICTED BY IDOCK:   -3.72 KCAL/MOL
REMARK 922        TOTAL FREE ENERGY PREDICTED BY IDOCK:   -5.41 KCAL/MOL
REMARK 923 INTER-LIGAND FREE ENERGY PREDICTED BY IDOCK:   -5.66 KCAL/MOL
REMARK 924 INTRA-LIGAND FREE ENERGY PREDICTED BY IDOCK:    0.25 KCAL/MOL
REMARK 927      BINDING AFFINITY PREDICTED BY RF-SCORE:    0.00 PKD
ROOT
HETATM    1  C   UNL     1      -7.253  16.758  66.801  1.00  0.00    -0.270 C  
HETATM    2  C   UNL     1      -8.541  17.481  66.535  1.00  0.00    -0.263 C  
HETATM    3  O   UNL     1      -8.831  18.580  66.977  1.00  0.00    -0.265 OA 
ENDROOT
BRANCH   2   4
HETATM    4  O   UNL     1      -9.293  16.750  65.679  1.00  0.00    -0.511 OA 
BRANCH   4   5
HETATM    5  C   UNL     1      -9.937  15.562  66.184  1.00  0.00    -0.309 C  
BRANCH   5   6
HETATM    6  C   UNL     1     -10.975  15.943  67.271  1.00  0.00    -0.234 C  
BRANCH   6   7
HETATM    7  N   UNL     1     -10.905  15.091  68.586  1.00  0.00    -0.241 N  
HETATM    8  C   UNL     1      -9.523  14.521  68.807  1.00  0.00    -0.183 C  
HETATM    9  C   UNL     1     -11.910  13.955  68.425  1.00  0.00    -0.374 C  
HETATM   10  C   UNL     1     -11.335  15.928  69.784  1.00  0.00    -0.347 C  
ENDBRANCH   6   7
ENDBRANCH   5   6
BRANCH   5  11
HETATM   11  C   UNL     1     -10.602  14.788  65.047  1.00  0.00    -0.452 C  
HETATM   12  C   UNL     1     -11.601  15.646  64.276  1.00  0.00    -0.189 C  
HETATM   13  O   UNL     1     -11.305  16.868  64.172  1.00  0.00    -1.208 OA 
HETATM   14  O   UNL     1     -12.655  15.045  63.947  1.00  0.00    -0.813 OA 
ENDBRANCH   5  11
ENDBRANCH   4   5
ENDBRANCH   2   4
TORSDOF 5
ENDMDL
MODEL       31
REMARK 921   NORMALIZED FREE ENERGY PREDICTED BY IDOCK:   -3.71 KCAL/MOL
REMARK 922        TOTAL FREE ENERGY PREDICTED BY IDOCK:   -5.41 KCAL/MOL
REMARK 923 INTER-LIGAND FREE ENERGY PREDICTED BY IDOCK:   -4.78 KCAL/MOL
REMARK 924 INTRA-LIGAND FREE ENERGY PREDICTED BY IDOCK:   -0.63 KCAL/MOL
REMARK 927      BINDING AFFINITY PREDICTED BY RF-SCORE:    0.00 PKD
ROOT
HETATM    1  C   UNL     1     -12.098  11.540  70.039  1.00  0.00    -0.408 C  
HETATM    2  C   UNL     1     -11.440  12.574  69.170  1.00  0.00    -0.305 C  
HETATM    3  O   UNL     1     -10.345  12.455  68.649  1.00  0.00    -0.225 OA 
ENDROOT
BRANCH   2   4
HETATM    4  O   UNL     1     -12.283  13.622  69.011  1.00  0.00    -0.334 OA 
BRANCH   4   5
HETATM    5  C   UNL     1     -12.045  14.811  69.793  1.00  0.00    -0.319 C  
BRANCH   5   6
HETATM    6  C   UNL     1     -11.876  16.036  68.858  1.00  0.00    -0.242 C  
BRANCH   6   7
HETATM    7  N   UNL     1     -10.392  16.443  68.556  1.00  0.00    -0.255 N  
HETATM    8  C   UNL     1     -10.207  17.942  68.593  1.00  0.00    -0.385 C  
HETATM    9  C   UNL     1     -10.071  15.919  67.160  1.00  0.00    -0.264 C  
HETATM   10  C   UNL     1      -9.445  15.764  69.538  1.00  0.00    -0.248 C  
ENDBRANCH   6   7
ENDBRANCH   5   6
BRANCH   5  11
HETATM   11  C   UNL     1     -13.186  15.038  70.783  1.00  0.00    -0.397 C  
HETATM   12  C   UNL     1     -12.737  14.847  72.229  1.00  0.00    -0.332 C  
HETATM   13  O   UNL     1     -11.551  15.193  72.483  1.00  0.00    -0.421 OA 
HETATM   14  O   UNL     1     -13.574  14.255  72.958  1.00  0.00    -0.643 OA 
ENDBRANCH   5  11
ENDBRANCH   4   5
ENDBRANCH   2   4
TORSDOF 5
ENDMDL
MODEL       32
REMARK 921   NORMALIZED FREE ENERGY PREDICTED BY IDOCK:   -3.70 KCAL/MOL
REMARK 922        TOTAL FREE ENERGY PREDICTED BY IDOCK:   -5.39 KCAL/MOL
REMARK 923 INTER-LIGAND FREE ENERGY PREDICTED BY IDOCK:   -4.73 KCAL/MOL
REMARK 924 INTRA-LIGAND FREE ENERGY PREDICTED BY IDOCK:   -0.66 KCAL/MOL
REMARK 927      BINDING AFFINITY PREDICTED BY RF-SCORE:    0.00 PKD
ROOT
HETATM    1  C   UNL     1     -11.950  12.780  69.939  1.00  0.00    -0.368 C  
HETATM    2  C   UNL     1     -12.001  11.402  69.346  1.00  0.00    -0.339 C  
HETATM    3  O   UNL     1     -11.911  10.364  69.979  1.00  0.00    -0.268 OA 
ENDROOT
BRANCH   2   4
HETATM    4  O   UNL     1     -12.224  11.499  68.014  1.00  0.00    -0.582 OA 
BRANCH   4   5
HETATM    5  C   UNL     1     -11.147  11.970  67.176  1.00  0.00    -0.290 C  
BRANCH   5   6
HETATM    6  C   UNL     1     -10.090  10.851  66.993  1.00  0.00    -0.205 C  
BRANCH   6   7
HETATM    7  N   UNL     1      -8.696  11.138  67.651  1.00  0.00    -0.128 N  
HETATM    8  C   UNL     1      -7.562  10.909  66.678  1.00  0.00    -0.139 C  
HETATM    9  C   UNL     1      -8.562  10.180  68.830  1.00  0.00    -0.141 C  
HETATM   10  C   UNL     1      -8.650  12.560  68.197  1.00  0.00    -0.189 C  
ENDBRANCH   6   7
ENDBRANCH   5   6
BRANCH   5  11
HETATM   11  C   UNL     1     -11.684  12.434  65.824  1.00  0.00    -0.470 C  
HETATM   12  C   UNL     1     -12.228  13.859  65.882  1.00  0.00    -0.467 C  
HETATM   13  O   UNL     1     -11.628  14.641  66.669  1.00  0.00    -0.362 OA 
HETATM   14  O   UNL     1     -13.284  14.038  65.223  1.00  0.00    -0.782 OA 
ENDBRANCH   5  11
ENDBRANCH   4   5
ENDBRANCH   2   4
TORSDOF 5
ENDMDL
MODEL       33
REMARK 921   NORMALIZED FREE ENERGY PREDICTED BY IDOCK:   -3.70 KCAL/MOL
REMARK 922        TOTAL FREE ENERGY PREDICTED BY IDOCK:   -5.39 KCAL/MOL
REMARK 923 INTER-LIGAND FREE ENERGY PREDICTED BY IDOCK:   -4.98 KCAL/MOL
REMARK 924 INTRA-LIGAND FREE ENERGY PREDICTED BY IDOCK:   -0.41 KCAL/MOL
REMARK 927      BINDING AFFINITY PREDICTED BY RF-SCORE:    0.00 PKD
ROOT
HETATM    1  C   UNL     1     -11.057  16.321  69.787  1.00  0.00    -0.337 C  
HETATM    2  C   UNL     1     -10.892  16.893  68.409  1.00  0.00    -0.347 C  
HETATM    3  O   UNL     1     -10.537  18.033  68.162  1.00  0.00    -0.378 OA 
ENDROOT
BRANCH   2   4
HETATM    4  O   UNL     1     -11.137  15.924  67.494  1.00  0.00    -0.312 OA 
BRANCH   4   5
HETATM    5  C   UNL     1     -10.073  15.555  66.592  1.00  0.00    -0.267 C  
BRANCH   5   6
HETATM    6  C   UNL     1      -8.969  14.785  67.362  1.00  0.00    -0.192 C  
BRANCH   6   7
HETATM    7  N   UNL     1      -7.622  15.566  67.551  1.00  0.00    -0.157 N  
HETATM    8  C   UNL     1      -7.547  16.225  68.910  1.00  0.00    -0.212 C  
HETATM    9  C   UNL     1      -7.577  16.630  66.460  1.00  0.00    -0.292 C  
HETATM   10  C   UNL     1      -6.435  14.634  67.345  1.00  0.00     0.087 C  
ENDBRANCH   6   7
ENDBRANCH   5   6
BRANCH   5  11
HETATM   11  C   UNL     1     -10.616  14.714  65.439  1.00  0.00    -0.390 C  
HETATM   12  C   UNL     1     -11.536  15.521  64.525  1.00  0.00    -0.283 C  
HETATM   13  O   UNL     1     -11.236  16.737  64.385  1.00  0.00    -1.112 OA 
HETATM   14  O   UNL     1     -12.549  14.892  64.124  1.00  0.00    -0.785 OA 
ENDBRANCH   5  11
ENDBRANCH   4   5
ENDBRANCH   2   4
TORSDOF 5
ENDMDL
MODEL       34
REMARK 921   NORMALIZED FREE ENERGY PREDICTED BY IDOCK:   -3.70 KCAL/MOL
REMARK 922        TOTAL FREE ENERGY PREDICTED BY IDOCK:   -5.39 KCAL/MOL
REMARK 923 INTER-LIGAND FREE ENERGY PREDICTED BY IDOCK:   -4.70 KCAL/MOL
REMARK 924 INTRA-LIGAND FREE ENERGY PREDICTED BY IDOCK:   -0.69 KCAL/MOL
REMARK 927      BINDING AFFINITY PREDICTED BY RF-SCORE:    0.00 PKD
ROOT
HETATM    1  C   UNL     1     -11.812  10.783  70.173  1.00  0.00    -0.427 C  
HETATM    2  C   UNL     1     -11.962  11.924  69.208  1.00  0.00    -0.281 C  
HETATM    3  O   UNL     1     -12.019  13.102  69.520  1.00  0.00    -0.306 OA 
ENDROOT
BRANCH   2   4
HETATM    4  O   UNL     1     -11.959  11.440  67.943  1.00  0.00    -0.626 OA 
BRANCH   4   5
HETATM    5  C   UNL     1     -10.986  11.964  67.017  1.00  0.00    -0.278 C  
BRANCH   5   6
HETATM    6  C   UNL     1      -9.923  10.881  66.695  1.00  0.00    -0.208 C  
BRANCH   6   7
HETATM    7  N   UNL     1      -8.555  11.048  67.443  1.00  0.00    -0.131 N  
HETATM    8  C   UNL     1      -8.441  10.100  68.614  1.00  0.00    -0.122 C  
HETATM    9  C   UNL     1      -8.503  12.489  67.942  1.00  0.00    -0.171 C  
HETATM   10  C   UNL     1      -7.394  10.846  66.478  1.00  0.00    -0.142 C  
ENDBRANCH   6   7
ENDBRANCH   5   6
BRANCH   5  11
HETATM   11  C   UNL     1     -11.668  12.449  65.739  1.00  0.00    -0.470 C  
HETATM   12  C   UNL     1     -12.171  13.884  65.868  1.00  0.00    -0.467 C  
HETATM   13  O   UNL     1     -11.466  14.648  66.582  1.00  0.00    -0.351 OA 
HETATM   14  O   UNL     1     -13.294  14.089  65.339  1.00  0.00    -0.721 OA 
ENDBRANCH   5  11
ENDBRANCH   4   5
ENDBRANCH   2   4
TORSDOF 5
ENDMDL
MODEL       35
REMARK 921   NORMALIZED FREE ENERGY PREDICTED BY IDOCK:   -3.65 KCAL/MOL
REMARK 922        TOTAL FREE ENERGY PREDICTED BY IDOCK:   -5.32 KCAL/MOL
REMARK 923 INTER-LIGAND FREE ENERGY PREDICTED BY IDOCK:   -4.71 KCAL/MOL
REMARK 924 INTRA-LIGAND FREE ENERGY PREDICTED BY IDOCK:   -0.62 KCAL/MOL
REMARK 927      BINDING AFFINITY PREDICTED BY RF-SCORE:    0.00 PKD
ROOT
HETATM    1  C   UNL     1     -11.541  13.701  68.213  1.00  0.00    -0.374 C  
HETATM    2  C   UNL     1     -11.972  12.280  67.989  1.00  0.00    -0.187 C  
HETATM    3  O   UNL     1     -12.185  11.466  68.872  1.00  0.00    -0.458 OA 
ENDROOT
BRANCH   2   4
HETATM    4  O   UNL     1     -12.147  12.073  66.663  1.00  0.00    -0.615 OA 
BRANCH   4   5
HETATM    5  C   UNL     1     -10.973  11.972  65.830  1.00  0.00    -0.307 C  
BRANCH   5   6
HETATM    6  C   UNL     1     -10.322  10.575  65.998  1.00  0.00    -0.211 C  
BRANCH   6   7
HETATM    7  N   UNL     1      -8.825  10.591  66.463  1.00  0.00    -0.142 N  
HETATM    8  C   UNL     1      -8.620   9.761  67.710  1.00  0.00    -0.125 C  
HETATM    9  C   UNL     1      -8.471  12.046  66.750  1.00  0.00    -0.155 C  
HETATM   10  C   UNL     1      -7.915  10.102  65.342  1.00  0.00    -0.144 C  
ENDBRANCH   6   7
ENDBRANCH   5   6
BRANCH   5  11
HETATM   11  C   UNL     1     -11.330  12.232  64.367  1.00  0.00    -0.396 C  
HETATM   12  C   UNL     1     -11.682  13.695  64.114  1.00  0.00    -0.386 C  
HETATM   13  O   UNL     1     -11.051  14.537  64.809  1.00  0.00    -0.382 OA 
HETATM   14  O   UNL     1     -12.647  13.867  63.326  1.00  0.00    -0.824 OA 
ENDBRANCH   5  11
ENDBRANCH   4   5
ENDBRANCH   2   4
TORSDOF 5
ENDMDL
MODEL       36
REMARK 921   NORMALIZED FREE ENERGY PREDICTED BY IDOCK:   -3.64 KCAL/MOL
REMARK 922        TOTAL FREE ENERGY PREDICTED BY IDOCK:   -5.31 KCAL/MOL
REMARK 923 INTER-LIGAND FREE ENERGY PREDICTED BY IDOCK:   -4.69 KCAL/MOL
REMARK 924 INTRA-LIGAND FREE ENERGY PREDICTED BY IDOCK:   -0.63 KCAL/MOL
REMARK 927      BINDING AFFINITY PREDICTED BY RF-SCORE:    0.00 PKD
ROOT
HETATM    1  C   UNL     1     -10.889  19.156  65.649  1.00  0.00    -0.218 C  
HETATM    2  C   UNL     1     -10.653  17.734  65.227  1.00  0.00     0.233 C  
HETATM    3  O   UNL     1     -11.349  17.112  64.442  1.00  0.00    -1.115 OA 
ENDROOT
BRANCH   2   4
HETATM    4  O   UNL     1      -9.516  17.281  65.807  1.00  0.00    -0.527 OA 
BRANCH   4   5
HETATM    5  C   UNL     1      -9.573  16.873  67.189  1.00  0.00    -0.244 C  
BRANCH   5   6
HETATM    6  C   UNL     1      -9.553  15.325  67.286  1.00  0.00    -0.211 C  
BRANCH   6   7
HETATM    7  N   UNL     1     -10.919  14.666  67.681  1.00  0.00    -0.284 N  
HETATM    8  C   UNL     1     -11.750  14.332  66.463  1.00  0.00    -0.394 C  
HETATM    9  C   UNL     1     -11.660  15.679  68.547  1.00  0.00    -0.370 C  
HETATM   10  C   UNL     1     -10.682  13.418  68.523  1.00  0.00    -0.262 C  
ENDBRANCH   6   7
ENDBRANCH   5   6
BRANCH   5  11
HETATM   11  C   UNL     1      -8.413  17.480  67.975  1.00  0.00    -0.242 C  
HETATM   12  C   UNL     1      -8.790  18.814  68.615  1.00  0.00    -0.325 C  
HETATM   13  O   UNL     1      -9.986  18.917  68.999  1.00  0.00    -0.392 OA 
HETATM   14  O   UNL     1      -7.885  19.686  68.566  1.00  0.00    -0.336 OA 
ENDBRANCH   5  11
ENDBRANCH   4   5
ENDBRANCH   2   4
TORSDOF 5
ENDMDL
MODEL       37
REMARK 921   NORMALIZED FREE ENERGY PREDICTED BY IDOCK:   -3.64 KCAL/MOL
REMARK 922        TOTAL FREE ENERGY PREDICTED BY IDOCK:   -5.31 KCAL/MOL
REMARK 923 INTER-LIGAND FREE ENERGY PREDICTED BY IDOCK:   -4.75 KCAL/MOL
REMARK 924 INTRA-LIGAND FREE ENERGY PREDICTED BY IDOCK:   -0.55 KCAL/MOL
REMARK 927      BINDING AFFINITY PREDICTED BY RF-SCORE:    0.00 PKD
ROOT
HETATM    1  C   UNL     1      -7.079  17.251  66.480  1.00  0.00    -0.300 C  
HETATM    2  C   UNL     1      -7.568  17.870  67.758  1.00  0.00    -0.214 C  
HETATM    3  O   UNL     1      -7.117  18.884  68.262  1.00  0.00    -0.245 OA 
ENDROOT
BRANCH   2   4
HETATM    4  O   UNL     1      -8.623  17.158  68.221  1.00  0.00    -0.224 OA 
BRANCH   4   5
HETATM    5  C   UNL     1      -9.818  17.109  67.413  1.00  0.00    -0.264 C  
BRANCH   5   6
HETATM    6  C   UNL     1     -10.779  16.019  67.953  1.00  0.00    -0.316 C  
BRANCH   6   7
HETATM    7  N   UNL     1     -10.734  14.652  67.185  1.00  0.00    -0.287 N  
HETATM    8  C   UNL     1      -9.784  14.705  66.011  1.00  0.00    -0.312 C  
HETATM    9  C   UNL     1     -12.150  14.382  66.689  1.00  0.00    -0.367 C  
HETATM   10  C   UNL     1     -10.348  13.524  68.133  1.00  0.00    -0.247 C  
ENDBRANCH   6   7
ENDBRANCH   5   6
BRANCH   5  11
HETATM   11  C   UNL     1     -10.504  18.474  67.389  1.00  0.00    -0.455 C  
HETATM   12  C   UNL     1     -10.622  19.032  65.974  1.00  0.00    -0.423 C  
HETATM   13  O   UNL     1     -10.797  18.177  65.063  1.00  0.00    -0.707 OA 
HETATM   14  O   UNL     1     -10.408  20.268  65.885  1.00  0.00    -0.391 OA 
ENDBRANCH   5  11
ENDBRANCH   4   5
ENDBRANCH   2   4
TORSDOF 5
ENDMDL
MODEL       38
REMARK 921   NORMALIZED FREE ENERGY PREDICTED BY IDOCK:   -3.64 KCAL/MOL
REMARK 922        TOTAL FREE ENERGY PREDICTED BY IDOCK:   -5.31 KCAL/MOL
REMARK 923 INTER-LIGAND FREE ENERGY PREDICTED BY IDOCK:   -4.71 KCAL/MOL
REMARK 924 INTRA-LIGAND FREE ENERGY PREDICTED BY IDOCK:   -0.59 KCAL/MOL
REMARK 927      BINDING AFFINITY PREDICTED BY RF-SCORE:    0.00 PKD
ROOT
HETATM    1  C   UNL     1     -11.805  16.020  71.884  1.00  0.00    -0.619 C  
HETATM    2  C   UNL     1     -12.162  15.009  70.833  1.00  0.00    -0.329 C  
HETATM    3  O   UNL     1     -12.309  13.815  71.031  1.00  0.00    -0.355 OA 
ENDROOT
BRANCH   2   4
HETATM    4  O   UNL     1     -12.355  15.645  69.653  1.00  0.00    -0.314 OA 
BRANCH   4   5
HETATM    5  C   UNL     1     -11.362  15.479  68.620  1.00  0.00    -0.344 C  
BRANCH   5   6
HETATM    6  C   UNL     1     -11.862  14.462  67.561  1.00  0.00    -0.386 C  
BRANCH   6   7
HETATM    7  N   UNL     1     -10.999  13.159  67.430  1.00  0.00    -0.259 N  
HETATM    8  C   UNL     1     -11.670  11.978  68.093  1.00  0.00    -0.333 C  
HETATM    9  C   UNL     1      -9.668  13.445  68.117  1.00  0.00    -0.226 C  
HETATM   10  C   UNL     1     -10.713  12.857  65.964  1.00  0.00    -0.277 C  
ENDBRANCH   6   7
ENDBRANCH   5   6
BRANCH   5  11
HETATM   11  C   UNL     1     -11.035  16.822  67.970  1.00  0.00    -0.296 C  
HETATM   12  C   UNL     1      -9.821  17.489  68.612  1.00  0.00    -0.338 C  
HETATM   13  O   UNL     1      -8.922  16.707  69.023  1.00  0.00    -0.256 OA 
HETATM   14  O   UNL     1      -9.931  18.734  68.757  1.00  0.00    -0.380 OA 
ENDBRANCH   5  11
ENDBRANCH   4   5
ENDBRANCH   2   4
TORSDOF 5
ENDMDL
MODEL       39
REMARK 921   NORMALIZED FREE ENERGY PREDICTED BY IDOCK:   -3.63 KCAL/MOL
REMARK 922        TOTAL FREE ENERGY PREDICTED BY IDOCK:   -5.29 KCAL/MOL
REMARK 923 INTER-LIGAND FREE ENERGY PREDICTED BY IDOCK:   -4.66 KCAL/MOL
REMARK 924 INTRA-LIGAND FREE ENERGY PREDICTED BY IDOCK:   -0.64 KCAL/MOL
REMARK 927      BINDING AFFINITY PREDICTED BY RF-SCORE:    0.00 PKD
ROOT
HETATM    1  C   UNL     1      -8.730  13.641  66.911  1.00  0.00    -0.162 C  
HETATM    2  C   UNL     1      -9.096  15.033  66.480  1.00  0.00    -0.286 C  
HETATM    3  O   UNL     1      -8.344  15.992  66.498  1.00  0.00    -0.267 OA 
ENDROOT
BRANCH   2   4
HETATM    4  O   UNL     1     -10.368  15.033  66.014  1.00  0.00    -0.281 OA 
BRANCH   4   5
HETATM    5  C   UNL     1     -11.398  14.462  66.847  1.00  0.00    -0.348 C  
BRANCH   5   6
HETATM    6  C   UNL     1     -11.791  15.462  67.965  1.00  0.00    -0.110 C  
BRANCH   6   7
HETATM    7  N   UNL     1     -11.510  14.969  69.427  1.00  0.00    -0.281 N  
HETATM    8  C   UNL     1     -10.179  15.472  69.938  1.00  0.00    -0.295 C  
HETATM    9  C   UNL     1     -11.500  13.445  69.381  1.00  0.00    -0.274 C  
HETATM   10  C   UNL     1     -12.636  15.401  70.359  1.00  0.00    -0.389 C  
ENDBRANCH   6   7
ENDBRANCH   5   6
BRANCH   5  11
HETATM   11  C   UNL     1     -12.616  14.081  66.008  1.00  0.00    -0.452 C  
HETATM   12  C   UNL     1     -12.347  12.864  65.126  1.00  0.00    -0.493 C  
HETATM   13  O   UNL     1     -11.573  11.997  65.615  1.00  0.00    -0.354 OA 
HETATM   14  O   UNL     1     -12.842  12.941  63.973  1.00  0.00    -0.668 OA 
ENDBRANCH   5  11
ENDBRANCH   4   5
ENDBRANCH   2   4
TORSDOF 5
ENDMDL
MODEL       40
REMARK 921   NORMALIZED FREE ENERGY PREDICTED BY IDOCK:   -3.62 KCAL/MOL
REMARK 922        TOTAL FREE ENERGY PREDICTED BY IDOCK:   -5.29 KCAL/MOL
REMARK 923 INTER-LIGAND FREE ENERGY PREDICTED BY IDOCK:   -4.69 KCAL/MOL
REMARK 924 INTRA-LIGAND FREE ENERGY PREDICTED BY IDOCK:   -0.60 KCAL/MOL
REMARK 927      BINDING AFFINITY PREDICTED BY RF-SCORE:    0.00 PKD
ROOT
HETATM    1  C   UNL     1     -10.070  11.018  68.660  1.00  0.00    -0.207 C  
HETATM    2  C   UNL     1     -11.514  11.240  69.007  1.00  0.00    -0.302 C  
HETATM    3  O   UNL     1     -12.009  11.045  70.104  1.00  0.00    -0.297 OA 
ENDROOT
BRANCH   2   4
HETATM    4  O   UNL     1     -12.157  11.747  67.928  1.00  0.00    -0.592 OA 
BRANCH   4   5
HETATM    5  C   UNL     1     -11.692  13.001  67.387  1.00  0.00    -0.374 C  
BRANCH   5   6
HETATM    6  C   UNL     1     -12.340  13.254  66.001  1.00  0.00    -0.386 C  
BRANCH   6   7
HETATM    7  N   UNL     1     -11.335  13.333  64.800  1.00  0.00    -0.315 N  
HETATM    8  C   UNL     1     -10.801  14.734  64.612  1.00  0.00    -0.292 C  
HETATM    9  C   UNL     1     -12.106  12.905  63.556  1.00  0.00    -0.555 C  
HETATM   10  C   UNL     1     -10.190  12.348  65.001  1.00  0.00    -0.283 C  
ENDBRANCH   6   7
ENDBRANCH   5   6
BRANCH   5  11
HETATM   11  C   UNL     1     -12.002  14.148  68.347  1.00  0.00    -0.366 C  
HETATM   12  C   UNL     1     -10.733  14.790  68.902  1.00  0.00    -0.252 C  
HETATM   13  O   UNL     1      -9.749  14.823  68.114  1.00  0.00    -0.209 OA 
HETATM   14  O   UNL     1     -10.798  15.096  70.120  1.00  0.00    -0.258 OA 
ENDBRANCH   5  11
ENDBRANCH   4   5
ENDBRANCH   2   4
TORSDOF 5
ENDMDL
MODEL       41
REMARK 921   NORMALIZED FREE ENERGY PREDICTED BY IDOCK:   -3.58 KCAL/MOL
REMARK 922        TOTAL FREE ENERGY PREDICTED BY IDOCK:   -5.23 KCAL/MOL
REMARK 923 INTER-LIGAND FREE ENERGY PREDICTED BY IDOCK:   -4.76 KCAL/MOL
REMARK 924 INTRA-LIGAND FREE ENERGY PREDICTED BY IDOCK:   -0.48 KCAL/MOL
REMARK 927      BINDING AFFINITY PREDICTED BY RF-SCORE:    0.00 PKD
ROOT
HETATM    1  C   UNL     1      -8.980   9.688  63.653  1.00  0.00    -0.248 C  
HETATM    2  C   UNL     1      -9.553  10.120  64.972  1.00  0.00    -0.299 C  
HETATM    3  O   UNL     1     -10.087   9.380  65.780  1.00  0.00    -0.288 OA 
ENDROOT
BRANCH   2   4
HETATM    4  O   UNL     1      -9.325  11.444  65.143  1.00  0.00    -0.213 OA 
BRANCH   4   5
HETATM    5  C   UNL     1     -10.465  12.321  65.264  1.00  0.00    -0.282 C  
BRANCH   5   6
HETATM    6  C   UNL     1     -10.045  13.644  65.955  1.00  0.00    -0.312 C  
BRANCH   6   7
HETATM    7  N   UNL     1     -10.630  13.859  67.394  1.00  0.00    -0.266 N  
HETATM    8  C   UNL     1      -9.594  14.422  68.339  1.00  0.00    -0.219 C  
HETATM    9  C   UNL     1     -11.088  12.491  67.888  1.00  0.00    -0.245 C  
HETATM   10  C   UNL     1     -11.852  14.768  67.339  1.00  0.00    -0.295 C  
ENDBRANCH   6   7
ENDBRANCH   5   6
BRANCH   5  11
HETATM   11  C   UNL     1     -11.078  12.596  63.893  1.00  0.00    -0.476 C  
HETATM   12  C   UNL     1     -12.585  12.354  63.879  1.00  0.00    -0.427 C  
HETATM   13  O   UNL     1     -13.191  12.626  64.951  1.00  0.00    -0.819 OA 
HETATM   14  O   UNL     1     -13.011  11.799  62.835  1.00  0.00    -0.367 OA 
ENDBRANCH   5  11
ENDBRANCH   4   5
ENDBRANCH   2   4
TORSDOF 5
ENDMDL
MODEL       42
REMARK 921   NORMALIZED FREE ENERGY PREDICTED BY IDOCK:   -3.56 KCAL/MOL
REMARK 922        TOTAL FREE ENERGY PREDICTED BY IDOCK:   -5.21 KCAL/MOL
REMARK 923 INTER-LIGAND FREE ENERGY PREDICTED BY IDOCK:   -4.79 KCAL/MOL
REMARK 924 INTRA-LIGAND FREE ENERGY PREDICTED BY IDOCK:   -0.42 KCAL/MOL
REMARK 927      BINDING AFFINITY PREDICTED BY RF-SCORE:    0.00 PKD
ROOT
HETATM    1  C   UNL     1     -10.962  11.632  68.978  1.00  0.00    -0.283 C  
HETATM    2  C   UNL     1     -11.936  12.344  69.872  1.00  0.00    -0.299 C  
HETATM    3  O   UNL     1     -12.321  11.934  70.954  1.00  0.00    -0.373 OA 
ENDROOT
BRANCH   2   4
HETATM    4  O   UNL     1     -12.263  13.534  69.315  1.00  0.00    -0.305 OA 
BRANCH   4   5
HETATM    5  C   UNL     1     -11.948  14.737  70.047  1.00  0.00    -0.316 C  
BRANCH   5   6
HETATM    6  C   UNL     1     -11.647  15.895  69.060  1.00  0.00    -0.389 C  
BRANCH   6   7
HETATM    7  N   UNL     1     -10.177  15.939  68.516  1.00  0.00    -0.221 N  
HETATM    8  C   UNL     1      -9.234  15.149  69.393  1.00  0.00    -0.175 C  
HETATM    9  C   UNL     1      -9.759  17.406  68.503  1.00  0.00    -0.304 C  
HETATM   10  C   UNL     1     -10.126  15.427  67.082  1.00  0.00    -0.245 C  
ENDBRANCH   6   7
ENDBRANCH   5   6
BRANCH   5  11
HETATM   11  C   UNL     1     -13.095  15.109  70.985  1.00  0.00    -0.513 C  
HETATM   12  C   UNL     1     -12.645  15.179  72.441  1.00  0.00    -0.351 C  
HETATM   13  O   UNL     1     -11.466  15.586  72.629  1.00  0.00    -0.442 OA 
HETATM   14  O   UNL     1     -13.471  14.705  73.262  1.00  0.00    -0.570 OA 
ENDBRANCH   5  11
ENDBRANCH   4   5
ENDBRANCH   2   4
TORSDOF 5
ENDMDL
MODEL       43
REMARK 921   NORMALIZED FREE ENERGY PREDICTED BY IDOCK:   -3.53 KCAL/MOL
REMARK 922        TOTAL FREE ENERGY PREDICTED BY IDOCK:   -5.17 KCAL/MOL
REMARK 923 INTER-LIGAND FREE ENERGY PREDICTED BY IDOCK:   -4.66 KCAL/MOL
REMARK 924 INTRA-LIGAND FREE ENERGY PREDICTED BY IDOCK:   -0.52 KCAL/MOL
REMARK 927      BINDING AFFINITY PREDICTED BY RF-SCORE:    0.00 PKD
ROOT
HETATM    1  C   UNL     1     -12.171  13.914  64.987  1.00  0.00    -0.444 C  
HETATM    2  C   UNL     1     -12.154  13.447  66.414  1.00  0.00    -0.409 C  
HETATM    3  O   UNL     1     -11.938  12.303  66.774  1.00  0.00    -0.586 OA 
ENDROOT
BRANCH   2   4
HETATM    4  O   UNL     1     -12.353  14.509  67.231  1.00  0.00    -0.276 OA 
BRANCH   4   5
HETATM    5  C   UNL     1     -11.274  14.909  68.102  1.00  0.00    -0.299 C  
BRANCH   5   6
HETATM    6  C   UNL     1     -10.445  16.037  67.435  1.00  0.00    -0.308 C  
BRANCH   6   7
HETATM    7  N   UNL     1      -8.896  15.798  67.409  1.00  0.00    -0.182 N  
HETATM    8  C   UNL     1      -8.560  14.324  67.394  1.00  0.00    -0.213 C  
HETATM    9  C   UNL     1      -8.333  16.440  68.673  1.00  0.00    -0.221 C  
HETATM   10  C   UNL     1      -8.269  16.500  66.211  1.00  0.00    -0.325 C  
ENDBRANCH   6   7
ENDBRANCH   5   6
BRANCH   5  11
HETATM   11  C   UNL     1     -11.818  15.364  69.455  1.00  0.00    -0.372 C  
HETATM   12  C   UNL     1     -12.412  14.206  70.252  1.00  0.00    -0.353 C  
HETATM   13  O   UNL     1     -11.845  13.090  70.099  1.00  0.00    -0.313 OA 
HETATM   14  O   UNL     1     -13.469  14.491  70.871  1.00  0.00    -0.354 OA 
ENDBRANCH   5  11
ENDBRANCH   4   5
ENDBRANCH   2   4
TORSDOF 5
ENDMDL
MODEL       44
REMARK 921   NORMALIZED FREE ENERGY PREDICTED BY IDOCK:   -3.51 KCAL/MOL
REMARK 922        TOTAL FREE ENERGY PREDICTED BY IDOCK:   -5.14 KCAL/MOL
REMARK 923 INTER-LIGAND FREE ENERGY PREDICTED BY IDOCK:   -4.68 KCAL/MOL
REMARK 924 INTRA-LIGAND FREE ENERGY PREDICTED BY IDOCK:   -0.46 KCAL/MOL
REMARK 927      BINDING AFFINITY PREDICTED BY RF-SCORE:    0.00 PKD
ROOT
HETATM    1  C   UNL     1      -6.563  18.487  67.731  1.00  0.00    -0.214 C  
HETATM    2  C   UNL     1      -7.429  17.680  66.808  1.00  0.00    -0.215 C  
HETATM    3  O   UNL     1      -7.464  17.802  65.595  1.00  0.00    -0.533 OA 
ENDROOT
BRANCH   2   4
HETATM    4  O   UNL     1      -8.110  16.759  67.530  1.00  0.00    -0.168 OA 
BRANCH   4   5
HETATM    5  C   UNL     1      -9.525  16.617  67.289  1.00  0.00    -0.232 C  
BRANCH   5   6
HETATM    6  C   UNL     1      -9.952  15.140  67.488  1.00  0.00    -0.225 C  
BRANCH   6   7
HETATM    7  N   UNL     1     -10.741  14.508  66.289  1.00  0.00    -0.303 N  
HETATM    8  C   UNL     1     -10.090  13.232  65.806  1.00  0.00    -0.286 C  
HETATM    9  C   UNL     1     -10.737  15.543  65.169  1.00  0.00    -0.440 C  
HETATM   10  C   UNL     1     -12.190  14.251  66.683  1.00  0.00    -0.381 C  
ENDBRANCH   6   7
ENDBRANCH   5   6
BRANCH   5  11
HETATM   11  C   UNL     1     -10.321  17.540  68.211  1.00  0.00    -0.379 C  
HETATM   12  C   UNL     1     -10.466  18.944  67.631  1.00  0.00    -0.443 C  
HETATM   13  O   UNL     1     -10.559  19.009  66.375  1.00  0.00    -0.415 OA 
HETATM   14  O   UNL     1     -10.352  19.868  68.476  1.00  0.00    -0.448 OA 
ENDBRANCH   5  11
ENDBRANCH   4   5
ENDBRANCH   2   4
TORSDOF 5
ENDMDL
MODEL       45
REMARK 921   NORMALIZED FREE ENERGY PREDICTED BY IDOCK:   -3.51 KCAL/MOL
REMARK 922        TOTAL FREE ENERGY PREDICTED BY IDOCK:   -5.14 KCAL/MOL
REMARK 923 INTER-LIGAND FREE ENERGY PREDICTED BY IDOCK:   -4.72 KCAL/MOL
REMARK 924 INTRA-LIGAND FREE ENERGY PREDICTED BY IDOCK:   -0.42 KCAL/MOL
REMARK 927      BINDING AFFINITY PREDICTED BY RF-SCORE:    0.00 PKD
ROOT
HETATM    1  C   UNL     1     -10.343  11.681  66.285  1.00  0.00    -0.273 C  
HETATM    2  C   UNL     1     -11.769  12.110  66.480  1.00  0.00    -0.321 C  
HETATM    3  O   UNL     1     -12.459  12.654  65.634  1.00  0.00    -0.622 OA 
ENDROOT
BRANCH   2   4
HETATM    4  O   UNL     1     -12.180  11.739  67.716  1.00  0.00    -0.536 OA 
BRANCH   4   5
HETATM    5  C   UNL     1     -11.662  12.464  68.851  1.00  0.00    -0.324 C  
BRANCH   5   6
HETATM    6  C   UNL     1     -11.973  13.975  68.702  1.00  0.00    -0.354 C  
BRANCH   6   7
HETATM    7  N   UNL     1     -10.716  14.910  68.638  1.00  0.00    -0.243 N  
HETATM    8  C   UNL     1      -9.432  14.115  68.575  1.00  0.00    -0.202 C  
HETATM    9  C   UNL     1     -10.734  15.756  69.907  1.00  0.00    -0.328 C  
HETATM   10  C   UNL     1     -10.816  15.855  67.446  1.00  0.00    -0.291 C  
ENDBRANCH   6   7
ENDBRANCH   5   6
BRANCH   5  11
HETATM   11  C   UNL     1     -12.248  11.915  70.150  1.00  0.00    -0.319 C  
HETATM   12  C   UNL     1     -11.782  10.489  70.432  1.00  0.00    -0.344 C  
HETATM   13  O   UNL     1     -10.610  10.213  70.057  1.00  0.00    -0.262 OA 
HETATM   14  O   UNL     1     -12.675   9.735  70.897  1.00  0.00    -0.304 OA 
ENDBRANCH   5  11
ENDBRANCH   4   5
ENDBRANCH   2   4
TORSDOF 5
ENDMDL
MODEL       46
REMARK 921   NORMALIZED FREE ENERGY PREDICTED BY IDOCK:   -3.50 KCAL/MOL
REMARK 922        TOTAL FREE ENERGY PREDICTED BY IDOCK:   -5.13 KCAL/MOL
REMARK 923 INTER-LIGAND FREE ENERGY PREDICTED BY IDOCK:   -4.54 KCAL/MOL
REMARK 924 INTRA-LIGAND FREE ENERGY PREDICTED BY IDOCK:   -0.58 KCAL/MOL
REMARK 927      BINDING AFFINITY PREDICTED BY RF-SCORE:    0.00 PKD
ROOT
HETATM    1  C   UNL     1     -11.924  14.380  69.377  1.00  0.00    -0.370 C  
HETATM    2  C   UNL     1     -10.937  14.842  68.344  1.00  0.00    -0.252 C  
HETATM    3  O   UNL     1     -10.783  15.999  67.991  1.00  0.00    -0.287 OA 
ENDROOT
BRANCH   2   4
HETATM    4  O   UNL     1     -10.209  13.781  67.920  1.00  0.00    -0.235 OA 
BRANCH   4   5
HETATM    5  C   UNL     1     -10.799  12.898  66.944  1.00  0.00    -0.257 C  
BRANCH   5   6
HETATM    6  C   UNL     1     -10.475  13.397  65.512  1.00  0.00    -0.291 C  
BRANCH   6   7
HETATM    7  N   UNL     1     -11.691  13.997  64.725  1.00  0.00    -0.374 N  
HETATM    8  C   UNL     1     -11.459  15.446  64.362  1.00  0.00    -0.255 C  
HETATM    9  C   UNL     1     -12.904  13.885  65.642  1.00  0.00    -0.424 C  
HETATM   10  C   UNL     1     -11.973  13.173  63.475  1.00  0.00    -0.513 C  
ENDBRANCH   6   7
ENDBRANCH   5   6
BRANCH   5  11
HETATM   11  C   UNL     1     -10.301  11.468  67.145  1.00  0.00    -0.248 C  
HETATM   12  C   UNL     1     -11.004  10.775  68.309  1.00  0.00    -0.255 C  
HETATM   13  O   UNL     1     -12.211  11.096  68.487  1.00  0.00    -0.600 OA 
HETATM   14  O   UNL     1     -10.251  10.059  69.017  1.00  0.00    -0.182 OA 
ENDBRANCH   5  11
ENDBRANCH   4   5
ENDBRANCH   2   4
TORSDOF 5
ENDMDL
MODEL       47
REMARK 921   NORMALIZED FREE ENERGY PREDICTED BY IDOCK:   -3.49 KCAL/MOL
REMARK 922        TOTAL FREE ENERGY PREDICTED BY IDOCK:   -5.12 KCAL/MOL
REMARK 923 INTER-LIGAND FREE ENERGY PREDICTED BY IDOCK:   -4.42 KCAL/MOL
REMARK 924 INTRA-LIGAND FREE ENERGY PREDICTED BY IDOCK:   -0.70 KCAL/MOL
REMARK 927      BINDING AFFINITY PREDICTED BY RF-SCORE:    0.00 PKD
ROOT
HETATM    1  C   UNL     1     -12.147  13.833  70.055  1.00  0.00    -0.416 C  
HETATM    2  C   UNL     1     -11.207  14.932  69.648  1.00  0.00    -0.275 C  
HETATM    3  O   UNL     1     -11.303  16.098  69.993  1.00  0.00    -0.334 OA 
ENDROOT
BRANCH   2   4
HETATM    4  O   UNL     1     -10.210  14.408  68.897  1.00  0.00    -0.230 OA 
BRANCH   4   5
HETATM    5  C   UNL     1     -10.083  14.853  67.530  1.00  0.00    -0.228 C  
BRANCH   5   6
HETATM    6  C   UNL     1      -8.711  15.546  67.324  1.00  0.00    -0.195 C  
BRANCH   6   7
HETATM    7  N   UNL     1      -8.768  17.107  67.186  1.00  0.00    -0.207 N  
HETATM    8  C   UNL     1      -8.532  17.792  68.513  1.00  0.00    -0.296 C  
HETATM    9  C   UNL     1     -10.162  17.450  66.672  1.00  0.00    -0.324 C  
HETATM   10  C   UNL     1      -7.757  17.586  66.151  1.00  0.00    -0.268 C  
ENDBRANCH   6   7
ENDBRANCH   5   6
BRANCH   5  11
HETATM   11  C   UNL     1     -10.247  13.679  66.567  1.00  0.00    -0.284 C  
HETATM   12  C   UNL     1     -11.715  13.380  66.273  1.00  0.00    -0.366 C  
HETATM   13  O   UNL     1     -12.481  14.381  66.247  1.00  0.00    -0.393 OA 
HETATM   14  O   UNL     1     -11.992  12.155  66.213  1.00  0.00    -0.605 OA 
ENDBRANCH   5  11
ENDBRANCH   4   5
ENDBRANCH   2   4
TORSDOF 5
ENDMDL
MODEL       48
REMARK 921   NORMALIZED FREE ENERGY PREDICTED BY IDOCK:   -3.46 KCAL/MOL
REMARK 922        TOTAL FREE ENERGY PREDICTED BY IDOCK:   -5.08 KCAL/MOL
REMARK 923 INTER-LIGAND FREE ENERGY PREDICTED BY IDOCK:   -4.50 KCAL/MOL
REMARK 924 INTRA-LIGAND FREE ENERGY PREDICTED BY IDOCK:   -0.57 KCAL/MOL
REMARK 927      BINDING AFFINITY PREDICTED BY RF-SCORE:    0.00 PKD
ROOT
HETATM    1  C   UNL     1     -10.190   5.749  74.371  1.00  0.00    -0.296 C  
HETATM    2  C   UNL     1     -10.536   6.775  73.331  1.00  0.00    -0.325 C  
HETATM    3  O   UNL     1     -10.141   7.929  73.327  1.00  0.00    -0.313 OA 
ENDROOT
BRANCH   2   4
HETATM    4  O   UNL     1     -11.300   6.197  72.374  1.00  0.00    -0.269 OA 
BRANCH   4   5
HETATM    5  C   UNL     1     -11.724   7.009  71.259  1.00  0.00    -0.317 C  
BRANCH   5   6
HETATM    6  C   UNL     1     -11.488   6.248  69.929  1.00  0.00    -0.389 C  
BRANCH   6   7
HETATM    7  N   UNL     1     -10.378   6.856  69.002  1.00  0.00    -0.184 N  
HETATM    8  C   UNL     1     -10.716   6.680  67.540  1.00  0.00    -0.317 C  
HETATM    9  C   UNL     1      -9.085   6.115  69.324  1.00  0.00    -0.129 C  
HETATM   10  C   UNL     1     -10.164   8.330  69.327  1.00  0.00    -0.204 C  
ENDBRANCH   6   7
ENDBRANCH   5   6
BRANCH   5  11
HETATM   11  C   UNL     1     -13.193   7.399  71.408  1.00  0.00    -0.395 C  
HETATM   12  C   UNL     1     -13.359   8.806  71.976  1.00  0.00    -0.413 C  
HETATM   13  O   UNL     1     -12.476   9.639  71.636  1.00  0.00    -0.353 OA 
HETATM   14  O   UNL     1     -14.293   8.921  72.810  1.00  0.00    -0.600 OA 
ENDBRANCH   5  11
ENDBRANCH   4   5
ENDBRANCH   2   4
TORSDOF 5
ENDMDL
MODEL       49
REMARK 921   NORMALIZED FREE ENERGY PREDICTED BY IDOCK:   -3.46 KCAL/MOL
REMARK 922        TOTAL FREE ENERGY PREDICTED BY IDOCK:   -5.08 KCAL/MOL
REMARK 923 INTER-LIGAND FREE ENERGY PREDICTED BY IDOCK:   -4.52 KCAL/MOL
REMARK 924 INTRA-LIGAND FREE ENERGY PREDICTED BY IDOCK:   -0.55 KCAL/MOL
REMARK 927      BINDING AFFINITY PREDICTED BY RF-SCORE:    0.00 PKD
ROOT
HETATM    1  C   UNL     1     -13.120  15.497  70.996  1.00  0.00    -0.551 C  
HETATM    2  C   UNL     1     -12.283  14.256  70.882  1.00  0.00    -0.355 C  
HETATM    3  O   UNL     1     -12.701  13.117  71.002  1.00  0.00    -0.337 OA 
ENDROOT
BRANCH   2   4
HETATM    4  O   UNL     1     -11.013  14.603  70.564  1.00  0.00    -0.101 OA 
BRANCH   4   5
HETATM    5  C   UNL     1     -10.697  14.829  69.175  1.00  0.00    -0.254 C  
BRANCH   5   6
HETATM    6  C   UNL     1      -9.389  15.653  69.055  1.00  0.00    -0.243 C  
BRANCH   6   7
HETATM    7  N   UNL     1      -9.463  16.882  68.085  1.00  0.00    -0.245 N  
HETATM    8  C   UNL     1     -10.856  17.465  68.029  1.00  0.00    -0.281 C  
HETATM    9  C   UNL     1      -9.063  16.374  66.704  1.00  0.00    -0.250 C  
HETATM   10  C   UNL     1      -8.456  17.947  68.500  1.00  0.00    -0.298 C  
ENDBRANCH   6   7
ENDBRANCH   5   6
BRANCH   5  11
HETATM   11  C   UNL     1     -10.571  13.501  68.431  1.00  0.00    -0.258 C  
HETATM   12  C   UNL     1     -11.688  13.308  67.408  1.00  0.00    -0.373 C  
HETATM   13  O   UNL     1     -12.094  14.358  66.840  1.00  0.00    -0.425 OA 
HETATM   14  O   UNL     1     -12.142  12.137  67.351  1.00  0.00    -0.553 OA 
ENDBRANCH   5  11
ENDBRANCH   4   5
ENDBRANCH   2   4
TORSDOF 5
ENDMDL
MODEL       50
REMARK 921   NORMALIZED FREE ENERGY PREDICTED BY IDOCK:   -3.45 KCAL/MOL
REMARK 922        TOTAL FREE ENERGY PREDICTED BY IDOCK:   -5.06 KCAL/MOL
REMARK 923 INTER-LIGAND FREE ENERGY PREDICTED BY IDOCK:   -4.43 KCAL/MOL
REMARK 924 INTRA-LIGAND FREE ENERGY PREDICTED BY IDOCK:   -0.63 KCAL/MOL
REMARK 927      BINDING AFFINITY PREDICTED BY RF-SCORE:    0.00 PKD
ROOT
HETATM    1  C   UNL     1      -9.420  16.015  66.467  1.00  0.00    -0.297 C  
HETATM    2  C   UNL     1      -8.006  16.507  66.353  1.00  0.00    -0.317 C  
HETATM    3  O   UNL     1      -7.019  15.893  66.723  1.00  0.00    -0.225 OA 
ENDROOT
BRANCH   2   4
HETATM    4  O   UNL     1      -8.002  17.704  65.719  1.00  0.00    -0.549 OA 
BRANCH   4   5
HETATM    5  C   UNL     1      -8.130  18.897  66.518  1.00  0.00    -0.287 C  
BRANCH   5   6
HETATM    6  C   UNL     1      -6.733  19.521  66.769  1.00  0.00    -0.195 C  
BRANCH   6   7
HETATM    7  N   UNL     1      -6.304  19.610  68.274  1.00  0.00    -0.236 N  
HETATM    8  C   UNL     1      -5.595  20.911  68.576  1.00  0.00    -0.349 C  
HETATM    9  C   UNL     1      -5.360  18.440  68.530  1.00  0.00    -0.170 C  
HETATM   10  C   UNL     1      -7.515  19.439  69.183  1.00  0.00    -0.307 C  
ENDBRANCH   6   7
ENDBRANCH   5   6
BRANCH   5  11
HETATM   11  C   UNL     1      -9.057  19.902  65.837  1.00  0.00    -0.201 C  
HETATM   12  C   UNL     1     -10.529  19.599  66.107  1.00  0.00    -0.524 C  
HETATM   13  O   UNL     1     -10.786  19.112  67.242  1.00  0.00    -0.476 OA 
HETATM   14  O   UNL     1     -11.282  19.764  65.114  1.00  0.00    -0.296 OA 
ENDBRANCH   5  11
ENDBRANCH   4   5
ENDBRANCH   2   4
TORSDOF 5
ENDMDL
MODEL       51
REMARK 921   NORMALIZED FREE ENERGY PREDICTED BY IDOCK:   -3.40 KCAL/MOL
REMARK 922        TOTAL FREE ENERGY PREDICTED BY IDOCK:   -5.00 KCAL/MOL
REMARK 923 INTER-LIGAND FREE ENERGY PREDICTED BY IDOCK:   -5.10 KCAL/MOL
REMARK 924 INTRA-LIGAND FREE ENERGY PREDICTED BY IDOCK:    0.09 KCAL/MOL
REMARK 927      BINDING AFFINITY PREDICTED BY RF-SCORE:    0.00 PKD
ROOT
HETATM    1  C   UNL     1     -11.816  11.834  69.238  1.00  0.00    -0.389 C  
HETATM    2  C   UNL     1     -10.728  12.035  68.224  1.00  0.00    -0.224 C  
HETATM    3  O   UNL     1      -9.546  11.794  68.407  1.00  0.00    -0.192 OA 
ENDROOT
BRANCH   2   4
HETATM    4  O   UNL     1     -11.276  12.463  67.062  1.00  0.00    -0.269 OA 
BRANCH   4   5
HETATM    5  C   UNL     1     -11.878  13.774  67.036  1.00  0.00    -0.410 C  
BRANCH   5   6
HETATM    6  C   UNL     1     -10.775  14.864  67.041  1.00  0.00    -0.307 C  
BRANCH   6   7
HETATM    7  N   UNL     1     -10.729  15.757  68.329  1.00  0.00    -0.270 N  
HETATM    8  C   UNL     1     -11.960  15.566  69.185  1.00  0.00    -0.309 C  
HETATM    9  C   UNL     1     -10.653  17.205  67.855  1.00  0.00    -0.376 C  
HETATM   10  C   UNL     1      -9.469  15.463  69.134  1.00  0.00    -0.242 C  
ENDBRANCH   6   7
ENDBRANCH   5   6
BRANCH   5  11
HETATM   11  C   UNL     1     -12.782  13.925  65.814  1.00  0.00    -0.503 C  
HETATM   12  C   UNL     1     -11.982  14.114  64.528  1.00  0.00    -0.458 C  
HETATM   13  O   UNL     1     -10.881  13.501  64.476  1.00  0.00    -0.378 OA 
HETATM   14  O   UNL     1     -12.472  14.956  63.733  1.00  0.00    -0.768 OA 
ENDBRANCH   5  11
ENDBRANCH   4   5
ENDBRANCH   2   4
TORSDOF 5
ENDMDL
MODEL       52
REMARK 921   NORMALIZED FREE ENERGY PREDICTED BY IDOCK:   -3.39 KCAL/MOL
REMARK 922        TOTAL FREE ENERGY PREDICTED BY IDOCK:   -4.99 KCAL/MOL
REMARK 923 INTER-LIGAND FREE ENERGY PREDICTED BY IDOCK:   -4.42 KCAL/MOL
REMARK 924 INTRA-LIGAND FREE ENERGY PREDICTED BY IDOCK:   -0.57 KCAL/MOL
REMARK 927      BINDING AFFINITY PREDICTED BY RF-SCORE:    0.00 PKD
ROOT
HETATM    1  C   UNL     1      -9.328   7.914  73.400  1.00  0.00    -0.348 C  
HETATM    2  C   UNL     1     -10.570   7.072  73.481  1.00  0.00    -0.368 C  
HETATM    3  O   UNL     1     -10.611   5.923  73.886  1.00  0.00    -0.265 OA 
ENDROOT
BRANCH   2   4
HETATM    4  O   UNL     1     -11.635   7.814  73.095  1.00  0.00    -0.273 OA 
BRANCH   4   5
HETATM    5  C   UNL     1     -11.744   8.174  71.702  1.00  0.00    -0.287 C  
BRANCH   5   6
HETATM    6  C   UNL     1     -11.905   6.898  70.836  1.00  0.00    -0.376 C  
BRANCH   6   7
HETATM    7  N   UNL     1     -10.697   6.581  69.888  1.00  0.00    -0.233 N  
HETATM    8  C   UNL     1      -9.698   7.715  69.861  1.00  0.00    -0.175 C  
HETATM    9  C   UNL     1     -11.277   6.375  68.493  1.00  0.00    -0.228 C  
HETATM   10  C   UNL     1     -10.018   5.283  70.308  1.00  0.00    -0.240 C  
ENDBRANCH   6   7
ENDBRANCH   5   6
BRANCH   5  11
HETATM   11  C   UNL     1     -12.918   9.127  71.486  1.00  0.00    -0.409 C  
HETATM   12  C   UNL     1     -12.456  10.567  71.280  1.00  0.00    -0.419 C  
HETATM   13  O   UNL     1     -11.359  10.708  70.676  1.00  0.00    -0.316 OA 
HETATM   14  O   UNL     1     -13.176  11.428  71.849  1.00  0.00    -0.484 OA 
ENDBRANCH   5  11
ENDBRANCH   4   5
ENDBRANCH   2   4
TORSDOF 5
ENDMDL
MODEL       53
REMARK 921   NORMALIZED FREE ENERGY PREDICTED BY IDOCK:   -3.37 KCAL/MOL
REMARK 922        TOTAL FREE ENERGY PREDICTED BY IDOCK:   -4.96 KCAL/MOL
REMARK 923 INTER-LIGAND FREE ENERGY PREDICTED BY IDOCK:   -4.39 KCAL/MOL
REMARK 924 INTRA-LIGAND FREE ENERGY PREDICTED BY IDOCK:   -0.57 KCAL/MOL
REMARK 927      BINDING AFFINITY PREDICTED BY RF-SCORE:    0.00 PKD
ROOT
HETATM    1  C   UNL     1     -10.941  11.349  69.248  1.00  0.00    -0.282 C  
HETATM    2  C   UNL     1     -11.960  12.340  69.732  1.00  0.00    -0.295 C  
HETATM    3  O   UNL     1     -12.295  12.488  70.895  1.00  0.00    -0.372 OA 
ENDROOT
BRANCH   2   4
HETATM    4  O   UNL     1     -12.394  13.079  68.684  1.00  0.00    -0.098 OA 
BRANCH   4   5
HETATM    5  C   UNL     1     -11.571  14.176  68.237  1.00  0.00    -0.321 C  
BRANCH   5   6
HETATM    6  C   UNL     1     -11.670  14.322  66.697  1.00  0.00    -0.400 C  
BRANCH   6   7
HETATM    7  N   UNL     1     -10.303  14.533  65.958  1.00  0.00    -0.296 N  
HETATM    8  C   UNL     1      -9.984  16.000  65.784  1.00  0.00    -0.351 C  
HETATM    9  C   UNL     1     -10.438  13.871  64.591  1.00  0.00    -0.396 C  
HETATM   10  C   UNL     1      -9.180  13.828  66.709  1.00  0.00    -0.244 C  
ENDBRANCH   6   7
ENDBRANCH   5   6
BRANCH   5  11
HETATM   11  C   UNL     1     -11.982  15.473  68.932  1.00  0.00    -0.306 C  
HETATM   12  C   UNL     1     -11.113  15.771  70.151  1.00  0.00    -0.352 C  
HETATM   13  O   UNL     1      -9.908  15.411  70.063  1.00  0.00    -0.259 OA 
HETATM   14  O   UNL     1     -11.744  16.231  71.137  1.00  0.00    -0.416 OA 
ENDBRANCH   5  11
ENDBRANCH   4   5
ENDBRANCH   2   4
TORSDOF 5
ENDMDL
MODEL       54
REMARK 921   NORMALIZED FREE ENERGY PREDICTED BY IDOCK:   -3.36 KCAL/MOL
REMARK 922        TOTAL FREE ENERGY PREDICTED BY IDOCK:   -4.95 KCAL/MOL
REMARK 923 INTER-LIGAND FREE ENERGY PREDICTED BY IDOCK:   -4.67 KCAL/MOL
REMARK 924 INTRA-LIGAND FREE ENERGY PREDICTED BY IDOCK:   -0.28 KCAL/MOL
REMARK 927      BINDING AFFINITY PREDICTED BY RF-SCORE:    0.00 PKD
ROOT
HETATM    1  C   UNL     1     -10.598   9.776  69.011  1.00  0.00    -0.238 C  
HETATM    2  C   UNL     1     -11.138  10.718  67.973  1.00  0.00    -0.299 C  
HETATM    3  O   UNL     1     -12.218  11.281  68.034  1.00  0.00    -0.621 OA 
ENDROOT
BRANCH   2   4
HETATM    4  O   UNL     1     -10.212  10.886  67.000  1.00  0.00    -0.198 OA 
BRANCH   4   5
HETATM    5  C   UNL     1     -10.425  11.933  66.032  1.00  0.00    -0.245 C  
BRANCH   5   6
HETATM    6  C   UNL     1     -10.127  13.315  66.670  1.00  0.00    -0.266 C  
BRANCH   6   7
HETATM    7  N   UNL     1     -11.222  14.410  66.427  1.00  0.00    -0.337 N  
HETATM    8  C   UNL     1     -10.682  15.569  65.621  1.00  0.00    -0.366 C  
HETATM    9  C   UNL     1     -11.661  14.902  67.803  1.00  0.00    -0.339 C  
HETATM   10  C   UNL     1     -12.438  13.802  65.739  1.00  0.00    -0.485 C  
ENDBRANCH   6   7
ENDBRANCH   5   6
BRANCH   5  11
HETATM   11  C   UNL     1      -9.554  11.707  64.797  1.00  0.00    -0.156 C  
HETATM   12  C   UNL     1     -10.363  11.188  63.612  1.00  0.00    -0.389 C  
HETATM   13  O   UNL     1     -11.546  11.617  63.528  1.00  0.00    -0.428 OA 
HETATM   14  O   UNL     1      -9.781  10.301  62.937  1.00  0.00    -0.298 OA 
ENDBRANCH   5  11
ENDBRANCH   4   5
ENDBRANCH   2   4
TORSDOF 5
ENDMDL
MODEL       55
REMARK 921   NORMALIZED FREE ENERGY PREDICTED BY IDOCK:   -3.36 KCAL/MOL
REMARK 922        TOTAL FREE ENERGY PREDICTED BY IDOCK:   -4.95 KCAL/MOL
REMARK 923 INTER-LIGAND FREE ENERGY PREDICTED BY IDOCK:   -4.44 KCAL/MOL
REMARK 924 INTRA-LIGAND FREE ENERGY PREDICTED BY IDOCK:   -0.51 KCAL/MOL
REMARK 927      BINDING AFFINITY PREDICTED BY RF-SCORE:    0.00 PKD
ROOT
HETATM    1  C   UNL     1     -11.591  13.347  68.777  1.00  0.00    -0.363 C  
HETATM    2  C   UNL     1     -11.780  14.697  68.147  1.00  0.00    -0.330 C  
HETATM    3  O   UNL     1     -11.820  15.753  68.754  1.00  0.00    -0.387 OA 
ENDROOT
BRANCH   2   4
HETATM    4  O   UNL     1     -11.835  14.555  66.801  1.00  0.00    -0.392 OA 
BRANCH   4   5
HETATM    5  C   UNL     1     -10.653  14.092  66.117  1.00  0.00    -0.293 C  
BRANCH   5   6
HETATM    6  C   UNL     1     -10.984  13.790  64.632  1.00  0.00    -0.400 C  
BRANCH   6   7
HETATM    7  N   UNL     1     -11.157  12.271  64.285  1.00  0.00    -0.323 N  
HETATM    8  C   UNL     1     -11.132  11.409  65.527  1.00  0.00    -0.136 C  
HETATM    9  C   UNL     1      -9.992  11.894  63.376  1.00  0.00    -0.410 C  
HETATM   10  C   UNL     1     -12.448  12.047  63.507  1.00  0.00    -0.540 C  
ENDBRANCH   6   7
ENDBRANCH   5   6
BRANCH   5  11
HETATM   11  C   UNL     1      -9.533  15.126  66.223  1.00  0.00    -0.341 C  
HETATM   12  C   UNL     1      -8.412  14.663  67.149  1.00  0.00    -0.221 C  
HETATM   13  O   UNL     1      -8.182  13.423  67.150  1.00  0.00    -0.174 OA 
HETATM   14  O   UNL     1      -7.940  15.568  67.884  1.00  0.00    -0.129 OA 
ENDBRANCH   5  11
ENDBRANCH   4   5
ENDBRANCH   2   4
TORSDOF 5
ENDMDL
MODEL       56
REMARK 921   NORMALIZED FREE ENERGY PREDICTED BY IDOCK:   -3.36 KCAL/MOL
REMARK 922        TOTAL FREE ENERGY PREDICTED BY IDOCK:   -4.95 KCAL/MOL
REMARK 923 INTER-LIGAND FREE ENERGY PREDICTED BY IDOCK:   -4.88 KCAL/MOL
REMARK 924 INTRA-LIGAND FREE ENERGY PREDICTED BY IDOCK:   -0.07 KCAL/MOL
REMARK 927      BINDING AFFINITY PREDICTED BY RF-SCORE:    0.00 PKD
ROOT
HETATM    1  C   UNL     1     -10.619  16.199  67.221  1.00  0.00    -0.305 C  
HETATM    2  C   UNL     1     -10.375  15.829  65.787  1.00  0.00    -0.369 C  
HETATM    3  O   UNL     1     -10.769  16.464  64.823  1.00  0.00    -0.700 OA 
ENDROOT
BRANCH   2   4
HETATM    4  O   UNL     1      -9.598  14.721  65.740  1.00  0.00    -0.316 OA 
BRANCH   4   5
HETATM    5  C   UNL     1     -10.249  13.438  65.631  1.00  0.00    -0.292 C  
BRANCH   5   6
HETATM    6  C   UNL     1     -10.135  12.669  66.972  1.00  0.00    -0.224 C  
BRANCH   6   7
HETATM    7  N   UNL     1      -9.080  11.510  66.988  1.00  0.00    -0.170 N  
HETATM    8  C   UNL     1      -9.212  10.620  65.773  1.00  0.00    -0.189 C  
HETATM    9  C   UNL     1      -9.341  10.697  68.251  1.00  0.00    -0.156 C  
HETATM   10  C   UNL     1      -7.669  12.078  67.081  1.00  0.00    -0.161 C  
ENDBRANCH   6   7
ENDBRANCH   5   6
BRANCH   5  11
HETATM   11  C   UNL     1     -11.713  13.612  65.229  1.00  0.00    -0.349 C  
HETATM   12  C   UNL     1     -11.980  13.118  63.809  1.00  0.00    -0.508 C  
HETATM   13  O   UNL     1     -11.297  12.124  63.440  1.00  0.00    -0.424 OA 
HETATM   14  O   UNL     1     -12.765  13.844  63.148  1.00  0.00    -0.718 OA 
ENDBRANCH   5  11
ENDBRANCH   4   5
ENDBRANCH   2   4
TORSDOF 5
ENDMDL
MODEL       57
REMARK 921   NORMALIZED FREE ENERGY PREDICTED BY IDOCK:   -3.34 KCAL/MOL
REMARK 922        TOTAL FREE ENERGY PREDICTED BY IDOCK:   -4.92 KCAL/MOL
REMARK 923 INTER-LIGAND FREE ENERGY PREDICTED BY IDOCK:   -4.37 KCAL/MOL
REMARK 924 INTRA-LIGAND FREE ENERGY PREDICTED BY IDOCK:   -0.55 KCAL/MOL
REMARK 927      BINDING AFFINITY PREDICTED BY RF-SCORE:    0.00 PKD
ROOT
HETATM    1  C   UNL     1      -7.262  17.353  66.850  1.00  0.00    -0.231 C  
HETATM    2  C   UNL     1      -8.610  17.043  66.266  1.00  0.00    -0.262 C  
HETATM    3  O   UNL     1      -9.485  17.864  66.051  1.00  0.00    -0.504 OA 
ENDROOT
BRANCH   2   4
HETATM    4  O   UNL     1      -8.671  15.725  65.963  1.00  0.00    -0.313 OA 
BRANCH   4   5
HETATM    5  C   UNL     1      -9.765  14.953  66.499  1.00  0.00    -0.276 C  
BRANCH   5   6
HETATM    6  C   UNL     1      -9.863  13.590  65.765  1.00  0.00    -0.201 C  
BRANCH   6   7
HETATM    7  N   UNL     1     -11.211  13.340  65.004  1.00  0.00    -0.298 N  
HETATM    8  C   UNL     1     -11.824  14.632  64.516  1.00  0.00    -0.431 C  
HETATM    9  C   UNL     1     -12.154  12.667  65.996  1.00  0.00    -0.364 C  
HETATM   10  C   UNL     1     -10.995  12.380  63.842  1.00  0.00    -0.414 C  
ENDBRANCH   6   7
ENDBRANCH   5   6
BRANCH   5  11
HETATM   11  C   UNL     1      -9.589  14.746  68.002  1.00  0.00    -0.209 C  
HETATM   12  C   UNL     1     -10.744  15.345  68.802  1.00  0.00    -0.241 C  
HETATM   13  O   UNL     1     -11.875  15.298  68.247  1.00  0.00    -0.336 OA 
HETATM   14  O   UNL     1     -10.394  15.919  69.865  1.00  0.00    -0.288 OA 
ENDBRANCH   5  11
ENDBRANCH   4   5
ENDBRANCH   2   4
TORSDOF 5
ENDMDL
MODEL       58
REMARK 921   NORMALIZED FREE ENERGY PREDICTED BY IDOCK:   -3.32 KCAL/MOL
REMARK 922        TOTAL FREE ENERGY PREDICTED BY IDOCK:   -4.90 KCAL/MOL
REMARK 923 INTER-LIGAND FREE ENERGY PREDICTED BY IDOCK:   -4.70 KCAL/MOL
REMARK 924 INTRA-LIGAND FREE ENERGY PREDICTED BY IDOCK:   -0.20 KCAL/MOL
REMARK 927      BINDING AFFINITY PREDICTED BY RF-SCORE:    0.00 PKD
ROOT
HETATM    1  C   UNL     1     -11.523  15.872  70.771  1.00  0.00    -0.437 C  
HETATM    2  C   UNL     1     -11.907  14.902  69.692  1.00  0.00    -0.318 C  
HETATM    3  O   UNL     1     -12.246  13.746  69.879  1.00  0.00    -0.322 OA 
ENDROOT
BRANCH   2   4
HETATM    4  O   UNL     1     -11.877  15.534  68.495  1.00  0.00    -0.354 OA 
BRANCH   4   5
HETATM    5  C   UNL     1     -11.037  14.986  67.458  1.00  0.00    -0.317 C  
BRANCH   5   6
HETATM    6  C   UNL     1      -9.664  14.573  68.049  1.00  0.00    -0.218 C  
BRANCH   6   7
HETATM    7  N   UNL     1      -8.505  15.604  67.825  1.00  0.00    -0.149 N  
HETATM    8  C   UNL     1      -8.255  16.438  69.060  1.00  0.00    -0.222 C  
HETATM    9  C   UNL     1      -8.938  16.506  66.674  1.00  0.00    -0.255 C  
HETATM   10  C   UNL     1      -7.230  14.885  67.400  1.00  0.00    -0.183 C  
ENDBRANCH   6   7
ENDBRANCH   5   6
BRANCH   5  11
HETATM   11  C   UNL     1     -11.720  13.795  66.788  1.00  0.00    -0.420 C  
HETATM   12  C   UNL     1     -12.206  14.130  65.380  1.00  0.00    -0.433 C  
HETATM   13  O   UNL     1     -11.489  14.942  64.734  1.00  0.00    -0.395 OA 
HETATM   14  O   UNL     1     -13.328  13.643  65.091  1.00  0.00    -0.677 OA 
ENDBRANCH   5  11
ENDBRANCH   4   5
ENDBRANCH   2   4
TORSDOF 5
ENDMDL
MODEL       59
REMARK 921   NORMALIZED FREE ENERGY PREDICTED BY IDOCK:   -3.32 KCAL/MOL
REMARK 922        TOTAL FREE ENERGY PREDICTED BY IDOCK:   -4.90 KCAL/MOL
REMARK 923 INTER-LIGAND FREE ENERGY PREDICTED BY IDOCK:   -4.37 KCAL/MOL
REMARK 924 INTRA-LIGAND FREE ENERGY PREDICTED BY IDOCK:   -0.53 KCAL/MOL
REMARK 927      BINDING AFFINITY PREDICTED BY RF-SCORE:    0.00 PKD
ROOT
HETATM    1  C   UNL     1      -8.805  15.991  66.175  1.00  0.00    -0.366 C  
HETATM    2  C   UNL     1      -9.943  16.917  65.854  1.00  0.00    -0.252 C  
HETATM    3  O   UNL     1     -10.748  16.751  64.954  1.00  0.00    -0.721 OA 
ENDROOT
BRANCH   2   4
HETATM    4  O   UNL     1      -9.965  17.924  66.759  1.00  0.00    -0.306 OA 
BRANCH   4   5
HETATM    5  C   UNL     1      -9.442  17.665  68.078  1.00  0.00    -0.282 C  
BRANCH   5   6
HETATM    6  C   UNL     1      -8.691  18.915  68.607  1.00  0.00    -0.339 C  
BRANCH   6   7
HETATM    7  N   UNL     1      -7.127  18.806  68.597  1.00  0.00    -0.285 N  
HETATM    8  C   UNL     1      -6.659  17.466  69.117  1.00  0.00    -0.246 C  
HETATM    9  C   UNL     1      -6.605  19.919  69.499  1.00  0.00    -0.337 C  
HETATM   10  C   UNL     1      -6.587  19.051  67.193  1.00  0.00    -0.196 C  
ENDBRANCH   6   7
ENDBRANCH   5   6
BRANCH   5  11
HETATM   11  C   UNL     1     -10.566  17.265  69.031  1.00  0.00    -0.247 C  
HETATM   12  C   UNL     1     -10.407  15.833  69.537  1.00  0.00    -0.272 C  
HETATM   13  O   UNL     1      -9.219  15.441  69.699  1.00  0.00    -0.264 OA 
HETATM   14  O   UNL     1     -11.483  15.188  69.613  1.00  0.00    -0.255 OA 
ENDBRANCH   5  11
ENDBRANCH   4   5
ENDBRANCH   2   4
TORSDOF 5
ENDMDL
MODEL       60
REMARK 921   NORMALIZED FREE ENERGY PREDICTED BY IDOCK:   -3.32 KCAL/MOL
REMARK 922        TOTAL FREE ENERGY PREDICTED BY IDOCK:   -4.89 KCAL/MOL
REMARK 923 INTER-LIGAND FREE ENERGY PREDICTED BY IDOCK:   -4.41 KCAL/MOL
REMARK 924 INTRA-LIGAND FREE ENERGY PREDICTED BY IDOCK:   -0.48 KCAL/MOL
REMARK 927      BINDING AFFINITY PREDICTED BY RF-SCORE:    0.00 PKD
ROOT
HETATM    1  C   UNL     1     -14.409   7.775  71.716  1.00  0.00    -0.594 C  
HETATM    2  C   UNL     1     -13.416   8.901  71.750  1.00  0.00    -0.397 C  
HETATM    3  O   UNL     1     -13.503   9.930  71.103  1.00  0.00    -0.367 OA 
ENDROOT
BRANCH   2   4
HETATM    4  O   UNL     1     -12.452   8.615  72.656  1.00  0.00    -0.375 OA 
BRANCH   4   5
HETATM    5  C   UNL     1     -11.287   7.893  72.205  1.00  0.00    -0.337 C  
BRANCH   5   6
HETATM    6  C   UNL     1     -10.262   8.877  71.583  1.00  0.00    -0.345 C  
BRANCH   6   7
HETATM    7  N   UNL     1     -10.041   8.718  70.039  1.00  0.00    -0.185 N  
HETATM    8  C   UNL     1     -10.659   7.442  69.516  1.00  0.00    -0.237 C  
HETATM    9  C   UNL     1      -8.533   8.689  69.813  1.00  0.00    -0.129 C  
HETATM   10  C   UNL     1     -10.600   9.925  69.296  1.00  0.00    -0.224 C  
ENDBRANCH   6   7
ENDBRANCH   5   6
BRANCH   5  11
HETATM   11  C   UNL     1     -10.658   7.114  73.359  1.00  0.00    -0.424 C  
HETATM   12  C   UNL     1     -10.764   5.605  73.157  1.00  0.00    -0.267 C  
HETATM   13  O   UNL     1     -10.691   5.208  71.962  1.00  0.00    -0.218 OA 
HETATM   14  O   UNL     1     -11.032   4.960  74.202  1.00  0.00    -0.310 OA 
ENDBRANCH   5  11
ENDBRANCH   4   5
ENDBRANCH   2   4
TORSDOF 5
ENDMDL
MODEL       61
REMARK 921   NORMALIZED FREE ENERGY PREDICTED BY IDOCK:   -3.31 KCAL/MOL
REMARK 922        TOTAL FREE ENERGY PREDICTED BY IDOCK:   -4.89 KCAL/MOL
REMARK 923 INTER-LIGAND FREE ENERGY PREDICTED BY IDOCK:   -4.29 KCAL/MOL
REMARK 924 INTRA-LIGAND FREE ENERGY PREDICTED BY IDOCK:   -0.60 KCAL/MOL
REMARK 927      BINDING AFFINITY PREDICTED BY RF-SCORE:    0.00 PKD
ROOT
HETATM    1  C   UNL     1     -12.074  12.181  63.463  1.00  0.00    -0.649 C  
HETATM    2  C   UNL     1     -10.666  11.678  63.600  1.00  0.00    -0.435 C  
HETATM    3  O   UNL     1     -10.148  10.840  62.881  1.00  0.00    -0.273 OA 
ENDROOT
BRANCH   2   4
HETATM    4  O   UNL     1     -10.051  12.348  64.604  1.00  0.00    -0.283 OA 
BRANCH   4   5
HETATM    5  C   UNL     1      -9.957  11.707  65.893  1.00  0.00    -0.231 C  
BRANCH   5   6
HETATM    6  C   UNL     1      -8.575  11.019  66.044  1.00  0.00    -0.172 C  
BRANCH   6   7
HETATM    7  N   UNL     1      -8.612   9.452  66.083  1.00  0.00    -0.132 N  
HETATM    8  C   UNL     1     -10.009   8.934  66.343  1.00  0.00    -0.284 C  
HETATM    9  C   UNL     1      -7.686   9.021  67.215  1.00  0.00    -0.096 C  
HETATM   10  C   UNL     1      -8.063   8.875  64.785  1.00  0.00    -0.144 C  
ENDBRANCH   6   7
ENDBRANCH   5   6
BRANCH   5  11
HETATM   11  C   UNL     1     -10.183  12.719  67.013  1.00  0.00    -0.245 C  
HETATM   12  C   UNL     1     -11.594  12.631  67.589  1.00  0.00    -0.357 C  
HETATM   13  O   UNL     1     -12.102  11.477  67.616  1.00  0.00    -0.623 OA 
HETATM   14  O   UNL     1     -12.117  13.744  67.853  1.00  0.00    -0.365 OA 
ENDBRANCH   5  11
ENDBRANCH   4   5
ENDBRANCH   2   4
TORSDOF 5
ENDMDL
MODEL       62
REMARK 921   NORMALIZED FREE ENERGY PREDICTED BY IDOCK:   -3.30 KCAL/MOL
REMARK 922        TOTAL FREE ENERGY PREDICTED BY IDOCK:   -4.87 KCAL/MOL
REMARK 923 INTER-LIGAND FREE ENERGY PREDICTED BY IDOCK:   -4.82 KCAL/MOL
REMARK 924 INTRA-LIGAND FREE ENERGY PREDICTED BY IDOCK:   -0.05 KCAL/MOL
REMARK 927      BINDING AFFINITY PREDICTED BY RF-SCORE:    0.00 PKD
ROOT
HETATM    1  C   UNL     1     -11.544  14.807  65.437  1.00  0.00    -0.316 C  
HETATM    2  C   UNL     1     -10.834  16.045  64.970  1.00  0.00    -0.404 C  
HETATM    3  O   UNL     1     -11.298  16.871  64.204  1.00  0.00    -1.208 OA 
ENDROOT
BRANCH   2   4
HETATM    4  O   UNL     1      -9.629  16.124  65.584  1.00  0.00    -0.424 OA 
BRANCH   4   5
HETATM    5  C   UNL     1      -9.505  16.992  66.729  1.00  0.00    -0.258 C  
BRANCH   5   6
HETATM    6  C   UNL     1      -9.154  18.431  66.269  1.00  0.00    -0.201 C  
BRANCH   6   7
HETATM    7  N   UNL     1      -7.668  18.865  66.516  1.00  0.00    -0.249 N  
HETATM    8  C   UNL     1      -6.713  18.128  65.605  1.00  0.00    -0.230 C  
HETATM    9  C   UNL     1      -7.352  18.532  67.970  1.00  0.00    -0.248 C  
HETATM   10  C   UNL     1      -7.519  20.371  66.339  1.00  0.00    -0.200 C  
ENDBRANCH   6   7
ENDBRANCH   5   6
BRANCH   5  11
HETATM   11  C   UNL     1     -10.793  16.985  67.550  1.00  0.00    -0.203 C  
HETATM   12  C   UNL     1     -10.669  16.123  68.804  1.00  0.00    -0.294 C  
HETATM   13  O   UNL     1      -9.530  16.106  69.344  1.00  0.00    -0.250 OA 
HETATM   14  O   UNL     1     -11.693  15.443  69.068  1.00  0.00    -0.332 OA 
ENDBRANCH   5  11
ENDBRANCH   4   5
ENDBRANCH   2   4
TORSDOF 5
ENDMDL
MODEL       63
REMARK 921   NORMALIZED FREE ENERGY PREDICTED BY IDOCK:   -3.29 KCAL/MOL
REMARK 922        TOTAL FREE ENERGY PREDICTED BY IDOCK:   -4.86 KCAL/MOL
REMARK 923 INTER-LIGAND FREE ENERGY PREDICTED BY IDOCK:   -4.28 KCAL/MOL
REMARK 924 INTRA-LIGAND FREE ENERGY PREDICTED BY IDOCK:   -0.58 KCAL/MOL
REMARK 927      BINDING AFFINITY PREDICTED BY RF-SCORE:    0.00 PKD
ROOT
HETATM    1  C   UNL     1     -13.832   8.639  71.649  1.00  0.00    -0.440 C  
HETATM    2  C   UNL     1     -12.883   9.785  71.847  1.00  0.00    -0.427 C  
HETATM    3  O   UNL     1     -13.212  10.954  71.963  1.00  0.00    -0.492 OA 
ENDROOT
BRANCH   2   4
HETATM    4  O   UNL     1     -11.620   9.305  71.938  1.00  0.00    -0.372 OA 
BRANCH   4   5
HETATM    5  C   UNL     1     -10.994   8.807  70.738  1.00  0.00    -0.247 C  
BRANCH   5   6
HETATM    6  C   UNL     1     -10.084   9.900  70.120  1.00  0.00    -0.255 C  
BRANCH   6   7
HETATM    7  N   UNL     1     -10.465  10.337  68.663  1.00  0.00    -0.182 N  
HETATM    8  C   UNL     1     -10.620   9.145  67.747  1.00  0.00    -0.227 C  
HETATM    9  C   UNL     1      -9.332  11.226  68.163  1.00  0.00    -0.181 C  
HETATM   10  C   UNL     1     -11.741  11.169  68.675  1.00  0.00    -0.320 C  
ENDBRANCH   6   7
ENDBRANCH   5   6
BRANCH   5  11
HETATM   11  C   UNL     1     -10.192   7.542  71.039  1.00  0.00    -0.194 C  
HETATM   12  C   UNL     1     -10.988   6.274  70.738  1.00  0.00    -0.297 C  
HETATM   13  O   UNL     1     -11.783   6.347  69.763  1.00  0.00    -0.414 OA 
HETATM   14  O   UNL     1     -10.833   5.354  71.581  1.00  0.00    -0.229 OA 
ENDBRANCH   5  11
ENDBRANCH   4   5
ENDBRANCH   2   4
TORSDOF 5
ENDMDL
MODEL       64
REMARK 921   NORMALIZED FREE ENERGY PREDICTED BY IDOCK:   -3.28 KCAL/MOL
REMARK 922        TOTAL FREE ENERGY PREDICTED BY IDOCK:   -4.85 KCAL/MOL
REMARK 923 INTER-LIGAND FREE ENERGY PREDICTED BY IDOCK:   -4.25 KCAL/MOL
REMARK 924 INTRA-LIGAND FREE ENERGY PREDICTED BY IDOCK:   -0.60 KCAL/MOL
REMARK 927      BINDING AFFINITY PREDICTED BY RF-SCORE:    0.00 PKD
ROOT
HETATM    1  C   UNL     1      -5.989  18.225  69.032  1.00  0.00    -0.218 C  
HETATM    2  C   UNL     1      -6.636  19.543  69.345  1.00  0.00    -0.338 C  
HETATM    3  O   UNL     1      -6.044  20.601  69.477  1.00  0.00    -0.330 OA 
ENDROOT
BRANCH   2   4
HETATM    4  O   UNL     1      -7.980  19.378  69.394  1.00  0.00    -0.206 OA 
BRANCH   4   5
HETATM    5  C   UNL     1      -8.621  18.693  68.298  1.00  0.00    -0.321 C  
BRANCH   5   6
HETATM    6  C   UNL     1     -10.018  18.182  68.736  1.00  0.00    -0.375 C  
BRANCH   6   7
HETATM    7  N   UNL     1     -10.188  16.623  68.732  1.00  0.00    -0.269 N  
HETATM    8  C   UNL     1     -10.870  16.141  67.473  1.00  0.00    -0.284 C  
HETATM    9  C   UNL     1     -11.042  16.274  69.946  1.00  0.00    -0.347 C  
HETATM   10  C   UNL     1      -8.836  15.941  68.901  1.00  0.00    -0.225 C  
ENDBRANCH   6   7
ENDBRANCH   5   6
BRANCH   5  11
HETATM   11  C   UNL     1      -8.736  19.613  67.085  1.00  0.00    -0.367 C  
HETATM   12  C   UNL     1      -8.012  19.048  65.865  1.00  0.00    -0.075 C  
HETATM   13  O   UNL     1      -8.025  17.792  65.757  1.00  0.00    -0.544 OA 
HETATM   14  O   UNL     1      -7.392  19.906  65.187  1.00  0.00    -0.349 OA 
ENDBRANCH   5  11
ENDBRANCH   4   5
ENDBRANCH   2   4
TORSDOF 5
ENDMDL
MODEL       65
REMARK 921   NORMALIZED FREE ENERGY PREDICTED BY IDOCK:   -3.28 KCAL/MOL
REMARK 922        TOTAL FREE ENERGY PREDICTED BY IDOCK:   -4.85 KCAL/MOL
REMARK 923 INTER-LIGAND FREE ENERGY PREDICTED BY IDOCK:   -4.25 KCAL/MOL
REMARK 924 INTRA-LIGAND FREE ENERGY PREDICTED BY IDOCK:   -0.59 KCAL/MOL
REMARK 927      BINDING AFFINITY PREDICTED BY RF-SCORE:    0.00 PKD
ROOT
HETATM    1  C   UNL     1      -8.358  14.961  67.318  1.00  0.00    -0.233 C  
HETATM    2  C   UNL     1      -8.179  13.481  67.493  1.00  0.00    -0.183 C  
HETATM    3  O   UNL     1      -7.148  12.869  67.272  1.00  0.00    -0.144 OA 
ENDROOT
BRANCH   2   4
HETATM    4  O   UNL     1      -9.321  12.952  67.993  1.00  0.00    -0.200 OA 
BRANCH   4   5
HETATM    5  C   UNL     1     -10.535  13.111  67.230  1.00  0.00    -0.243 C  
BRANCH   5   6
HETATM    6  C   UNL     1     -10.572  12.083  66.070  1.00  0.00    -0.268 C  
BRANCH   6   7
HETATM    7  N   UNL     1     -11.007  12.663  64.680  1.00  0.00    -0.298 N  
HETATM    8  C   UNL     1     -10.787  14.157  64.606  1.00  0.00    -0.386 C  
HETATM    9  C   UNL     1     -12.492  12.354  64.522  1.00  0.00    -0.435 C  
HETATM   10  C   UNL     1     -10.262  11.958  63.553  1.00  0.00    -0.457 C  
ENDBRANCH   6   7
ENDBRANCH   5   6
BRANCH   5  11
HETATM   11  C   UNL     1     -11.759  12.954  68.131  1.00  0.00    -0.395 C  
HETATM   12  C   UNL     1     -12.029  14.211  68.954  1.00  0.00    -0.341 C  
HETATM   13  O   UNL     1     -11.746  15.304  68.392  1.00  0.00    -0.342 OA 
HETATM   14  O   UNL     1     -12.388  13.987  70.139  1.00  0.00    -0.329 OA 
ENDBRANCH   5  11
ENDBRANCH   4   5
ENDBRANCH   2   4
TORSDOF 5
ENDMDL
MODEL       66
REMARK 921   NORMALIZED FREE ENERGY PREDICTED BY IDOCK:   -3.27 KCAL/MOL
REMARK 922        TOTAL FREE ENERGY PREDICTED BY IDOCK:   -4.84 KCAL/MOL
REMARK 923 INTER-LIGAND FREE ENERGY PREDICTED BY IDOCK:   -4.28 KCAL/MOL
REMARK 924 INTRA-LIGAND FREE ENERGY PREDICTED BY IDOCK:   -0.56 KCAL/MOL
REMARK 927      BINDING AFFINITY PREDICTED BY RF-SCORE:    0.00 PKD
ROOT
HETATM    1  C   UNL     1     -12.701  14.179  70.582  1.00  0.00    -0.389 C  
HETATM    2  C   UNL     1     -12.127  15.526  70.249  1.00  0.00    -0.386 C  
HETATM    3  O   UNL     1     -11.658  16.307  71.060  1.00  0.00    -0.410 OA 
ENDROOT
BRANCH   2   4
HETATM    4  O   UNL     1     -12.156  15.701  68.907  1.00  0.00    -0.319 OA 
BRANCH   4   5
HETATM    5  C   UNL     1     -11.168  15.016  68.110  1.00  0.00    -0.308 C  
BRANCH   5   6
HETATM    6  C   UNL     1     -11.699  14.811  66.667  1.00  0.00    -0.283 C  
BRANCH   6   7
HETATM    7  N   UNL     1     -11.570  13.351  66.111  1.00  0.00    -0.333 N  
HETATM    8  C   UNL     1     -11.494  12.335  67.227  1.00  0.00    -0.357 C  
HETATM    9  C   UNL     1     -10.287  13.308  65.288  1.00  0.00    -0.312 C  
HETATM   10  C   UNL     1     -12.733  13.033  65.179  1.00  0.00    -0.397 C  
ENDBRANCH   6   7
ENDBRANCH   5   6
BRANCH   5  11
HETATM   11  C   UNL     1      -9.854  15.794  68.098  1.00  0.00    -0.209 C  
HETATM   12  C   UNL     1      -8.701  14.981  68.680  1.00  0.00    -0.176 C  
HETATM   13  O   UNL     1      -8.746  13.740  68.466  1.00  0.00    -0.173 OA 
HETATM   14  O   UNL     1      -7.914  15.644  69.404  1.00  0.00    -0.226 OA 
ENDBRANCH   5  11
ENDBRANCH   4   5
ENDBRANCH   2   4
TORSDOF 5
ENDMDL
MODEL       67
REMARK 921   NORMALIZED FREE ENERGY PREDICTED BY IDOCK:   -3.26 KCAL/MOL
REMARK 922        TOTAL FREE ENERGY PREDICTED BY IDOCK:   -4.82 KCAL/MOL
REMARK 923 INTER-LIGAND FREE ENERGY PREDICTED BY IDOCK:   -4.30 KCAL/MOL
REMARK 924 INTRA-LIGAND FREE ENERGY PREDICTED BY IDOCK:   -0.52 KCAL/MOL
REMARK 927      BINDING AFFINITY PREDICTED BY RF-SCORE:    0.00 PKD
ROOT
HETATM    1  C   UNL     1     -14.301   7.440  71.486  1.00  0.00    -0.594 C  
HETATM    2  C   UNL     1     -13.806   8.761  71.999  1.00  0.00    -0.451 C  
HETATM    3  O   UNL     1     -14.200   9.310  73.014  1.00  0.00    -0.387 OA 
ENDROOT
BRANCH   2   4
HETATM    4  O   UNL     1     -12.814   9.207  71.193  1.00  0.00    -0.289 OA 
BRANCH   4   5
HETATM    5  C   UNL     1     -11.655   8.368  71.011  1.00  0.00    -0.275 C  
BRANCH   5   6
HETATM    6  C   UNL     1     -10.898   8.779  69.722  1.00  0.00    -0.193 C  
BRANCH   6   7
HETATM    7  N   UNL     1     -10.488   7.591  68.784  1.00  0.00    -0.207 N  
HETATM    8  C   UNL     1     -10.651   7.952  67.325  1.00  0.00    -0.295 C  
HETATM    9  C   UNL     1     -11.405   6.424  69.130  1.00  0.00    -0.296 C  
HETATM   10  C   UNL     1      -9.055   7.160  69.069  1.00  0.00    -0.132 C  
ENDBRANCH   6   7
ENDBRANCH   5   6
BRANCH   5  11
HETATM   11  C   UNL     1     -10.736   8.452  72.229  1.00  0.00    -0.417 C  
HETATM   12  C   UNL     1     -10.574   7.100  72.919  1.00  0.00    -0.281 C  
HETATM   13  O   UNL     1     -10.588   6.094  72.159  1.00  0.00    -0.198 OA 
HETATM   14  O   UNL     1     -10.566   7.158  74.175  1.00  0.00    -0.283 OA 
ENDBRANCH   5  11
ENDBRANCH   4   5
ENDBRANCH   2   4
TORSDOF 5
ENDMDL
MODEL       68
REMARK 921   NORMALIZED FREE ENERGY PREDICTED BY IDOCK:   -3.26 KCAL/MOL
REMARK 922        TOTAL FREE ENERGY PREDICTED BY IDOCK:   -4.81 KCAL/MOL
REMARK 923 INTER-LIGAND FREE ENERGY PREDICTED BY IDOCK:   -4.95 KCAL/MOL
REMARK 924 INTRA-LIGAND FREE ENERGY PREDICTED BY IDOCK:    0.14 KCAL/MOL
REMARK 927      BINDING AFFINITY PREDICTED BY RF-SCORE:    0.00 PKD
ROOT
HETATM    1  C   UNL     1     -12.222  14.598  64.777  1.00  0.00    -0.403 C  
HETATM    2  C   UNL     1     -11.184  15.682  64.818  1.00  0.00    -0.382 C  
HETATM    3  O   UNL     1     -11.265  16.751  64.237  1.00  0.00    -1.163 OA 
ENDROOT
BRANCH   2   4
HETATM    4  O   UNL     1     -10.182  15.307  65.648  1.00  0.00    -0.315 OA 
BRANCH   4   5
HETATM    5  C   UNL     1     -10.302  15.632  67.049  1.00  0.00    -0.289 C  
BRANCH   5   6
HETATM    6  C   UNL     1     -10.731  17.113  67.216  1.00  0.00    -0.208 C  
BRANCH   6   7
HETATM    7  N   UNL     1      -9.639  18.056  67.829  1.00  0.00    -0.272 N  
HETATM    8  C   UNL     1      -8.875  18.796  66.756  1.00  0.00    -0.305 C  
HETATM    9  C   UNL     1      -8.685  17.166  68.619  1.00  0.00    -0.266 C  
HETATM   10  C   UNL     1     -10.275  19.039  68.805  1.00  0.00    -0.274 C  
ENDBRANCH   6   7
ENDBRANCH   5   6
BRANCH   5  11
HETATM   11  C   UNL     1     -11.300  14.699  67.732  1.00  0.00    -0.338 C  
HETATM   12  C   UNL     1     -10.696  13.327  68.024  1.00  0.00    -0.240 C  
HETATM   13  O   UNL     1      -9.468  13.322  68.311  1.00  0.00    -0.214 OA 
HETATM   14  O   UNL     1     -11.478  12.363  67.821  1.00  0.00    -0.280 OA 
ENDBRANCH   5  11
ENDBRANCH   4   5
ENDBRANCH   2   4
TORSDOF 5
ENDMDL
MODEL       69
REMARK 921   NORMALIZED FREE ENERGY PREDICTED BY IDOCK:   -3.25 KCAL/MOL
REMARK 922        TOTAL FREE ENERGY PREDICTED BY IDOCK:   -4.81 KCAL/MOL
REMARK 923 INTER-LIGAND FREE ENERGY PREDICTED BY IDOCK:   -4.18 KCAL/MOL
REMARK 924 INTRA-LIGAND FREE ENERGY PREDICTED BY IDOCK:   -0.63 KCAL/MOL
REMARK 927      BINDING AFFINITY PREDICTED BY RF-SCORE:    0.00 PKD
ROOT
HETATM    1  C   UNL     1     -10.641   9.534  67.076  1.00  0.00    -0.271 C  
HETATM    2  C   UNL     1     -11.079  10.251  68.321  1.00  0.00    -0.254 C  
HETATM    3  O   UNL     1     -12.045  10.991  68.400  1.00  0.00    -0.594 OA 
ENDROOT
BRANCH   2   4
HETATM    4  O   UNL     1     -10.270   9.893  69.347  1.00  0.00    -0.189 OA 
BRANCH   4   5
HETATM    5  C   UNL     1     -10.776   8.951  70.315  1.00  0.00    -0.221 C  
BRANCH   5   6
HETATM    6  C   UNL     1      -9.686   7.902  70.655  1.00  0.00    -0.173 C  
BRANCH   6   7
HETATM    7  N   UNL     1     -10.115   6.408  70.453  1.00  0.00    -0.183 N  
HETATM    8  C   UNL     1      -8.954   5.551  70.002  1.00  0.00    -0.131 C  
HETATM    9  C   UNL     1     -11.201   6.405  69.383  1.00  0.00    -0.394 C  
HETATM   10  C   UNL     1     -10.721   5.851  71.735  1.00  0.00    -0.245 C  
ENDBRANCH   6   7
ENDBRANCH   5   6
BRANCH   5  11
HETATM   11  C   UNL     1     -11.242   9.677  71.576  1.00  0.00    -0.377 C  
HETATM   12  C   UNL     1     -12.760   9.639  71.732  1.00  0.00    -0.420 C  
HETATM   13  O   UNL     1     -13.326   8.593  71.313  1.00  0.00    -0.261 OA 
HETATM   14  O   UNL     1     -13.264  10.713  72.151  1.00  0.00    -0.464 OA 
ENDBRANCH   5  11
ENDBRANCH   4   5
ENDBRANCH   2   4
TORSDOF 5
ENDMDL
MODEL       70
REMARK 921   NORMALIZED FREE ENERGY PREDICTED BY IDOCK:   -3.24 KCAL/MOL
REMARK 922        TOTAL FREE ENERGY PREDICTED BY IDOCK:   -4.80 KCAL/MOL
REMARK 923 INTER-LIGAND FREE ENERGY PREDICTED BY IDOCK:   -4.98 KCAL/MOL
REMARK 924 INTRA-LIGAND FREE ENERGY PREDICTED BY IDOCK:    0.18 KCAL/MOL
REMARK 927      BINDING AFFINITY PREDICTED BY RF-SCORE:    0.00 PKD
ROOT
HETATM    1  C   UNL     1     -10.622  10.708  69.348  1.00  0.00    -0.270 C  
HETATM    2  C   UNL     1     -11.686  11.636  68.836  1.00  0.00    -0.334 C  
HETATM    3  O   UNL     1     -12.099  11.663  67.689  1.00  0.00    -0.615 OA 
ENDROOT
BRANCH   2   4
HETATM    4  O   UNL     1     -12.152  12.386  69.863  1.00  0.00    -0.299 OA 
BRANCH   4   5
HETATM    5  C   UNL     1     -11.934  13.811  69.818  1.00  0.00    -0.344 C  
BRANCH   5   6
HETATM    6  C   UNL     1     -11.722  14.361  71.253  1.00  0.00    -0.122 C  
BRANCH   6   7
HETATM    7  N   UNL     1     -13.028  14.506  72.109  1.00  0.00    -0.328 N  
HETATM    8  C   UNL     1     -13.594  13.158  72.494  1.00  0.00    -0.491 C  
HETATM    9  C   UNL     1     -14.035  15.258  71.246  1.00  0.00    -0.457 C  
HETATM   10  C   UNL     1     -12.757  15.345  73.351  1.00  0.00    -0.533 C  
ENDBRANCH   6   7
ENDBRANCH   5   6
BRANCH   5  11
HETATM   11  C   UNL     1     -10.737  14.142  68.929  1.00  0.00    -0.270 C  
HETATM   12  C   UNL     1     -10.990  15.372  68.062  1.00  0.00    -0.307 C  
HETATM   13  O   UNL     1     -11.706  16.270  68.583  1.00  0.00    -0.314 OA 
HETATM   14  O   UNL     1     -10.548  15.278  66.888  1.00  0.00    -0.291 OA 
ENDBRANCH   5  11
ENDBRANCH   4   5
ENDBRANCH   2   4
TORSDOF 5
ENDMDL
MODEL       71
REMARK 921   NORMALIZED FREE ENERGY PREDICTED BY IDOCK:   -3.24 KCAL/MOL
REMARK 922        TOTAL FREE ENERGY PREDICTED BY IDOCK:   -4.79 KCAL/MOL
REMARK 923 INTER-LIGAND FREE ENERGY PREDICTED BY IDOCK:   -4.28 KCAL/MOL
REMARK 924 INTRA-LIGAND FREE ENERGY PREDICTED BY IDOCK:   -0.51 KCAL/MOL
REMARK 927      BINDING AFFINITY PREDICTED BY RF-SCORE:    0.00 PKD
ROOT
HETATM    1  C   UNL     1     -11.571  15.865  70.712  1.00  0.00    -0.441 C  
HETATM    2  C   UNL     1     -10.367  16.142  69.859  1.00  0.00    -0.209 C  
HETATM    3  O   UNL     1      -9.402  15.404  69.748  1.00  0.00    -0.253 OA 
ENDROOT
BRANCH   2   4
HETATM    4  O   UNL     1     -10.554  17.304  69.190  1.00  0.00    -0.320 OA 
BRANCH   4   5
HETATM    5  C   UNL     1     -10.427  17.291  67.753  1.00  0.00    -0.371 C  
BRANCH   5   6
HETATM    6  C   UNL     1     -11.337  16.190  67.150  1.00  0.00     0.166 C  
BRANCH   6   7
HETATM    7  N   UNL     1     -10.588  15.078  66.338  1.00  0.00    -0.302 N  
HETATM    8  C   UNL     1      -9.106  15.359  66.245  1.00  0.00    -0.320 C  
HETATM    9  C   UNL     1     -11.199  15.071  64.940  1.00  0.00    -0.416 C  
HETATM   10  C   UNL     1     -10.833  13.709  66.961  1.00  0.00    -0.286 C  
ENDBRANCH   6   7
ENDBRANCH   5   6
BRANCH   5  11
HETATM   11  C   UNL     1     -10.773  18.660  67.172  1.00  0.00    -0.433 C  
HETATM   12  C   UNL     1      -9.534  19.527  66.967  1.00  0.00    -0.337 C  
HETATM   13  O   UNL     1      -8.483  18.909  66.645  1.00  0.00    -0.281 OA 
HETATM   14  O   UNL     1      -9.694  20.738  67.264  1.00  0.00    -0.479 OA 
ENDBRANCH   5  11
ENDBRANCH   4   5
ENDBRANCH   2   4
TORSDOF 5
ENDMDL
MODEL       72
REMARK 921   NORMALIZED FREE ENERGY PREDICTED BY IDOCK:   -3.23 KCAL/MOL
REMARK 922        TOTAL FREE ENERGY PREDICTED BY IDOCK:   -4.79 KCAL/MOL
REMARK 923 INTER-LIGAND FREE ENERGY PREDICTED BY IDOCK:   -4.22 KCAL/MOL
REMARK 924 INTRA-LIGAND FREE ENERGY PREDICTED BY IDOCK:   -0.56 KCAL/MOL
REMARK 927      BINDING AFFINITY PREDICTED BY RF-SCORE:    0.00 PKD
ROOT
HETATM    1  C   UNL     1      -8.302  14.031  67.451  1.00  0.00    -0.207 C  
HETATM    2  C   UNL     1      -9.575  14.049  66.655  1.00  0.00    -0.289 C  
HETATM    3  O   UNL     1     -10.185  13.060  66.287  1.00  0.00    -0.274 OA 
ENDROOT
BRANCH   2   4
HETATM    4  O   UNL     1      -9.965  15.333  66.471  1.00  0.00    -0.246 OA 
BRANCH   4   5
HETATM    5  C   UNL     1     -10.369  16.095  67.627  1.00  0.00    -0.288 C  
BRANCH   5   6
HETATM    6  C   UNL     1     -10.544  17.587  67.245  1.00  0.00    -0.287 C  
BRANCH   6   7
HETATM    7  N   UNL     1      -9.412  18.543  67.759  1.00  0.00    -0.285 N  
HETATM    8  C   UNL     1      -9.974  19.677  68.586  1.00  0.00    -0.458 C  
HETATM    9  C   UNL     1      -8.718  19.104  66.522  1.00  0.00    -0.337 C  
HETATM   10  C   UNL     1      -8.379  17.760  68.560  1.00  0.00    -0.297 C  
ENDBRANCH   6   7
ENDBRANCH   5   6
BRANCH   5  11
HETATM   11  C   UNL     1     -11.660  15.531  68.216  1.00  0.00    -0.344 C  
HETATM   12  C   UNL     1     -11.435  14.888  69.582  1.00  0.00    -0.294 C  
HETATM   13  O   UNL     1     -10.551  15.429  70.301  1.00  0.00    -0.301 OA 
HETATM   14  O   UNL     1     -12.080  13.824  69.766  1.00  0.00    -0.315 OA 
ENDBRANCH   5  11
ENDBRANCH   4   5
ENDBRANCH   2   4
TORSDOF 5
ENDMDL
MODEL       73
REMARK 921   NORMALIZED FREE ENERGY PREDICTED BY IDOCK:   -3.23 KCAL/MOL
REMARK 922        TOTAL FREE ENERGY PREDICTED BY IDOCK:   -4.78 KCAL/MOL
REMARK 923 INTER-LIGAND FREE ENERGY PREDICTED BY IDOCK:   -4.19 KCAL/MOL
REMARK 924 INTRA-LIGAND FREE ENERGY PREDICTED BY IDOCK:   -0.59 KCAL/MOL
REMARK 927      BINDING AFFINITY PREDICTED BY RF-SCORE:    0.00 PKD
ROOT
HETATM    1  C   UNL     1     -12.733  10.410  71.278  1.00  0.00    -0.536 C  
HETATM    2  C   UNL     1     -12.324  11.454  70.279  1.00  0.00    -0.297 C  
HETATM    3  O   UNL     1     -11.938  12.577  70.558  1.00  0.00    -0.326 OA 
ENDROOT
BRANCH   2   4
HETATM    4  O   UNL     1     -12.393  10.928  69.033  1.00  0.00    -0.464 OA 
BRANCH   4   5
HETATM    5  C   UNL     1     -11.276  11.135  68.145  1.00  0.00    -0.292 C  
BRANCH   5   6
HETATM    6  C   UNL     1     -10.775   9.774  67.596  1.00  0.00    -0.274 C  
BRANCH   6   7
HETATM    7  N   UNL     1      -9.731   9.034  68.502  1.00  0.00    -0.156 N  
HETATM    8  C   UNL     1      -8.657   8.361  67.679  1.00  0.00    -0.130 C  
HETATM    9  C   UNL     1     -10.505   7.985  69.293  1.00  0.00    -0.215 C  
HETATM   10  C   UNL     1      -9.110  10.005  69.499  1.00  0.00    -0.220 C  
ENDBRANCH   6   7
ENDBRANCH   5   6
BRANCH   5  11
HETATM   11  C   UNL     1     -11.666  12.070  67.002  1.00  0.00    -0.341 C  
HETATM   12  C   UNL     1     -11.172  13.496  67.233  1.00  0.00    -0.298 C  
HETATM   13  O   UNL     1     -10.071  13.601  67.838  1.00  0.00    -0.232 OA 
HETATM   14  O   UNL     1     -11.991  14.389  66.895  1.00  0.00    -0.410 OA 
ENDBRANCH   5  11
ENDBRANCH   4   5
ENDBRANCH   2   4
TORSDOF 5
ENDMDL
MODEL       74
REMARK 921   NORMALIZED FREE ENERGY PREDICTED BY IDOCK:   -3.22 KCAL/MOL
REMARK 922        TOTAL FREE ENERGY PREDICTED BY IDOCK:   -4.77 KCAL/MOL
REMARK 923 INTER-LIGAND FREE ENERGY PREDICTED BY IDOCK:   -4.56 KCAL/MOL
REMARK 924 INTRA-LIGAND FREE ENERGY PREDICTED BY IDOCK:   -0.21 KCAL/MOL
REMARK 927      BINDING AFFINITY PREDICTED BY RF-SCORE:    0.00 PKD
ROOT
HETATM    1  C   UNL     1      -9.558  17.038  67.067  1.00  0.00    -0.257 C  
HETATM    2  C   UNL     1      -9.732  15.841  66.178  1.00  0.00    -0.322 C  
HETATM    3  O   UNL     1     -10.078  15.882  65.009  1.00  0.00    -0.444 OA 
ENDROOT
BRANCH   2   4
HETATM    4  O   UNL     1      -9.384  14.725  66.861  1.00  0.00    -0.217 OA 
BRANCH   4   5
HETATM    5  C   UNL     1     -10.336  13.643  66.926  1.00  0.00    -0.262 C  
BRANCH   5   6
HETATM    6  C   UNL     1     -10.091  12.797  68.203  1.00  0.00    -0.239 C  
BRANCH   6   7
HETATM    7  N   UNL     1      -9.097  11.598  68.026  1.00  0.00    -0.171 N  
HETATM    8  C   UNL     1      -7.677  11.998  68.354  1.00  0.00    -0.138 C  
HETATM    9  C   UNL     1      -9.185  11.168  66.565  1.00  0.00    -0.179 C  
HETATM   10  C   UNL     1      -9.530  10.417  68.886  1.00  0.00    -0.186 C  
ENDBRANCH   6   7
ENDBRANCH   5   6
BRANCH   5  11
HETATM   11  C   UNL     1     -11.764  14.183  66.900  1.00  0.00    -0.437 C  
HETATM   12  C   UNL     1     -12.611  13.514  65.820  1.00  0.00    -0.434 C  
HETATM   13  O   UNL     1     -12.348  12.301  65.595  1.00  0.00    -0.619 OA 
HETATM   14  O   UNL     1     -13.382  14.295  65.209  1.00  0.00    -0.660 OA 
ENDBRANCH   5  11
ENDBRANCH   4   5
ENDBRANCH   2   4
TORSDOF 5
ENDMDL
MODEL       75
REMARK 921   NORMALIZED FREE ENERGY PREDICTED BY IDOCK:   -3.21 KCAL/MOL
REMARK 922        TOTAL FREE ENERGY PREDICTED BY IDOCK:   -4.75 KCAL/MOL
REMARK 923 INTER-LIGAND FREE ENERGY PREDICTED BY IDOCK:   -4.16 KCAL/MOL
REMARK 924 INTRA-LIGAND FREE ENERGY PREDICTED BY IDOCK:   -0.59 KCAL/MOL
REMARK 927      BINDING AFFINITY PREDICTED BY RF-SCORE:    0.00 PKD
ROOT
HETATM    1  C   UNL     1     -13.146  10.882  71.874  1.00  0.00    -0.537 C  
HETATM    2  C   UNL     1     -12.329   9.623  71.817  1.00  0.00    -0.392 C  
HETATM    3  O   UNL     1     -12.567   8.605  72.444  1.00  0.00    -0.383 OA 
ENDROOT
BRANCH   2   4
HETATM    4  O   UNL     1     -11.331   9.782  70.915  1.00  0.00    -0.307 OA 
BRANCH   4   5
HETATM    5  C   UNL     1     -10.449   8.667  70.673  1.00  0.00    -0.204 C  
BRANCH   5   6
HETATM    6  C   UNL     1     -10.254   8.466  69.148  1.00  0.00    -0.211 C  
BRANCH   6   7
HETATM    7  N   UNL     1     -10.373   6.984  68.651  1.00  0.00    -0.180 N  
HETATM    8  C   UNL     1     -11.281   6.169  69.543  1.00  0.00    -0.411 C  
HETATM    9  C   UNL     1      -8.965   6.399  68.680  1.00  0.00    -0.125 C  
HETATM   10  C   UNL     1     -10.865   6.944  67.210  1.00  0.00    -0.356 C  
ENDBRANCH   6   7
ENDBRANCH   5   6
BRANCH   5  11
HETATM   11  C   UNL     1      -9.106   8.886  71.367  1.00  0.00    -0.318 C  
HETATM   12  C   UNL     1      -8.935   7.980  72.584  1.00  0.00    -0.218 C  
HETATM   13  O   UNL     1      -9.465   6.840  72.494  1.00  0.00    -0.141 OA 
HETATM   14  O   UNL     1      -8.387   8.536  73.570  1.00  0.00    -0.381 OA 
ENDBRANCH   5  11
ENDBRANCH   4   5
ENDBRANCH   2   4
TORSDOF 5
ENDMDL
MODEL       76
REMARK 921   NORMALIZED FREE ENERGY PREDICTED BY IDOCK:   -3.19 KCAL/MOL
REMARK 922        TOTAL FREE ENERGY PREDICTED BY IDOCK:   -4.73 KCAL/MOL
REMARK 923 INTER-LIGAND FREE ENERGY PREDICTED BY IDOCK:   -4.22 KCAL/MOL
REMARK 924 INTRA-LIGAND FREE ENERGY PREDICTED BY IDOCK:   -0.50 KCAL/MOL
REMARK 927      BINDING AFFINITY PREDICTED BY RF-SCORE:    0.00 PKD
ROOT
HETATM    1  C   UNL     1     -11.766   9.490  71.196  1.00  0.00    -0.438 C  
HETATM    2  C   UNL     1     -12.909   8.685  71.744  1.00  0.00    -0.359 C  
HETATM    3  O   UNL     1     -13.775   9.115  72.487  1.00  0.00    -0.474 OA 
ENDROOT
BRANCH   2   4
HETATM    4  O   UNL     1     -12.857   7.433  71.232  1.00  0.00    -0.351 OA 
BRANCH   4   5
HETATM    5  C   UNL     1     -11.579   6.764  71.199  1.00  0.00    -0.329 C  
BRANCH   5   6
HETATM    6  C   UNL     1     -11.497   5.721  72.345  1.00  0.00    -0.288 C  
BRANCH   6   7
HETATM    7  N   UNL     1     -10.239   5.850  73.272  1.00  0.00    -0.191 N  
HETATM    8  C   UNL     1     -10.360   4.976  74.499  1.00  0.00    -0.278 C  
HETATM    9  C   UNL     1     -10.151   7.314  73.689  1.00  0.00    -0.340 C  
HETATM   10  C   UNL     1      -8.971   5.508  72.498  1.00  0.00    -0.133 C  
ENDBRANCH   6   7
ENDBRANCH   5   6
BRANCH   5  11
HETATM   11  C   UNL     1     -11.357   6.097  69.843  1.00  0.00    -0.454 C  
HETATM   12  C   UNL     1     -10.426   6.912  68.950  1.00  0.00    -0.208 C  
HETATM   13  O   UNL     1      -9.509   7.540  69.546  1.00  0.00    -0.156 OA 
HETATM   14  O   UNL     1     -10.768   6.947  67.740  1.00  0.00    -0.224 OA 
ENDBRANCH   5  11
ENDBRANCH   4   5
ENDBRANCH   2   4
TORSDOF 5
ENDMDL
MODEL       77
REMARK 921   NORMALIZED FREE ENERGY PREDICTED BY IDOCK:   -3.18 KCAL/MOL
REMARK 922        TOTAL FREE ENERGY PREDICTED BY IDOCK:   -4.72 KCAL/MOL
REMARK 923 INTER-LIGAND FREE ENERGY PREDICTED BY IDOCK:   -4.16 KCAL/MOL
REMARK 924 INTRA-LIGAND FREE ENERGY PREDICTED BY IDOCK:   -0.56 KCAL/MOL
REMARK 927      BINDING AFFINITY PREDICTED BY RF-SCORE:    0.00 PKD
ROOT
HETATM    1  C   UNL     1     -12.743  13.851  65.902  1.00  0.00    -0.466 C  
HETATM    2  C   UNL     1     -11.374  14.462  65.810  1.00  0.00    -0.330 C  
HETATM    3  O   UNL     1     -10.713  14.548  64.790  1.00  0.00    -0.413 OA 
ENDROOT
BRANCH   2   4
HETATM    4  O   UNL     1     -11.025  14.954  67.023  1.00  0.00    -0.312 OA 
BRANCH   4   5
HETATM    5  C   UNL     1     -10.887  14.027  68.119  1.00  0.00    -0.248 C  
BRANCH   5   6
HETATM    6  C   UNL     1      -9.804  12.969  67.785  1.00  0.00    -0.224 C  
BRANCH   6   7
HETATM    7  N   UNL     1     -10.306  11.484  67.774  1.00  0.00    -0.179 N  
HETATM    8  C   UNL     1     -11.657  11.347  68.439  1.00  0.00    -0.315 C  
HETATM    9  C   UNL     1      -9.272  10.665  68.539  1.00  0.00    -0.170 C  
HETATM   10  C   UNL     1     -10.359  10.952  66.346  1.00  0.00    -0.251 C  
ENDBRANCH   6   7
ENDBRANCH   5   6
BRANCH   5  11
HETATM   11  C   UNL     1     -10.539  14.770  69.408  1.00  0.00    -0.229 C  
HETATM   12  C   UNL     1     -11.766  14.996  70.288  1.00  0.00    -0.294 C  
HETATM   13  O   UNL     1     -12.638  14.086  70.253  1.00  0.00    -0.342 OA 
HETATM   14  O   UNL     1     -11.804  16.123  70.844  1.00  0.00    -0.384 OA 
ENDBRANCH   5  11
ENDBRANCH   4   5
ENDBRANCH   2   4
TORSDOF 5
ENDMDL
MODEL       78
REMARK 921   NORMALIZED FREE ENERGY PREDICTED BY IDOCK:   -3.18 KCAL/MOL
REMARK 922        TOTAL FREE ENERGY PREDICTED BY IDOCK:   -4.71 KCAL/MOL
REMARK 923 INTER-LIGAND FREE ENERGY PREDICTED BY IDOCK:   -4.14 KCAL/MOL
REMARK 924 INTRA-LIGAND FREE ENERGY PREDICTED BY IDOCK:   -0.58 KCAL/MOL
REMARK 927      BINDING AFFINITY PREDICTED BY RF-SCORE:    0.00 PKD
ROOT
HETATM    1  C   UNL     1     -11.638  15.965  70.940  1.00  0.00    -0.456 C  
HETATM    2  C   UNL     1     -11.898  15.154  69.703  1.00  0.00    -0.334 C  
HETATM    3  O   UNL     1     -12.196  13.972  69.690  1.00  0.00    -0.334 OA 
ENDROOT
BRANCH   2   4
HETATM    4  O   UNL     1     -11.810  15.959  68.617  1.00  0.00    -0.388 OA 
BRANCH   4   5
HETATM    5  C   UNL     1     -10.520  16.512  68.283  1.00  0.00    -0.313 C  
BRANCH   5   6
HETATM    6  C   UNL     1      -9.743  15.530  67.369  1.00  0.00    -0.218 C  
BRANCH   6   7
HETATM    7  N   UNL     1      -8.613  14.709  68.082  1.00  0.00    -0.159 N  
HETATM    8  C   UNL     1      -8.345  15.226  69.476  1.00  0.00    -0.190 C  
HETATM    9  C   UNL     1      -7.359  14.858  67.228  1.00  0.00    -0.140 C  
HETATM   10  C   UNL     1      -8.977  13.230  68.122  1.00  0.00    -0.195 C  
ENDBRANCH   6   7
ENDBRANCH   5   6
BRANCH   5  11
HETATM   11  C   UNL     1     -10.679  17.872  67.606  1.00  0.00    -0.343 C  
HETATM   12  C   UNL     1      -9.887  18.964  68.321  1.00  0.00    -0.374 C  
HETATM   13  O   UNL     1      -8.798  18.598  68.841  1.00  0.00    -0.282 OA 
HETATM   14  O   UNL     1     -10.484  20.068  68.402  1.00  0.00    -0.411 OA 
ENDBRANCH   5  11
ENDBRANCH   4   5
ENDBRANCH   2   4
TORSDOF 5
ENDMDL
MODEL       79
REMARK 921   NORMALIZED FREE ENERGY PREDICTED BY IDOCK:   -3.17 KCAL/MOL
REMARK 922        TOTAL FREE ENERGY PREDICTED BY IDOCK:   -4.71 KCAL/MOL
REMARK 923 INTER-LIGAND FREE ENERGY PREDICTED BY IDOCK:   -4.15 KCAL/MOL
REMARK 924 INTRA-LIGAND FREE ENERGY PREDICTED BY IDOCK:   -0.56 KCAL/MOL
REMARK 927      BINDING AFFINITY PREDICTED BY RF-SCORE:    0.00 PKD
ROOT
HETATM    1  C   UNL     1      -8.651  11.744  67.990  1.00  0.00    -0.158 C  
HETATM    2  C   UNL     1      -8.884  13.215  68.180  1.00  0.00    -0.194 C  
HETATM    3  O   UNL     1      -8.024  14.076  68.102  1.00  0.00    -0.128 OA 
ENDROOT
BRANCH   2   4
HETATM    4  O   UNL     1     -10.205  13.433  68.386  1.00  0.00    -0.243 OA 
BRANCH   4   5
HETATM    5  C   UNL     1     -10.894  14.334  67.495  1.00  0.00    -0.280 C  
BRANCH   5   6
HETATM    6  C   UNL     1     -11.998  13.570  66.718  1.00  0.00    -0.404 C  
BRANCH   6   7
HETATM    7  N   UNL     1     -11.814  13.536  65.162  1.00  0.00    -0.328 N  
HETATM    8  C   UNL     1     -12.320  14.804  64.513  1.00  0.00    -0.366 C  
HETATM    9  C   UNL     1     -12.617  12.343  64.653  1.00  0.00    -0.375 C  
HETATM   10  C   UNL     1     -10.352  13.301  64.804  1.00  0.00    -0.363 C  
ENDBRANCH   6   7
ENDBRANCH   5   6
BRANCH   5  11
HETATM   11  C   UNL     1     -11.489  15.506  68.271  1.00  0.00    -0.359 C  
HETATM   12  C   UNL     1     -10.613  16.753  68.188  1.00  0.00    -0.350 C  
HETATM   13  O   UNL     1      -9.996  16.915  67.100  1.00  0.00    -0.261 OA 
HETATM   14  O   UNL     1     -10.527  17.399  69.264  1.00  0.00    -0.341 OA 
ENDBRANCH   5  11
ENDBRANCH   4   5
ENDBRANCH   2   4
TORSDOF 5
ENDMDL
MODEL       80
REMARK 921   NORMALIZED FREE ENERGY PREDICTED BY IDOCK:   -3.17 KCAL/MOL
REMARK 922        TOTAL FREE ENERGY PREDICTED BY IDOCK:   -4.70 KCAL/MOL
REMARK 923 INTER-LIGAND FREE ENERGY PREDICTED BY IDOCK:   -4.11 KCAL/MOL
REMARK 924 INTRA-LIGAND FREE ENERGY PREDICTED BY IDOCK:   -0.59 KCAL/MOL
REMARK 927      BINDING AFFINITY PREDICTED BY RF-SCORE:    0.00 PKD
ROOT
HETATM    1  C   UNL     1      -9.353  17.973  68.480  1.00  0.00    -0.312 C  
HETATM    2  C   UNL     1      -9.763  16.574  68.839  1.00  0.00    -0.257 C  
HETATM    3  O   UNL     1      -9.066  15.772  69.437  1.00  0.00    -0.253 OA 
ENDROOT
BRANCH   2   4
HETATM    4  O   UNL     1     -11.044  16.373  68.449  1.00  0.00    -0.343 OA 
BRANCH   4   5
HETATM    5  C   UNL     1     -11.684  15.137  68.827  1.00  0.00    -0.342 C  
BRANCH   5   6
HETATM    6  C   UNL     1     -12.999  15.433  69.593  1.00  0.00     0.376 C  
BRANCH   6   7
HETATM    7  N   UNL     1     -12.983  15.053  71.114  1.00  0.00    -0.359 N  
HETATM    8  C   UNL     1     -12.010  15.908  71.892  1.00  0.00    -0.504 C  
HETATM    9  C   UNL     1     -12.560  13.590  71.195  1.00  0.00    -0.355 C  
HETATM   10  C   UNL     1     -14.383  15.167  71.705  1.00  0.00    -0.585 C  
ENDBRANCH   6   7
ENDBRANCH   5   6
BRANCH   5  11
HETATM   11  C   UNL     1     -11.957  14.276  67.595  1.00  0.00    -0.400 C  
HETATM   12  C   UNL     1     -10.850  13.252  67.355  1.00  0.00    -0.267 C  
HETATM   13  O   UNL     1     -10.304  12.786  68.391  1.00  0.00    -0.236 OA 
HETATM   14  O   UNL     1     -10.544  13.095  66.145  1.00  0.00    -0.273 OA 
ENDBRANCH   5  11
ENDBRANCH   4   5
ENDBRANCH   2   4
TORSDOF 5
ENDMDL
MODEL       81
REMARK 921   NORMALIZED FREE ENERGY PREDICTED BY IDOCK:   -3.15 KCAL/MOL
REMARK 922        TOTAL FREE ENERGY PREDICTED BY IDOCK:   -4.68 KCAL/MOL
REMARK 923 INTER-LIGAND FREE ENERGY PREDICTED BY IDOCK:   -3.99 KCAL/MOL
REMARK 924 INTRA-LIGAND FREE ENERGY PREDICTED BY IDOCK:   -0.70 KCAL/MOL
REMARK 927      BINDING AFFINITY PREDICTED BY RF-SCORE:    0.00 PKD
ROOT
HETATM    1  C   UNL     1     -10.647  15.973  65.311  1.00  0.00    -0.424 C  
HETATM    2  C   UNL     1      -9.251  15.853  65.850  1.00  0.00    -0.297 C  
HETATM    3  O   UNL     1      -8.788  14.857  66.378  1.00  0.00    -0.255 OA 
ENDROOT
BRANCH   2   4
HETATM    4  O   UNL     1      -8.578  17.001  65.600  1.00  0.00    -0.456 OA 
BRANCH   4   5
HETATM    5  C   UNL     1      -8.293  17.879  66.709  1.00  0.00    -0.252 C  
BRANCH   5   6
HETATM    6  C   UNL     1      -6.771  17.881  67.007  1.00  0.00    -0.176 C  
BRANCH   6   7
HETATM    7  N   UNL     1      -6.337  17.035  68.254  1.00  0.00    -0.141 N  
HETATM    8  C   UNL     1      -5.836  15.667  67.851  1.00  0.00    -0.139 C  
HETATM    9  C   UNL     1      -7.571  16.891  69.137  1.00  0.00    -0.157 C  
HETATM   10  C   UNL     1      -5.274  17.778  69.054  1.00  0.00    -0.176 C  
ENDBRANCH   6   7
ENDBRANCH   5   6
BRANCH   5  11
HETATM   11  C   UNL     1      -8.789  19.293  66.414  1.00  0.00    -0.365 C  
HETATM   12  C   UNL     1     -10.278  19.453  66.713  1.00  0.00    -0.420 C  
HETATM   13  O   UNL     1     -10.714  18.778  67.685  1.00  0.00    -0.429 OA 
HETATM   14  O   UNL     1     -10.903  20.148  65.873  1.00  0.00    -0.301 OA 
ENDBRANCH   5  11
ENDBRANCH   4   5
ENDBRANCH   2   4
TORSDOF 5
ENDMDL
MODEL       82
REMARK 921   NORMALIZED FREE ENERGY PREDICTED BY IDOCK:   -3.15 KCAL/MOL
REMARK 922        TOTAL FREE ENERGY PREDICTED BY IDOCK:   -4.67 KCAL/MOL
REMARK 923 INTER-LIGAND FREE ENERGY PREDICTED BY IDOCK:   -4.11 KCAL/MOL
REMARK 924 INTRA-LIGAND FREE ENERGY PREDICTED BY IDOCK:   -0.57 KCAL/MOL
REMARK 927      BINDING AFFINITY PREDICTED BY RF-SCORE:    0.00 PKD
ROOT
HETATM    1  C   UNL     1      -7.500  13.832  67.692  1.00  0.00    -0.187 C  
HETATM    2  C   UNL     1      -7.862  15.223  67.256  1.00  0.00    -0.209 C  
HETATM    3  O   UNL     1      -7.295  15.850  66.377  1.00  0.00    -0.076 OA 
ENDROOT
BRANCH   2   4
HETATM    4  O   UNL     1      -8.950  15.636  67.948  1.00  0.00    -0.178 OA 
BRANCH   4   5
HETATM    5  C   UNL     1     -10.119  16.034  67.203  1.00  0.00    -0.270 C  
BRANCH   5   6
HETATM    6  C   UNL     1     -11.164  14.888  67.206  1.00  0.00    -0.345 C  
BRANCH   6   7
HETATM    7  N   UNL     1     -11.244  14.057  65.879  1.00  0.00    -0.305 N  
HETATM    8  C   UNL     1     -12.667  13.664  65.552  1.00  0.00    -0.466 C  
HETATM    9  C   UNL     1     -10.403  12.804  66.096  1.00  0.00    -0.269 C  
HETATM   10  C   UNL     1     -10.628  14.838  64.725  1.00  0.00    -0.328 C  
ENDBRANCH   6   7
ENDBRANCH   5   6
BRANCH   5  11
HETATM   11  C   UNL     1     -10.716  17.313  67.785  1.00  0.00    -0.333 C  
HETATM   12  C   UNL     1      -9.948  18.557  67.344  1.00  0.00    -0.330 C  
HETATM   13  O   UNL     1      -9.460  18.513  66.183  1.00  0.00    -0.453 OA 
HETATM   14  O   UNL     1      -9.799  19.420  68.246  1.00  0.00    -0.356 OA 
ENDBRANCH   5  11
ENDBRANCH   4   5
ENDBRANCH   2   4
TORSDOF 5
ENDMDL
MODEL       83
REMARK 921   NORMALIZED FREE ENERGY PREDICTED BY IDOCK:   -3.13 KCAL/MOL
REMARK 922        TOTAL FREE ENERGY PREDICTED BY IDOCK:   -4.65 KCAL/MOL
REMARK 923 INTER-LIGAND FREE ENERGY PREDICTED BY IDOCK:   -4.24 KCAL/MOL
REMARK 924 INTRA-LIGAND FREE ENERGY PREDICTED BY IDOCK:   -0.41 KCAL/MOL
REMARK 927      BINDING AFFINITY PREDICTED BY RF-SCORE:    0.00 PKD
ROOT
HETATM    1  C   UNL     1     -10.536  18.590  66.533  1.00  0.00    -0.435 C  
HETATM    2  C   UNL     1     -10.087  17.682  67.642  1.00  0.00    -0.339 C  
HETATM    3  O   UNL     1      -9.104  17.863  68.340  1.00  0.00    -0.277 OA 
ENDROOT
BRANCH   2   4
HETATM    4  O   UNL     1     -10.979  16.673  67.779  1.00  0.00    -0.320 OA 
BRANCH   4   5
HETATM    5  C   UNL     1     -10.537  15.330  67.493  1.00  0.00    -0.273 C  
BRANCH   5   6
HETATM    6  C   UNL     1      -9.758  14.759  68.706  1.00  0.00    -0.222 C  
BRANCH   6   7
HETATM    7  N   UNL     1      -8.320  14.226  68.382  1.00  0.00    -0.159 N  
HETATM    8  C   UNL     1      -7.771  14.840  67.114  1.00  0.00    -0.116 C  
HETATM    9  C   UNL     1      -8.441  12.716  68.211  1.00  0.00    -0.163 C  
HETATM   10  C   UNL     1      -7.380  14.489  69.552  1.00  0.00    -0.063 C  
ENDBRANCH   6   7
ENDBRANCH   5   6
BRANCH   5  11
HETATM   11  C   UNL     1     -11.726  14.437  67.144  1.00  0.00    -0.424 C  
HETATM   12  C   UNL     1     -11.789  14.124  65.651  1.00  0.00    -0.375 C  
HETATM   13  O   UNL     1     -10.675  14.015  65.070  1.00  0.00    -0.347 OA 
HETATM   14  O   UNL     1     -12.950  14.133  65.168  1.00  0.00    -0.729 OA 
ENDBRANCH   5  11
ENDBRANCH   4   5
ENDBRANCH   2   4
TORSDOF 5
ENDMDL
MODEL       84
REMARK 921   NORMALIZED FREE ENERGY PREDICTED BY IDOCK:   -3.12 KCAL/MOL
REMARK 922        TOTAL FREE ENERGY PREDICTED BY IDOCK:   -4.64 KCAL/MOL
REMARK 923 INTER-LIGAND FREE ENERGY PREDICTED BY IDOCK:   -4.15 KCAL/MOL
REMARK 924 INTRA-LIGAND FREE ENERGY PREDICTED BY IDOCK:   -0.49 KCAL/MOL
REMARK 927      BINDING AFFINITY PREDICTED BY RF-SCORE:    0.00 PKD
ROOT
HETATM    1  C   UNL     1     -12.567  11.255  71.013  1.00  0.00    -0.495 C  
HETATM    2  C   UNL     1     -11.842  10.809  69.776  1.00  0.00    -0.335 C  
HETATM    3  O   UNL     1     -12.215  11.013  68.634  1.00  0.00    -0.571 OA 
ENDROOT
BRANCH   2   4
HETATM    4  O   UNL     1     -10.684  10.204  70.134  1.00  0.00    -0.273 OA 
BRANCH   4   5
HETATM    5  C   UNL     1     -10.554   8.788  69.894  1.00  0.00    -0.224 C  
BRANCH   5   6
HETATM    6  C   UNL     1      -9.120   8.462  69.402  1.00  0.00    -0.154 C  
BRANCH   6   7
HETATM    7  N   UNL     1      -9.020   7.980  67.914  1.00  0.00    -0.130 N  
HETATM    8  C   UNL     1      -8.593   6.533  67.824  1.00  0.00    -0.117 C  
HETATM    9  C   UNL     1      -7.980   8.866  67.236  1.00  0.00    -0.097 C  
HETATM   10  C   UNL     1     -10.349   8.189  67.198  1.00  0.00    -0.321 C  
ENDBRANCH   6   7
ENDBRANCH   5   6
BRANCH   5  11
HETATM   11  C   UNL     1     -10.885   7.998  71.159  1.00  0.00    -0.267 C  
HETATM   12  C   UNL     1     -11.815   6.822  70.873  1.00  0.00    -0.385 C  
HETATM   13  O   UNL     1     -11.658   6.261  69.755  1.00  0.00    -0.436 OA 
HETATM   14  O   UNL     1     -12.702   6.639  71.745  1.00  0.00    -0.350 OA 
ENDBRANCH   5  11
ENDBRANCH   4   5
ENDBRANCH   2   4
TORSDOF 5
ENDMDL
MODEL       85
REMARK 921   NORMALIZED FREE ENERGY PREDICTED BY IDOCK:   -3.10 KCAL/MOL
REMARK 922        TOTAL FREE ENERGY PREDICTED BY IDOCK:   -4.61 KCAL/MOL
REMARK 923 INTER-LIGAND FREE ENERGY PREDICTED BY IDOCK:   -4.12 KCAL/MOL
REMARK 924 INTRA-LIGAND FREE ENERGY PREDICTED BY IDOCK:   -0.50 KCAL/MOL
REMARK 927      BINDING AFFINITY PREDICTED BY RF-SCORE:    0.00 PKD
ROOT
HETATM    1  C   UNL     1     -10.433  15.697  66.353  1.00  0.00    -0.309 C  
HETATM    2  C   UNL     1     -10.829  15.388  67.768  1.00  0.00    -0.302 C  
HETATM    3  O   UNL     1     -10.679  16.140  68.717  1.00  0.00    -0.259 OA 
ENDROOT
BRANCH   2   4
HETATM    4  O   UNL     1     -11.432  14.176  67.806  1.00  0.00    -0.290 OA 
BRANCH   4   5
HETATM    5  C   UNL     1     -10.843  13.099  67.049  1.00  0.00    -0.264 C  
BRANCH   5   6
HETATM    6  C   UNL     1     -10.143  12.099  68.006  1.00  0.00    -0.204 C  
BRANCH   6   7
HETATM    7  N   UNL     1      -8.658  11.755  67.639  1.00  0.00    -0.146 N  
HETATM    8  C   UNL     1      -8.573  10.930  66.375  1.00  0.00    -0.160 C  
HETATM    9  C   UNL     1      -8.090  10.961  68.810  1.00  0.00    -0.145 C  
HETATM   10  C   UNL     1      -7.837  13.031  67.498  1.00  0.00    -0.178 C  
ENDBRANCH   6   7
ENDBRANCH   5   6
BRANCH   5  11
HETATM   11  C   UNL     1     -11.904  12.392  66.208  1.00  0.00    -0.431 C  
HETATM   12  C   UNL     1     -11.810  12.768  64.732  1.00  0.00    -0.374 C  
HETATM   13  O   UNL     1     -10.646  12.987  64.297  1.00  0.00    -0.381 OA 
HETATM   14  O   UNL     1     -12.921  12.929  64.166  1.00  0.00    -0.673 OA 
ENDBRANCH   5  11
ENDBRANCH   4   5
ENDBRANCH   2   4
TORSDOF 5
ENDMDL
MODEL       86
REMARK 921   NORMALIZED FREE ENERGY PREDICTED BY IDOCK:   -3.10 KCAL/MOL
REMARK 922        TOTAL FREE ENERGY PREDICTED BY IDOCK:   -4.61 KCAL/MOL
REMARK 923 INTER-LIGAND FREE ENERGY PREDICTED BY IDOCK:   -4.52 KCAL/MOL
REMARK 924 INTRA-LIGAND FREE ENERGY PREDICTED BY IDOCK:   -0.09 KCAL/MOL
REMARK 927      BINDING AFFINITY PREDICTED BY RF-SCORE:    0.00 PKD
ROOT
HETATM    1  C   UNL     1     -11.189  16.354  68.598  1.00  0.00    -0.332 C  
HETATM    2  C   UNL     1     -10.682  15.782  67.305  1.00  0.00    -0.313 C  
HETATM    3  O   UNL     1      -9.587  16.012  66.820  1.00  0.00    -0.218 OA 
ENDROOT
BRANCH   2   4
HETATM    4  O   UNL     1     -11.605  14.927  66.805  1.00  0.00    -0.344 OA 
BRANCH   4   5
HETATM    5  C   UNL     1     -11.323  13.513  66.860  1.00  0.00    -0.326 C  
BRANCH   5   6
HETATM    6  C   UNL     1     -10.309  13.131  65.751  1.00  0.00    -0.289 C  
BRANCH   6   7
HETATM    7  N   UNL     1     -10.804  12.036  64.744  1.00  0.00    -0.295 N  
HETATM    8  C   UNL     1     -10.168  12.202  63.383  1.00  0.00    -0.388 C  
HETATM    9  C   UNL     1     -12.316  12.201  64.628  1.00  0.00    -0.272 C  
HETATM   10  C   UNL     1     -10.527  10.643  65.295  1.00  0.00    -0.194 C  
ENDBRANCH   6   7
ENDBRANCH   5   6
BRANCH   5  11
HETATM   11  C   UNL     1     -10.791  13.125  68.238  1.00  0.00    -0.274 C  
HETATM   12  C   UNL     1     -11.691  12.107  68.934  1.00  0.00    -0.327 C  
HETATM   13  O   UNL     1     -12.260  11.275  68.178  1.00  0.00    -0.622 OA 
HETATM   14  O   UNL     1     -11.841  12.307  70.167  1.00  0.00    -0.328 OA 
ENDBRANCH   5  11
ENDBRANCH   4   5
ENDBRANCH   2   4
TORSDOF 5
ENDMDL
MODEL       87
REMARK 921   NORMALIZED FREE ENERGY PREDICTED BY IDOCK:   -3.09 KCAL/MOL
REMARK 922        TOTAL FREE ENERGY PREDICTED BY IDOCK:   -4.60 KCAL/MOL
REMARK 923 INTER-LIGAND FREE ENERGY PREDICTED BY IDOCK:   -4.12 KCAL/MOL
REMARK 924 INTRA-LIGAND FREE ENERGY PREDICTED BY IDOCK:   -0.48 KCAL/MOL
REMARK 927      BINDING AFFINITY PREDICTED BY RF-SCORE:    0.00 PKD
ROOT
HETATM    1  C   UNL     1      -7.610   8.648  70.526  1.00  0.00    -0.077 C  
HETATM    2  C   UNL     1      -8.867   9.028  69.798  1.00  0.00    -0.153 C  
HETATM    3  O   UNL     1      -9.144   8.693  68.659  1.00  0.00    -0.138 OA 
ENDROOT
BRANCH   2   4
HETATM    4  O   UNL     1      -9.662   9.743  70.629  1.00  0.00    -0.228 OA 
BRANCH   4   5
HETATM    5  C   UNL     1     -11.048   9.359  70.740  1.00  0.00    -0.300 C  
BRANCH   5   6
HETATM    6  C   UNL     1     -11.212   8.272  71.834  1.00  0.00    -0.300 C  
BRANCH   6   7
HETATM    7  N   UNL     1     -11.993   6.988  71.385  1.00  0.00    -0.319 N  
HETATM    8  C   UNL     1     -13.483   7.233  71.334  1.00  0.00    -0.321 C  
HETATM    9  C   UNL     1     -11.684   5.907  72.415  1.00  0.00    -0.253 C  
HETATM   10  C   UNL     1     -11.485   6.504  70.033  1.00  0.00    -0.412 C  
ENDBRANCH   6   7
ENDBRANCH   5   6
BRANCH   5  11
HETATM   11  C   UNL     1     -11.918  10.575  71.051  1.00  0.00    -0.466 C  
HETATM   12  C   UNL     1     -12.000  11.538  69.869  1.00  0.00    -0.351 C  
HETATM   13  O   UNL     1     -11.979  11.004  68.728  1.00  0.00    -0.457 OA 
HETATM   14  O   UNL     1     -11.958  12.754  70.188  1.00  0.00    -0.342 OA 
ENDBRANCH   5  11
ENDBRANCH   4   5
ENDBRANCH   2   4
TORSDOF 5
ENDMDL
MODEL       88
REMARK 921   NORMALIZED FREE ENERGY PREDICTED BY IDOCK:   -3.09 KCAL/MOL
REMARK 922        TOTAL FREE ENERGY PREDICTED BY IDOCK:   -4.60 KCAL/MOL
REMARK 923 INTER-LIGAND FREE ENERGY PREDICTED BY IDOCK:   -4.01 KCAL/MOL
REMARK 924 INTRA-LIGAND FREE ENERGY PREDICTED BY IDOCK:   -0.58 KCAL/MOL
REMARK 927      BINDING AFFINITY PREDICTED BY RF-SCORE:    0.00 PKD
ROOT
HETATM    1  C   UNL     1     -10.329  10.240  69.556  1.00  0.00    -0.267 C  
HETATM    2  C   UNL     1     -11.034  11.202  68.643  1.00  0.00    -0.220 C  
HETATM    3  O   UNL     1     -12.223  11.169  68.376  1.00  0.00    -0.610 OA 
ENDROOT
BRANCH   2   4
HETATM    4  O   UNL     1     -10.154  12.141  68.222  1.00  0.00    -0.201 OA 
BRANCH   4   5
HETATM    5  C   UNL     1      -9.819  12.178  66.819  1.00  0.00    -0.206 C  
BRANCH   5   6
HETATM    6  C   UNL     1      -9.877  13.638  66.298  1.00  0.00    -0.301 C  
BRANCH   6   7
HETATM    7  N   UNL     1     -11.038  13.938  65.288  1.00  0.00    -0.308 N  
HETATM    8  C   UNL     1     -12.394  13.725  65.919  1.00  0.00    -0.476 C  
HETATM    9  C   UNL     1     -10.859  12.978  64.117  1.00  0.00    -0.405 C  
HETATM   10  C   UNL     1     -10.918  15.359  64.750  1.00  0.00    -0.393 C  
ENDBRANCH   6   7
ENDBRANCH   5   6
BRANCH   5  11
HETATM   11  C   UNL     1      -8.437  11.572  66.582  1.00  0.00    -0.172 C  
HETATM   12  C   UNL     1      -8.519  10.113  66.140  1.00  0.00    -0.130 C  
HETATM   13  O   UNL     1      -9.513   9.815  65.425  1.00  0.00    -0.230 OA 
HETATM   14  O   UNL     1      -7.643   9.369  66.649  1.00  0.00    -0.093 OA 
ENDBRANCH   5  11
ENDBRANCH   4   5
ENDBRANCH   2   4
TORSDOF 5
ENDMDL
MODEL       89
REMARK 921   NORMALIZED FREE ENERGY PREDICTED BY IDOCK:   -3.07 KCAL/MOL
REMARK 922        TOTAL FREE ENERGY PREDICTED BY IDOCK:   -4.58 KCAL/MOL
REMARK 923 INTER-LIGAND FREE ENERGY PREDICTED BY IDOCK:   -3.94 KCAL/MOL
REMARK 924 INTRA-LIGAND FREE ENERGY PREDICTED BY IDOCK:   -0.64 KCAL/MOL
REMARK 927      BINDING AFFINITY PREDICTED BY RF-SCORE:    0.00 PKD
ROOT
HETATM    1  C   UNL     1     -10.164   5.153  70.268  1.00  0.00    -0.342 C  
HETATM    2  C   UNL     1     -11.024   6.086  69.465  1.00  0.00    -0.397 C  
HETATM    3  O   UNL     1     -11.063   6.129  68.248  1.00  0.00    -0.333 OA 
ENDROOT
BRANCH   2   4
HETATM    4  O   UNL     1     -11.789   6.821  70.308  1.00  0.00    -0.364 OA 
BRANCH   4   5
HETATM    5  C   UNL     1     -11.184   7.956  70.960  1.00  0.00    -0.269 C  
BRANCH   5   6
HETATM    6  C   UNL     1     -11.724   9.273  70.343  1.00  0.00    -0.114 C  
BRANCH   6   7
HETATM    7  N   UNL     1     -10.704  10.053  69.444  1.00  0.00    -0.220 N  
HETATM    8  C   UNL     1      -9.279   9.835  69.898  1.00  0.00    -0.234 C  
HETATM    9  C   UNL     1     -11.060  11.532  69.561  1.00  0.00    -0.191 C  
HETATM   10  C   UNL     1     -10.866   9.649  67.983  1.00  0.00    -0.196 C  
ENDBRANCH   6   7
ENDBRANCH   5   6
BRANCH   5  11
HETATM   11  C   UNL     1     -11.449   7.914  72.464  1.00  0.00    -0.455 C  
HETATM   12  C   UNL     1     -10.241   7.403  73.245  1.00  0.00    -0.335 C  
HETATM   13  O   UNL     1      -9.114   7.713  72.771  1.00  0.00    -0.139 OA 
HETATM   14  O   UNL     1     -10.528   6.635  74.197  1.00  0.00    -0.353 OA 
ENDBRANCH   5  11
ENDBRANCH   4   5
ENDBRANCH   2   4
TORSDOF 5
ENDMDL
MODEL       90
REMARK 921   NORMALIZED FREE ENERGY PREDICTED BY IDOCK:   -3.07 KCAL/MOL
REMARK 922        TOTAL FREE ENERGY PREDICTED BY IDOCK:   -4.57 KCAL/MOL
REMARK 923 INTER-LIGAND FREE ENERGY PREDICTED BY IDOCK:   -3.92 KCAL/MOL
REMARK 924 INTRA-LIGAND FREE ENERGY PREDICTED BY IDOCK:   -0.65 KCAL/MOL
REMARK 927      BINDING AFFINITY PREDICTED BY RF-SCORE:    0.00 PKD
ROOT
HETATM    1  C   UNL     1      -8.822   9.557  67.058  1.00  0.00    -0.139 C  
HETATM    2  C   UNL     1     -10.109   9.975  66.406  1.00  0.00    -0.241 C  
HETATM    3  O   UNL     1     -10.261  10.157  65.210  1.00  0.00    -0.304 OA 
ENDROOT
BRANCH   2   4
HETATM    4  O   UNL     1     -11.079  10.054  67.348  1.00  0.00    -0.257 OA 
BRANCH   4   5
HETATM    5  C   UNL     1     -11.079  11.195  68.230  1.00  0.00    -0.251 C  
BRANCH   5   6
HETATM    6  C   UNL     1     -11.687  12.425  67.507  1.00  0.00    -0.357 C  
BRANCH   6   7
HETATM    7  N   UNL     1     -10.704  13.629  67.301  1.00  0.00    -0.277 N  
HETATM    8  C   UNL     1     -11.288  14.920  67.826  1.00  0.00    -0.329 C  
HETATM    9  C   UNL     1     -10.464  13.746  65.800  1.00  0.00    -0.299 C  
HETATM   10  C   UNL     1      -9.364  13.340  67.967  1.00  0.00    -0.218 C  
ENDBRANCH   6   7
ENDBRANCH   5   6
BRANCH   5  11
HETATM   11  C   UNL     1     -11.852  10.882  69.510  1.00  0.00    -0.404 C  
HETATM   12  C   UNL     1     -11.125   9.865  70.385  1.00  0.00    -0.319 C  
HETATM   13  O   UNL     1      -9.865   9.925  70.360  1.00  0.00    -0.246 OA 
HETATM   14  O   UNL     1     -11.878   9.016  70.927  1.00  0.00    -0.282 OA 
ENDBRANCH   5  11
ENDBRANCH   4   5
ENDBRANCH   2   4
TORSDOF 5
ENDMDL
MODEL       91
REMARK 921   NORMALIZED FREE ENERGY PREDICTED BY IDOCK:   -3.06 KCAL/MOL
REMARK 922        TOTAL FREE ENERGY PREDICTED BY IDOCK:   -4.56 KCAL/MOL
REMARK 923 INTER-LIGAND FREE ENERGY PREDICTED BY IDOCK:   -4.13 KCAL/MOL
REMARK 924 INTRA-LIGAND FREE ENERGY PREDICTED BY IDOCK:   -0.43 KCAL/MOL
REMARK 927      BINDING AFFINITY PREDICTED BY RF-SCORE:    0.00 PKD
ROOT
HETATM    1  C   UNL     1      -9.978  18.446  67.711  1.00  0.00    -0.365 C  
HETATM    2  C   UNL     1     -10.572  17.077  67.882  1.00  0.00    -0.365 C  
HETATM    3  O   UNL     1     -10.997  16.625  68.932  1.00  0.00    -0.320 OA 
ENDROOT
BRANCH   2   4
HETATM    4  O   UNL     1     -10.616  16.458  66.679  1.00  0.00    -0.302 OA 
BRANCH   4   5
HETATM    5  C   UNL     1      -9.892  15.220  66.523  1.00  0.00    -0.266 C  
BRANCH   5   6
HETATM    6  C   UNL     1     -10.301  14.529  65.196  1.00  0.00    -0.411 C  
BRANCH   6   7
HETATM    7  N   UNL     1     -11.385  13.405  65.338  1.00  0.00    -0.290 N  
HETATM    8  C   UNL     1     -11.121  12.525  66.539  1.00  0.00    -0.287 C  
HETATM    9  C   UNL     1     -11.317  12.569  64.064  1.00  0.00    -0.405 C  
HETATM   10  C   UNL     1     -12.778  14.017  65.421  1.00  0.00    -0.471 C  
ENDBRANCH   6   7
ENDBRANCH   5   6
BRANCH   5  11
HETATM   11  C   UNL     1      -8.386  15.472  66.561  1.00  0.00    -0.234 C  
HETATM   12  C   UNL     1      -7.735  14.863  67.800  1.00  0.00    -0.161 C  
HETATM   13  O   UNL     1      -8.245  13.786  68.212  1.00  0.00    -0.143 OA 
HETATM   14  O   UNL     1      -6.845  15.581  68.323  1.00  0.00    -0.107 OA 
ENDBRANCH   5  11
ENDBRANCH   4   5
ENDBRANCH   2   4
TORSDOF 5
ENDMDL
MODEL       92
REMARK 921   NORMALIZED FREE ENERGY PREDICTED BY IDOCK:   -3.05 KCAL/MOL
REMARK 922        TOTAL FREE ENERGY PREDICTED BY IDOCK:   -4.55 KCAL/MOL
REMARK 923 INTER-LIGAND FREE ENERGY PREDICTED BY IDOCK:   -3.96 KCAL/MOL
REMARK 924 INTRA-LIGAND FREE ENERGY PREDICTED BY IDOCK:   -0.59 KCAL/MOL
REMARK 927      BINDING AFFINITY PREDICTED BY RF-SCORE:    0.00 PKD
ROOT
HETATM    1  C   UNL     1     -12.876  11.426  71.594  1.00  0.00    -0.497 C  
HETATM    2  C   UNL     1     -12.699   9.936  71.541  1.00  0.00    -0.415 C  
HETATM    3  O   UNL     1     -13.589   9.133  71.317  1.00  0.00    -0.324 OA 
ENDROOT
BRANCH   2   4
HETATM    4  O   UNL     1     -11.390   9.637  71.717  1.00  0.00    -0.347 OA 
BRANCH   4   5
HETATM    5  C   UNL     1     -10.722   8.875  70.690  1.00  0.00    -0.234 C  
BRANCH   5   6
HETATM    6  C   UNL     1      -9.574   9.712  70.069  1.00  0.00    -0.243 C  
BRANCH   6   7
HETATM    7  N   UNL     1      -9.848  10.243  68.620  1.00  0.00    -0.166 N  
HETATM    8  C   UNL     1     -10.801  11.416  68.627  1.00  0.00    -0.208 C  
HETATM    9  C   UNL     1     -10.461   9.087  67.838  1.00  0.00    -0.234 C  
HETATM   10  C   UNL     1      -8.539  10.625  67.939  1.00  0.00    -0.124 C  
ENDBRANCH   6   7
ENDBRANCH   5   6
BRANCH   5  11
HETATM   11  C   UNL     1     -10.189   7.562  71.260  1.00  0.00    -0.198 C  
HETATM   12  C   UNL     1     -11.139   6.396  71.000  1.00  0.00    -0.294 C  
HETATM   13  O   UNL     1     -11.778   6.444  69.914  1.00  0.00    -0.426 OA 
HETATM   14  O   UNL     1     -11.250   5.594  71.963  1.00  0.00    -0.257 OA 
ENDBRANCH   5  11
ENDBRANCH   4   5
ENDBRANCH   2   4
TORSDOF 5
ENDMDL
MODEL       93
REMARK 921   NORMALIZED FREE ENERGY PREDICTED BY IDOCK:   -3.04 KCAL/MOL
REMARK 922        TOTAL FREE ENERGY PREDICTED BY IDOCK:   -4.54 KCAL/MOL
REMARK 923 INTER-LIGAND FREE ENERGY PREDICTED BY IDOCK:   -3.90 KCAL/MOL
REMARK 924 INTRA-LIGAND FREE ENERGY PREDICTED BY IDOCK:   -0.63 KCAL/MOL
REMARK 927      BINDING AFFINITY PREDICTED BY RF-SCORE:    0.00 PKD
ROOT
HETATM    1  C   UNL     1     -12.167  12.849  70.490  1.00  0.00    -0.395 C  
HETATM    2  C   UNL     1     -12.501  14.161  69.841  1.00  0.00    -0.260 C  
HETATM    3  O   UNL     1     -12.784  15.186  70.438  1.00  0.00    -0.357 OA 
ENDROOT
BRANCH   2   4
HETATM    4  O   UNL     1     -12.375  14.036  68.498  1.00  0.00    -0.265 OA 
BRANCH   4   5
HETATM    5  C   UNL     1     -11.070  14.238  67.916  1.00  0.00    -0.278 C  
BRANCH   5   6
HETATM    6  C   UNL     1     -10.876  13.285  66.708  1.00  0.00    -0.281 C  
BRANCH   6   7
HETATM    7  N   UNL     1     -10.101  11.959  67.024  1.00  0.00    -0.204 N  
HETATM    8  C   UNL     1      -9.330  11.465  65.822  1.00  0.00    -0.228 C  
HETATM    9  C   UNL     1     -11.149  10.925  67.422  1.00  0.00    -0.307 C  
HETATM   10  C   UNL     1      -9.168  12.159  68.211  1.00  0.00    -0.192 C  
ENDBRANCH   6   7
ENDBRANCH   5   6
BRANCH   5  11
HETATM   11  C   UNL     1     -10.891  15.694  67.492  1.00  0.00    -0.316 C  
HETATM   12  C   UNL     1     -10.054  16.484  68.494  1.00  0.00    -0.255 C  
HETATM   13  O   UNL     1      -9.138  15.836  69.070  1.00  0.00    -0.210 OA 
HETATM   14  O   UNL     1     -10.465  17.654  68.704  1.00  0.00    -0.356 OA 
ENDBRANCH   5  11
ENDBRANCH   4   5
ENDBRANCH   2   4
TORSDOF 5
ENDMDL
MODEL       94
REMARK 921   NORMALIZED FREE ENERGY PREDICTED BY IDOCK:   -3.02 KCAL/MOL
REMARK 922        TOTAL FREE ENERGY PREDICTED BY IDOCK:   -4.51 KCAL/MOL
REMARK 923 INTER-LIGAND FREE ENERGY PREDICTED BY IDOCK:   -4.44 KCAL/MOL
REMARK 924 INTRA-LIGAND FREE ENERGY PREDICTED BY IDOCK:   -0.07 KCAL/MOL
REMARK 927      BINDING AFFINITY PREDICTED BY RF-SCORE:    0.00 PKD
ROOT
HETATM    1  C   UNL     1     -12.490  12.166  70.935  1.00  0.00    -0.374 C  
HETATM    2  C   UNL     1     -11.820  11.038  70.204  1.00  0.00    -0.357 C  
HETATM    3  O   UNL     1     -11.033  10.251  70.703  1.00  0.00    -0.308 OA 
ENDROOT
BRANCH   2   4
HETATM    4  O   UNL     1     -12.278  10.999  68.931  1.00  0.00    -0.519 OA 
BRANCH   4   5
HETATM    5  C   UNL     1     -11.377  11.384  67.872  1.00  0.00    -0.303 C  
BRANCH   5   6
HETATM    6  C   UNL     1     -10.803  12.798  68.151  1.00  0.00    -0.228 C  
BRANCH   6   7
HETATM    7  N   UNL     1     -11.161  13.885  67.080  1.00  0.00    -0.304 N  
HETATM    8  C   UNL     1     -12.277  13.425  66.171  1.00  0.00    -0.415 C  
HETATM    9  C   UNL     1      -9.897  14.126  66.261  1.00  0.00    -0.306 C  
HETATM   10  C   UNL     1     -11.534  15.197  67.759  1.00  0.00    -0.318 C  
ENDBRANCH   6   7
ENDBRANCH   5   6
BRANCH   5  11
HETATM   11  C   UNL     1     -10.252  10.362  67.727  1.00  0.00    -0.229 C  
HETATM   12  C   UNL     1     -10.135   9.836  66.299  1.00  0.00    -0.243 C  
HETATM   13  O   UNL     1     -10.410  10.663  65.388  1.00  0.00    -0.272 OA 
HETATM   14  O   UNL     1      -9.896   8.604  66.219  1.00  0.00    -0.267 OA 
ENDBRANCH   5  11
ENDBRANCH   4   5
ENDBRANCH   2   4
TORSDOF 5
ENDMDL
MODEL       95
REMARK 921   NORMALIZED FREE ENERGY PREDICTED BY IDOCK:   -3.01 KCAL/MOL
REMARK 922        TOTAL FREE ENERGY PREDICTED BY IDOCK:   -4.49 KCAL/MOL
REMARK 923 INTER-LIGAND FREE ENERGY PREDICTED BY IDOCK:   -4.01 KCAL/MOL
REMARK 924 INTRA-LIGAND FREE ENERGY PREDICTED BY IDOCK:   -0.48 KCAL/MOL
REMARK 927      BINDING AFFINITY PREDICTED BY RF-SCORE:    0.00 PKD
ROOT
HETATM    1  C   UNL     1      -9.706  11.342  67.463  1.00  0.00    -0.192 C  
HETATM    2  C   UNL     1     -11.058  11.657  68.037  1.00  0.00    -0.242 C  
HETATM    3  O   UNL     1     -12.007  10.892  68.053  1.00  0.00    -0.586 OA 
ENDROOT
BRANCH   2   4
HETATM    4  O   UNL     1     -11.029  12.894  68.587  1.00  0.00    -0.244 OA 
BRANCH   4   5
HETATM    5  C   UNL     1     -10.592  13.995  67.763  1.00  0.00    -0.242 C  
BRANCH   5   6
HETATM    6  C   UNL     1     -11.749  14.461  66.842  1.00  0.00    -0.402 C  
BRANCH   6   7
HETATM    7  N   UNL     1     -11.326  14.838  65.380  1.00  0.00    -0.348 N  
HETATM    8  C   UNL     1     -12.476  14.687  64.411  1.00  0.00    -0.288 C  
HETATM    9  C   UNL     1     -10.200  13.887  64.992  1.00  0.00    -0.358 C  
HETATM   10  C   UNL     1     -10.775  16.258  65.337  1.00  0.00    -0.327 C  
ENDBRANCH   6   7
ENDBRANCH   5   6
BRANCH   5  11
HETATM   11  C   UNL     1     -10.091  15.148  68.631  1.00  0.00    -0.222 C  
HETATM   12  C   UNL     1      -8.596  15.397  68.447  1.00  0.00    -0.162 C  
HETATM   13  O   UNL     1      -8.147  15.185  67.288  1.00  0.00    -0.170 OA 
HETATM   14  O   UNL     1      -7.982  15.666  69.510  1.00  0.00    -0.230 OA 
ENDBRANCH   5  11
ENDBRANCH   4   5
ENDBRANCH   2   4
TORSDOF 5
ENDMDL
MODEL       96
REMARK 921   NORMALIZED FREE ENERGY PREDICTED BY IDOCK:   -3.00 KCAL/MOL
REMARK 922        TOTAL FREE ENERGY PREDICTED BY IDOCK:   -4.48 KCAL/MOL
REMARK 923 INTER-LIGAND FREE ENERGY PREDICTED BY IDOCK:   -4.62 KCAL/MOL
REMARK 924 INTRA-LIGAND FREE ENERGY PREDICTED BY IDOCK:    0.14 KCAL/MOL
REMARK 927      BINDING AFFINITY PREDICTED BY RF-SCORE:    0.00 PKD
ROOT
HETATM    1  C   UNL     1     -12.404  14.064  70.199  1.00  0.00    -0.409 C  
HETATM    2  C   UNL     1     -11.521  13.341  69.223  1.00  0.00    -0.288 C  
HETATM    3  O   UNL     1     -11.680  12.190  68.854  1.00  0.00    -0.288 OA 
ENDROOT
BRANCH   2   4
HETATM    4  O   UNL     1     -10.564  14.190  68.777  1.00  0.00    -0.245 OA 
BRANCH   4   5
HETATM    5  C   UNL     1     -10.695  14.720  67.441  1.00  0.00    -0.281 C  
BRANCH   5   6
HETATM    6  C   UNL     1     -11.928  14.093  66.740  1.00  0.00    -0.447 C  
BRANCH   6   7
HETATM    7  N   UNL     1     -11.770  13.864  65.197  1.00  0.00    -0.336 N  
HETATM    8  C   UNL     1     -12.232  15.066  64.405  1.00  0.00    -0.337 C  
HETATM    9  C   UNL     1     -12.629  12.655  64.844  1.00  0.00    -0.450 C  
HETATM   10  C   UNL     1     -10.324  13.525  64.855  1.00  0.00    -0.377 C  
ENDBRANCH   6   7
ENDBRANCH   5   6
BRANCH   5  11
HETATM   11  C   UNL     1     -10.809  16.243  67.478  1.00  0.00    -0.268 C  
HETATM   12  C   UNL     1      -9.592  16.924  66.857  1.00  0.00    -0.254 C  
HETATM   13  O   UNL     1      -9.060  16.315  65.890  1.00  0.00    -0.395 OA 
HETATM   14  O   UNL     1      -9.203  17.950  67.471  1.00  0.00    -0.247 OA 
ENDBRANCH   5  11
ENDBRANCH   4   5
ENDBRANCH   2   4
TORSDOF 5
ENDMDL
MODEL       97
REMARK 921   NORMALIZED FREE ENERGY PREDICTED BY IDOCK:   -2.96 KCAL/MOL
REMARK 922        TOTAL FREE ENERGY PREDICTED BY IDOCK:   -4.43 KCAL/MOL
REMARK 923 INTER-LIGAND FREE ENERGY PREDICTED BY IDOCK:   -4.82 KCAL/MOL
REMARK 924 INTRA-LIGAND FREE ENERGY PREDICTED BY IDOCK:    0.39 KCAL/MOL
REMARK 927      BINDING AFFINITY PREDICTED BY RF-SCORE:    0.00 PKD
ROOT
HETATM    1  C   UNL     1     -10.512  18.293  65.938  1.00  0.00    -0.324 C  
HETATM    2  C   UNL     1     -10.975  17.039  65.254  1.00  0.00    -0.006 C  
HETATM    3  O   UNL     1     -11.325  16.967  64.088  1.00  0.00    -1.208 OA 
ENDROOT
BRANCH   2   4
HETATM    4  O   UNL     1     -10.879  16.001  66.117  1.00  0.00    -0.281 OA 
BRANCH   4   5
HETATM    5  C   UNL     1      -9.877  14.995  65.863  1.00  0.00    -0.338 C  
BRANCH   5   6
HETATM    6  C   UNL     1      -9.252  14.519  67.200  1.00  0.00    -0.223 C  
BRANCH   6   7
HETATM    7  N   UNL     1      -8.042  15.375  67.711  1.00  0.00    -0.133 N  
HETATM    8  C   UNL     1      -6.893  14.502  68.162  1.00  0.00    -0.126 C  
HETATM    9  C   UNL     1      -8.554  16.198  68.888  1.00  0.00    -0.245 C  
HETATM   10  C   UNL     1      -7.582  16.344  66.628  1.00  0.00    -0.253 C  
ENDBRANCH   6   7
ENDBRANCH   5   6
BRANCH   5  11
HETATM   11  C   UNL     1     -10.481  13.818  65.098  1.00  0.00    -0.399 C  
HETATM   12  C   UNL     1     -11.731  13.271  65.782  1.00  0.00    -0.359 C  
HETATM   13  O   UNL     1     -12.447  14.124  66.373  1.00  0.00    -0.461 OA 
HETATM   14  O   UNL     1     -11.822  12.017  65.768  1.00  0.00    -0.466 OA 
ENDBRANCH   5  11
ENDBRANCH   4   5
ENDBRANCH   2   4
TORSDOF 5
ENDMDL
MODEL       98
REMARK 921   NORMALIZED FREE ENERGY PREDICTED BY IDOCK:   -2.96 KCAL/MOL
REMARK 922        TOTAL FREE ENERGY PREDICTED BY IDOCK:   -4.43 KCAL/MOL
REMARK 923 INTER-LIGAND FREE ENERGY PREDICTED BY IDOCK:   -3.88 KCAL/MOL
REMARK 924 INTRA-LIGAND FREE ENERGY PREDICTED BY IDOCK:   -0.55 KCAL/MOL
REMARK 927      BINDING AFFINITY PREDICTED BY RF-SCORE:    0.00 PKD
ROOT
HETATM    1  C   UNL     1     -10.646   6.452  67.413  1.00  0.00    -0.363 C  
HETATM    2  C   UNL     1     -10.232   7.891  67.303  1.00  0.00    -0.273 C  
HETATM    3  O   UNL     1     -10.401   8.595  66.322  1.00  0.00    -0.214 OA 
ENDROOT
BRANCH   2   4
HETATM    4  O   UNL     1      -9.703   8.293  68.483  1.00  0.00    -0.150 OA 
BRANCH   4   5
HETATM    5  C   UNL     1     -10.526   9.085  69.363  1.00  0.00    -0.222 C  
BRANCH   5   6
HETATM    6  C   UNL     1     -10.400   8.565  70.819  1.00  0.00    -0.198 C  
BRANCH   6   7
HETATM    7  N   UNL     1     -11.733   8.039  71.455  1.00  0.00    -0.281 N  
HETATM    8  C   UNL     1     -12.799   9.110  71.483  1.00  0.00    -0.347 C  
HETATM    9  C   UNL     1     -11.398   7.609  72.879  1.00  0.00    -0.341 C  
HETATM   10  C   UNL     1     -12.232   6.811  70.702  1.00  0.00    -0.254 C  
ENDBRANCH   6   7
ENDBRANCH   5   6
BRANCH   5  11
HETATM   11  C   UNL     1     -10.136  10.560  69.279  1.00  0.00    -0.244 C  
HETATM   12  C   UNL     1     -11.164  11.381  68.505  1.00  0.00    -0.250 C  
HETATM   13  O   UNL     1     -12.363  11.011  68.628  1.00  0.00    -0.539 OA 
HETATM   14  O   UNL     1     -10.665  12.251  67.745  1.00  0.00    -0.208 OA 
ENDBRANCH   5  11
ENDBRANCH   4   5
ENDBRANCH   2   4
TORSDOF 5
ENDMDL
MODEL       99
REMARK 921   NORMALIZED FREE ENERGY PREDICTED BY IDOCK:   -2.95 KCAL/MOL
REMARK 922        TOTAL FREE ENERGY PREDICTED BY IDOCK:   -4.42 KCAL/MOL
REMARK 923 INTER-LIGAND FREE ENERGY PREDICTED BY IDOCK:   -3.82 KCAL/MOL
REMARK 924 INTRA-LIGAND FREE ENERGY PREDICTED BY IDOCK:   -0.60 KCAL/MOL
REMARK 927      BINDING AFFINITY PREDICTED BY RF-SCORE:    0.00 PKD
ROOT
HETATM    1  C   UNL     1     -10.352   8.270  67.030  1.00  0.00    -0.393 C  
HETATM    2  C   UNL     1     -10.604   9.112  68.247  1.00  0.00    -0.174 C  
HETATM    3  O   UNL     1     -10.261   8.824  69.381  1.00  0.00    -0.199 OA 
ENDROOT
BRANCH   2   4
HETATM    4  O   UNL     1     -11.212  10.262  67.873  1.00  0.00    -0.301 OA 
BRANCH   4   5
HETATM    5  C   UNL     1     -10.484  11.172  67.024  1.00  0.00    -0.235 C  
BRANCH   5   6
HETATM    6  C   UNL     1     -11.472  12.077  66.243  1.00  0.00    -0.345 C  
BRANCH   6   7
HETATM    7  N   UNL     1     -11.181  12.213  64.709  1.00  0.00    -0.314 N  
HETATM    8  C   UNL     1     -10.352  11.058  64.195  1.00  0.00    -0.369 C  
HETATM    9  C   UNL     1     -10.415  13.518  64.523  1.00  0.00    -0.407 C  
HETATM   10  C   UNL     1     -12.485  12.322  63.928  1.00  0.00    -0.485 C  
ENDBRANCH   6   7
ENDBRANCH   5   6
BRANCH   5  11
HETATM   11  C   UNL     1      -9.513  12.015  67.849  1.00  0.00    -0.196 C  
HETATM   12  C   UNL     1      -8.058  11.648  67.574  1.00  0.00    -0.144 C  
HETATM   13  O   UNL     1      -7.798  11.291  66.393  1.00  0.00    -0.158 OA 
HETATM   14  O   UNL     1      -7.326  11.632  68.597  1.00  0.00    -0.098 OA 
ENDBRANCH   5  11
ENDBRANCH   4   5
ENDBRANCH   2   4
TORSDOF 5
ENDMDL
MODEL      100
REMARK 921   NORMALIZED FREE ENERGY PREDICTED BY IDOCK:   -2.94 KCAL/MOL
REMARK 922        TOTAL FREE ENERGY PREDICTED BY IDOCK:   -4.41 KCAL/MOL
REMARK 923 INTER-LIGAND FREE ENERGY PREDICTED BY IDOCK:   -3.84 KCAL/MOL
REMARK 924 INTRA-LIGAND FREE ENERGY PREDICTED BY IDOCK:   -0.57 KCAL/MOL
REMARK 927      BINDING AFFINITY PREDICTED BY RF-SCORE:    0.00 PKD
ROOT
HETATM    1  C   UNL     1      -7.744  12.727  67.424  1.00  0.00    -0.165 C  
HETATM    2  C   UNL     1      -8.234  11.436  68.012  1.00  0.00    -0.140 C  
HETATM    3  O   UNL     1      -8.067  11.085  69.168  1.00  0.00    -0.135 OA 
ENDROOT
BRANCH   2   4
HETATM    4  O   UNL     1      -8.941  10.760  67.075  1.00  0.00    -0.140 OA 
BRANCH   4   5
HETATM    5  C   UNL     1     -10.187  11.329  66.621  1.00  0.00    -0.229 C  
BRANCH   5   6
HETATM    6  C   UNL     1     -10.519  10.811  65.198  1.00  0.00    -0.229 C  
BRANCH   6   7
HETATM    7  N   UNL     1     -10.744  11.926  64.120  1.00  0.00    -0.319 N  
HETATM    8  C   UNL     1     -12.181  11.969  63.653  1.00  0.00    -0.538 C  
HETATM    9  C   UNL     1      -9.833  11.589  62.944  1.00  0.00    -0.249 C  
HETATM   10  C   UNL     1     -10.320  13.285  64.664  1.00  0.00    -0.375 C  
ENDBRANCH   6   7
ENDBRANCH   5   6
BRANCH   5  11
HETATM   11  C   UNL     1     -11.314  10.996  67.596  1.00  0.00    -0.355 C  
HETATM   12  C   UNL     1     -11.779  12.223  68.376  1.00  0.00    -0.337 C  
HETATM   13  O   UNL     1     -11.735  13.317  67.750  1.00  0.00    -0.319 OA 
HETATM   14  O   UNL     1     -12.032  12.002  69.588  1.00  0.00    -0.307 OA 
ENDBRANCH   5  11
ENDBRANCH   4   5
ENDBRANCH   2   4
TORSDOF 5
ENDMDL
MODEL      101
REMARK 921   NORMALIZED FREE ENERGY PREDICTED BY IDOCK:   -2.93 KCAL/MOL
REMARK 922        TOTAL FREE ENERGY PREDICTED BY IDOCK:   -4.40 KCAL/MOL
REMARK 923 INTER-LIGAND FREE ENERGY PREDICTED BY IDOCK:   -3.80 KCAL/MOL
REMARK 924 INTRA-LIGAND FREE ENERGY PREDICTED BY IDOCK:   -0.60 KCAL/MOL
REMARK 927      BINDING AFFINITY PREDICTED BY RF-SCORE:    0.00 PKD
ROOT
HETATM    1  C   UNL     1      -8.391  15.073  67.043  1.00  0.00    -0.254 C  
HETATM    2  C   UNL     1      -8.814  13.662  67.333  1.00  0.00    -0.221 C  
HETATM    3  O   UNL     1      -8.141  12.670  67.109  1.00  0.00    -0.177 OA 
ENDROOT
BRANCH   2   4
HETATM    4  O   UNL     1     -10.027  13.676  67.935  1.00  0.00    -0.231 OA 
BRANCH   4   5
HETATM    5  C   UNL     1     -10.900  12.546  67.733  1.00  0.00    -0.225 C  
BRANCH   5   6
HETATM    6  C   UNL     1     -11.048  11.747  69.053  1.00  0.00    -0.246 C  
BRANCH   6   7
HETATM    7  N   UNL     1     -10.413  10.313  69.038  1.00  0.00    -0.203 N  
HETATM    8  C   UNL     1      -8.973  10.337  69.498  1.00  0.00    -0.157 C  
HETATM    9  C   UNL     1     -10.484   9.819  67.598  1.00  0.00    -0.251 C  
HETATM   10  C   UNL     1     -11.232   9.361  69.900  1.00  0.00    -0.155 C  
ENDBRANCH   6   7
ENDBRANCH   5   6
BRANCH   5  11
HETATM   11  C   UNL     1     -12.264  13.008  67.223  1.00  0.00    -0.180 C  
HETATM   12  C   UNL     1     -12.277  13.193  65.708  1.00  0.00    -0.456 C  
HETATM   13  O   UNL     1     -11.552  12.394  65.054  1.00  0.00    -0.322 OA 
HETATM   14  O   UNL     1     -12.919  14.200  65.315  1.00  0.00    -0.725 OA 
ENDBRANCH   5  11
ENDBRANCH   4   5
ENDBRANCH   2   4
TORSDOF 5
ENDMDL
MODEL      102
REMARK 921   NORMALIZED FREE ENERGY PREDICTED BY IDOCK:   -2.93 KCAL/MOL
REMARK 922        TOTAL FREE ENERGY PREDICTED BY IDOCK:   -4.40 KCAL/MOL
REMARK 923 INTER-LIGAND FREE ENERGY PREDICTED BY IDOCK:   -3.81 KCAL/MOL
REMARK 924 INTRA-LIGAND FREE ENERGY PREDICTED BY IDOCK:   -0.59 KCAL/MOL
REMARK 927      BINDING AFFINITY PREDICTED BY RF-SCORE:    0.00 PKD
ROOT
HETATM    1  C   UNL     1      -6.373  16.553  67.008  1.00  0.00    -0.207 C  
HETATM    2  C   UNL     1      -7.414  15.486  67.191  1.00  0.00    -0.209 C  
HETATM    3  O   UNL     1      -7.324  14.545  67.961  1.00  0.00    -0.110 OA 
ENDROOT
BRANCH   2   4
HETATM    4  O   UNL     1      -8.485  15.773  66.413  1.00  0.00    -0.286 OA 
BRANCH   4   5
HETATM    5  C   UNL     1      -9.713  16.159  67.064  1.00  0.00    -0.230 C  
BRANCH   5   6
HETATM    6  C   UNL     1     -10.251  17.475  66.445  1.00  0.00    -0.354 C  
BRANCH   6   7
HETATM    7  N   UNL     1      -9.670  18.790  67.070  1.00  0.00    -0.300 N  
HETATM    8  C   UNL     1      -9.251  18.586  68.508  1.00  0.00    -0.335 C  
HETATM    9  C   UNL     1     -10.780  19.834  67.002  1.00  0.00    -0.418 C  
HETATM   10  C   UNL     1      -8.498  19.300  66.241  1.00  0.00    -0.319 C  
ENDBRANCH   6   7
ENDBRANCH   5   6
BRANCH   5  11
HETATM   11  C   UNL     1     -10.752  15.044  66.952  1.00  0.00    -0.308 C  
HETATM   12  C   UNL     1     -10.990  14.347  68.290  1.00  0.00    -0.247 C  
HETATM   13  O   UNL     1     -10.903  15.082  69.311  1.00  0.00    -0.241 OA 
HETATM   14  O   UNL     1     -11.126  13.100  68.207  1.00  0.00    -0.242 OA 
ENDBRANCH   5  11
ENDBRANCH   4   5
ENDBRANCH   2   4
TORSDOF 5
ENDMDL
MODEL      103
REMARK 921   NORMALIZED FREE ENERGY PREDICTED BY IDOCK:   -2.92 KCAL/MOL
REMARK 922        TOTAL FREE ENERGY PREDICTED BY IDOCK:   -4.38 KCAL/MOL
REMARK 923 INTER-LIGAND FREE ENERGY PREDICTED BY IDOCK:   -3.83 KCAL/MOL
REMARK 924 INTRA-LIGAND FREE ENERGY PREDICTED BY IDOCK:   -0.56 KCAL/MOL
REMARK 927      BINDING AFFINITY PREDICTED BY RF-SCORE:    0.00 PKD
ROOT
HETATM    1  C   UNL     1     -10.639   5.279  66.511  1.00  0.00    -0.348 C  
HETATM    2  C   UNL     1     -10.910   6.522  67.308  1.00  0.00    -0.390 C  
HETATM    3  O   UNL     1     -10.662   7.658  66.939  1.00  0.00    -0.351 OA 
ENDROOT
BRANCH   2   4
HETATM    4  O   UNL     1     -11.526   6.183  68.465  1.00  0.00    -0.180 OA 
BRANCH   4   5
HETATM    5  C   UNL     1     -10.872   6.513  69.707  1.00  0.00    -0.295 C  
BRANCH   5   6
HETATM    6  C   UNL     1     -11.928   6.746  70.818  1.00  0.00    -0.378 C  
BRANCH   6   7
HETATM    7  N   UNL     1     -11.811   8.117  71.571  1.00  0.00    -0.283 N  
HETATM    8  C   UNL     1     -10.870   8.026  72.750  1.00  0.00    -0.369 C  
HETATM    9  C   UNL     1     -13.213   8.468  72.058  1.00  0.00    -0.369 C  
HETATM   10  C   UNL     1     -11.362   9.212  70.612  1.00  0.00    -0.273 C  
ENDBRANCH   6   7
ENDBRANCH   5   6
BRANCH   5  11
HETATM   11  C   UNL     1      -9.896   5.409  70.109  1.00  0.00    -0.273 C  
HETATM   12  C   UNL     1      -8.441   5.840  69.944  1.00  0.00    -0.123 C  
HETATM   13  O   UNL     1      -8.204   7.058  70.169  1.00  0.00    -0.128 OA 
HETATM   14  O   UNL     1      -7.685   4.946  69.486  1.00  0.00    -0.065 OA 
ENDBRANCH   5  11
ENDBRANCH   4   5
ENDBRANCH   2   4
TORSDOF 5
ENDMDL
MODEL      104
REMARK 921   NORMALIZED FREE ENERGY PREDICTED BY IDOCK:   -2.92 KCAL/MOL
REMARK 922        TOTAL FREE ENERGY PREDICTED BY IDOCK:   -4.38 KCAL/MOL
REMARK 923 INTER-LIGAND FREE ENERGY PREDICTED BY IDOCK:   -3.78 KCAL/MOL
REMARK 924 INTRA-LIGAND FREE ENERGY PREDICTED BY IDOCK:   -0.60 KCAL/MOL
REMARK 927      BINDING AFFINITY PREDICTED BY RF-SCORE:    0.00 PKD
ROOT
HETATM    1  C   UNL     1      -7.911  10.707  69.150  1.00  0.00    -0.139 C  
HETATM    2  C   UNL     1      -9.207  10.002  69.433  1.00  0.00    -0.216 C  
HETATM    3  O   UNL     1      -9.469   9.407  70.465  1.00  0.00    -0.240 OA 
ENDROOT
BRANCH   2   4
HETATM    4  O   UNL     1     -10.051  10.188  68.390  1.00  0.00    -0.155 OA 
BRANCH   4   5
HETATM    5  C   UNL     1     -10.885  11.364  68.392  1.00  0.00    -0.207 C  
BRANCH   5   6
HETATM    6  C   UNL     1     -11.181  11.807  66.936  1.00  0.00    -0.327 C  
BRANCH   6   7
HETATM    7  N   UNL     1     -10.790  13.287  66.598  1.00  0.00    -0.279 N  
HETATM    8  C   UNL     1      -9.661  13.779  67.475  1.00  0.00    -0.230 C  
HETATM    9  C   UNL     1     -12.034  14.135  66.838  1.00  0.00    -0.449 C  
HETATM   10  C   UNL     1     -10.415  13.415  65.126  1.00  0.00    -0.347 C  
ENDBRANCH   6   7
ENDBRANCH   5   6
BRANCH   5  11
HETATM   11  C   UNL     1     -12.183  11.099  69.153  1.00  0.00    -0.244 C  
HETATM   12  C   UNL     1     -12.254  11.887  70.458  1.00  0.00    -0.336 C  
HETATM   13  O   UNL     1     -11.708  13.024  70.440  1.00  0.00    -0.210 OA 
HETATM   14  O   UNL     1     -12.746  11.248  71.423  1.00  0.00    -0.398 OA 
ENDBRANCH   5  11
ENDBRANCH   4   5
ENDBRANCH   2   4
TORSDOF 5
ENDMDL
MODEL      105
REMARK 921   NORMALIZED FREE ENERGY PREDICTED BY IDOCK:   -2.91 KCAL/MOL
REMARK 922        TOTAL FREE ENERGY PREDICTED BY IDOCK:   -4.37 KCAL/MOL
REMARK 923 INTER-LIGAND FREE ENERGY PREDICTED BY IDOCK:   -3.75 KCAL/MOL
REMARK 924 INTRA-LIGAND FREE ENERGY PREDICTED BY IDOCK:   -0.62 KCAL/MOL
REMARK 927      BINDING AFFINITY PREDICTED BY RF-SCORE:    0.00 PKD
ROOT
HETATM    1  C   UNL     1     -11.936  10.214  70.602  1.00  0.00    -0.423 C  
HETATM    2  C   UNL     1     -11.317   9.260  71.583  1.00  0.00    -0.397 C  
HETATM    3  O   UNL     1     -11.911   8.707  72.492  1.00  0.00    -0.368 OA 
ENDROOT
BRANCH   2   4
HETATM    4  O   UNL     1     -10.017   9.067  71.255  1.00  0.00    -0.260 OA 
BRANCH   4   5
HETATM    5  C   UNL     1      -9.398   7.820  71.630  1.00  0.00    -0.140 C  
BRANCH   5   6
HETATM    6  C   UNL     1      -9.243   6.908  70.385  1.00  0.00    -0.156 C  
BRANCH   6   7
HETATM    7  N   UNL     1     -10.253   5.712  70.306  1.00  0.00    -0.222 N  
HETATM    8  C   UNL     1      -9.695   4.564  69.497  1.00  0.00    -0.212 C  
HETATM    9  C   UNL     1     -11.514   6.248  69.636  1.00  0.00    -0.355 C  
HETATM   10  C   UNL     1     -10.631   5.243  71.706  1.00  0.00    -0.201 C  
ENDBRANCH   6   7
ENDBRANCH   5   6
BRANCH   5  11
HETATM   11  C   UNL     1      -8.044   8.071  72.291  1.00  0.00    -0.179 C  
HETATM   12  C   UNL     1      -8.158   8.183  73.809  1.00  0.00    -0.226 C  
HETATM   13  O   UNL     1      -9.041   7.459  74.344  1.00  0.00    -0.211 OA 
HETATM   14  O   UNL     1      -7.434   9.076  74.318  1.00  0.00    -0.405 OA 
ENDBRANCH   5  11
ENDBRANCH   4   5
ENDBRANCH   2   4
TORSDOF 5
ENDMDL
MODEL      106
REMARK 921   NORMALIZED FREE ENERGY PREDICTED BY IDOCK:   -2.89 KCAL/MOL
REMARK 922        TOTAL FREE ENERGY PREDICTED BY IDOCK:   -4.34 KCAL/MOL
REMARK 923 INTER-LIGAND FREE ENERGY PREDICTED BY IDOCK:   -3.69 KCAL/MOL
REMARK 924 INTRA-LIGAND FREE ENERGY PREDICTED BY IDOCK:   -0.66 KCAL/MOL
REMARK 927      BINDING AFFINITY PREDICTED BY RF-SCORE:    0.00 PKD
ROOT
HETATM    1  C   UNL     1     -14.388   7.348  71.729  1.00  0.00    -0.586 C  
HETATM    2  C   UNL     1     -12.911   7.575  71.587  1.00  0.00    -0.358 C  
HETATM    3  O   UNL     1     -12.245   8.317  72.290  1.00  0.00    -0.344 OA 
ENDROOT
BRANCH   2   4
HETATM    4  O   UNL     1     -12.432   6.780  70.601  1.00  0.00    -0.320 OA 
BRANCH   4   5
HETATM    5  C   UNL     1     -11.002   6.680  70.441  1.00  0.00    -0.290 C  
BRANCH   5   6
HETATM    6  C   UNL     1     -10.523   5.256  70.823  1.00  0.00    -0.228 C  
BRANCH   6   7
HETATM    7  N   UNL     1      -9.815   5.144  72.218  1.00  0.00    -0.166 N  
HETATM    8  C   UNL     1     -10.816   5.000  73.341  1.00  0.00    -0.299 C  
HETATM    9  C   UNL     1      -9.014   6.429  72.406  1.00  0.00    -0.134 C  
HETATM   10  C   UNL     1      -8.834   3.978  72.223  1.00  0.00    -0.106 C  
ENDBRANCH   6   7
ENDBRANCH   5   6
BRANCH   5  11
HETATM   11  C   UNL     1     -10.598   7.021  69.007  1.00  0.00    -0.234 C  
HETATM   12  C   UNL     1     -10.247   8.498  68.846  1.00  0.00    -0.207 C  
HETATM   13  O   UNL     1      -9.699   9.040  69.844  1.00  0.00    -0.170 OA 
HETATM   14  O   UNL     1     -10.660   9.015  67.777  1.00  0.00    -0.246 OA 
ENDBRANCH   5  11
ENDBRANCH   4   5
ENDBRANCH   2   4
TORSDOF 5
ENDMDL
MODEL      107
REMARK 921   NORMALIZED FREE ENERGY PREDICTED BY IDOCK:   -2.86 KCAL/MOL
REMARK 922        TOTAL FREE ENERGY PREDICTED BY IDOCK:   -4.31 KCAL/MOL
REMARK 923 INTER-LIGAND FREE ENERGY PREDICTED BY IDOCK:   -3.79 KCAL/MOL
REMARK 924 INTRA-LIGAND FREE ENERGY PREDICTED BY IDOCK:   -0.52 KCAL/MOL
REMARK 927      BINDING AFFINITY PREDICTED BY RF-SCORE:    0.00 PKD
ROOT
HETATM    1  C   UNL     1      -8.422  14.206  68.005  1.00  0.00    -0.171 C  
HETATM    2  C   UNL     1      -9.282  12.999  67.765  1.00  0.00    -0.200 C  
HETATM    3  O   UNL     1     -10.210  12.648  68.474  1.00  0.00    -0.229 OA 
ENDROOT
BRANCH   2   4
HETATM    4  O   UNL     1      -8.902  12.405  66.609  1.00  0.00    -0.208 OA 
BRANCH   4   5
HETATM    5  C   UNL     1      -9.931  11.955  65.705  1.00  0.00    -0.241 C  
BRANCH   5   6
HETATM    6  C   UNL     1     -10.290  13.084  64.705  1.00  0.00    -0.352 C  
BRANCH   6   7
HETATM    7  N   UNL     1     -11.816  13.431  64.611  1.00  0.00    -0.374 N  
HETATM    8  C   UNL     1     -12.519  13.211  65.931  1.00  0.00    -0.319 C  
HETATM    9  C   UNL     1     -12.410  12.508  63.553  1.00  0.00    -0.525 C  
HETATM   10  C   UNL     1     -12.007  14.867  64.139  1.00  0.00    -0.235 C  
ENDBRANCH   6   7
ENDBRANCH   5   6
BRANCH   5  11
HETATM   11  C   UNL     1      -9.481  10.697  64.963  1.00  0.00    -0.293 C  
HETATM   12  C   UNL     1      -9.500   9.464  65.863  1.00  0.00    -0.251 C  
HETATM   13  O   UNL     1     -10.410   9.438  66.735  1.00  0.00    -0.251 OA 
HETATM   14  O   UNL     1      -8.527   8.686  65.695  1.00  0.00    -0.138 OA 
ENDBRANCH   5  11
ENDBRANCH   4   5
ENDBRANCH   2   4
TORSDOF 5
ENDMDL
MODEL      108
REMARK 921   NORMALIZED FREE ENERGY PREDICTED BY IDOCK:   -2.85 KCAL/MOL
REMARK 922        TOTAL FREE ENERGY PREDICTED BY IDOCK:   -4.29 KCAL/MOL
REMARK 923 INTER-LIGAND FREE ENERGY PREDICTED BY IDOCK:   -3.80 KCAL/MOL
REMARK 924 INTRA-LIGAND FREE ENERGY PREDICTED BY IDOCK:   -0.49 KCAL/MOL
REMARK 927      BINDING AFFINITY PREDICTED BY RF-SCORE:    0.00 PKD
ROOT
HETATM    1  C   UNL     1      -9.567   6.924  67.918  1.00  0.00    -0.126 C  
HETATM    2  C   UNL     1     -10.439   6.861  69.139  1.00  0.00    -0.207 C  
HETATM    3  O   UNL     1     -11.406   6.129  69.271  1.00  0.00    -0.416 OA 
ENDROOT
BRANCH   2   4
HETATM    4  O   UNL     1      -9.943   7.695  70.084  1.00  0.00    -0.184 OA 
BRANCH   4   5
HETATM    5  C   UNL     1     -10.754   7.967  71.245  1.00  0.00    -0.228 C  
BRANCH   5   6
HETATM    6  C   UNL     1      -9.982   7.582  72.534  1.00  0.00    -0.198 C  
BRANCH   6   7
HETATM    7  N   UNL     1     -10.226   6.120  73.045  1.00  0.00    -0.187 N  
HETATM    8  C   UNL     1      -9.267   5.140  72.410  1.00  0.00    -0.133 C  
HETATM    9  C   UNL     1     -11.658   5.758  72.664  1.00  0.00    -0.253 C  
HETATM   10  C   UNL     1     -10.119   6.064  74.564  1.00  0.00    -0.314 C  
ENDBRANCH   6   7
ENDBRANCH   5   6
BRANCH   5  11
HETATM   11  C   UNL     1     -11.166   9.437  71.278  1.00  0.00    -0.437 C  
HETATM   12  C   UNL     1     -12.663   9.608  71.525  1.00  0.00    -0.387 C  
HETATM   13  O   UNL     1     -13.194   8.746  72.277  1.00  0.00    -0.378 OA 
HETATM   14  O   UNL     1     -13.198  10.521  70.847  1.00  0.00    -0.353 OA 
ENDBRANCH   5  11
ENDBRANCH   4   5
ENDBRANCH   2   4
TORSDOF 5
ENDMDL
MODEL      109
REMARK 921   NORMALIZED FREE ENERGY PREDICTED BY IDOCK:   -2.85 KCAL/MOL
REMARK 922        TOTAL FREE ENERGY PREDICTED BY IDOCK:   -4.29 KCAL/MOL
REMARK 923 INTER-LIGAND FREE ENERGY PREDICTED BY IDOCK:   -3.77 KCAL/MOL
REMARK 924 INTRA-LIGAND FREE ENERGY PREDICTED BY IDOCK:   -0.51 KCAL/MOL
REMARK 927      BINDING AFFINITY PREDICTED BY RF-SCORE:    0.00 PKD
ROOT
HETATM    1  C   UNL     1      -9.245  12.357  67.856  1.00  0.00    -0.192 C  
HETATM    2  C   UNL     1      -8.849  13.769  67.530  1.00  0.00    -0.197 C  
HETATM    3  O   UNL     1      -7.709  14.200  67.558  1.00  0.00    -0.164 OA 
ENDROOT
BRANCH   2   4
HETATM    4  O   UNL     1      -9.947  14.459  67.141  1.00  0.00    -0.247 OA 
BRANCH   4   5
HETATM    5  C   UNL     1     -10.483  15.450  68.043  1.00  0.00    -0.257 C  
BRANCH   5   6
HETATM    6  C   UNL     1     -10.578  16.822  67.328  1.00  0.00    -0.275 C  
BRANCH   6   7
HETATM    7  N   UNL     1      -9.403  17.815  67.634  1.00  0.00    -0.249 N  
HETATM    8  C   UNL     1      -8.591  17.365  68.827  1.00  0.00    -0.221 C  
HETATM    9  C   UNL     1     -10.041  19.169  67.927  1.00  0.00    -0.386 C  
HETATM   10  C   UNL     1      -8.510  17.975  66.410  1.00  0.00    -0.235 C  
ENDBRANCH   6   7
ENDBRANCH   5   6
BRANCH   5  11
HETATM   11  C   UNL     1     -11.851  15.015  68.565  1.00  0.00    -0.319 C  
HETATM   12  C   UNL     1     -11.967  15.185  70.078  1.00  0.00    -0.336 C  
HETATM   13  O   UNL     1     -11.344  16.167  70.566  1.00  0.00    -0.371 OA 
HETATM   14  O   UNL     1     -12.575  14.250  70.659  1.00  0.00    -0.324 OA 
ENDBRANCH   5  11
ENDBRANCH   4   5
ENDBRANCH   2   4
TORSDOF 5
ENDMDL
MODEL      110
REMARK 921   NORMALIZED FREE ENERGY PREDICTED BY IDOCK:   -2.80 KCAL/MOL
REMARK 922        TOTAL FREE ENERGY PREDICTED BY IDOCK:   -4.23 KCAL/MOL
REMARK 923 INTER-LIGAND FREE ENERGY PREDICTED BY IDOCK:   -4.06 KCAL/MOL
REMARK 924 INTRA-LIGAND FREE ENERGY PREDICTED BY IDOCK:   -0.18 KCAL/MOL
REMARK 927      BINDING AFFINITY PREDICTED BY RF-SCORE:    0.00 PKD
ROOT
HETATM    1  C   UNL     1     -10.435   5.314  69.744  1.00  0.00    -0.340 C  
HETATM    2  C   UNL     1     -10.837   6.761  69.746  1.00  0.00    -0.272 C  
HETATM    3  O   UNL     1     -10.550   7.568  68.878  1.00  0.00    -0.211 OA 
ENDROOT
BRANCH   2   4
HETATM    4  O   UNL     1     -11.615   7.005  70.827  1.00  0.00    -0.304 OA 
BRANCH   4   5
HETATM    5  C   UNL     1     -11.087   7.851  71.869  1.00  0.00    -0.267 C  
BRANCH   5   6
HETATM    6  C   UNL     1      -9.554   7.650  71.989  1.00  0.00    -0.157 C  
BRANCH   6   7
HETATM    7  N   UNL     1      -9.081   6.890  73.276  1.00  0.00    -0.131 N  
HETATM    8  C   UNL     1     -10.252   6.422  74.109  1.00  0.00    -0.343 C  
HETATM    9  C   UNL     1      -8.238   7.873  74.080  1.00  0.00    -0.251 C  
HETATM   10  C   UNL     1      -8.191   5.712  72.899  1.00  0.00    -0.119 C  
ENDBRANCH   6   7
ENDBRANCH   5   6
BRANCH   5  11
HETATM   11  C   UNL     1     -11.422   9.315  71.593  1.00  0.00    -0.468 C  
HETATM   12  C   UNL     1     -12.911   9.604  71.764  1.00  0.00    -0.420 C  
HETATM   13  O   UNL     1     -13.496   8.941  72.663  1.00  0.00    -0.435 OA 
HETATM   14  O   UNL     1     -13.390  10.384  70.902  1.00  0.00    -0.337 OA 
ENDBRANCH   5  11
ENDBRANCH   4   5
ENDBRANCH   2   4
TORSDOF 5
ENDMDL
MODEL      111
REMARK 921   NORMALIZED FREE ENERGY PREDICTED BY IDOCK:   -2.79 KCAL/MOL
REMARK 922        TOTAL FREE ENERGY PREDICTED BY IDOCK:   -4.21 KCAL/MOL
REMARK 923 INTER-LIGAND FREE ENERGY PREDICTED BY IDOCK:   -3.95 KCAL/MOL
REMARK 924 INTRA-LIGAND FREE ENERGY PREDICTED BY IDOCK:   -0.26 KCAL/MOL
REMARK 927      BINDING AFFINITY PREDICTED BY RF-SCORE:    0.00 PKD
ROOT
HETATM    1  C   UNL     1      -9.445   8.910  65.855  1.00  0.00    -0.303 C  
HETATM    2  C   UNL     1     -10.402   9.866  66.507  1.00  0.00    -0.188 C  
HETATM    3  O   UNL     1     -10.732   9.835  67.680  1.00  0.00    -0.260 OA 
ENDROOT
BRANCH   2   4
HETATM    4  O   UNL     1     -10.784  10.798  65.602  1.00  0.00    -0.183 OA 
BRANCH   4   5
HETATM    5  C   UNL     1     -10.430  12.174  65.851  1.00  0.00    -0.254 C  
BRANCH   5   6
HETATM    6  C   UNL     1      -8.979  12.259  66.390  1.00  0.00    -0.117 C  
BRANCH   6   7
HETATM    7  N   UNL     1      -8.836  12.885  67.820  1.00  0.00    -0.177 N  
HETATM    8  C   UNL     1      -7.975  12.028  68.720  1.00  0.00    -0.014 C  
HETATM    9  C   UNL     1     -10.244  12.983  68.398  1.00  0.00    -0.245 C  
HETATM   10  C   UNL     1      -8.270  14.297  67.728  1.00  0.00    -0.174 C  
ENDBRANCH   6   7
ENDBRANCH   5   6
BRANCH   5  11
HETATM   11  C   UNL     1     -10.585  13.006  64.579  1.00  0.00    -0.413 C  
HETATM   12  C   UNL     1     -11.801  13.928  64.642  1.00  0.00    -0.407 C  
HETATM   13  O   UNL     1     -12.078  14.389  65.783  1.00  0.00    -0.385 OA 
HETATM   14  O   UNL     1     -12.442  14.012  63.564  1.00  0.00    -0.826 OA 
ENDBRANCH   5  11
ENDBRANCH   4   5
ENDBRANCH   2   4
TORSDOF 5
ENDMDL
MODEL      112
REMARK 921   NORMALIZED FREE ENERGY PREDICTED BY IDOCK:   -2.79 KCAL/MOL
REMARK 922        TOTAL FREE ENERGY PREDICTED BY IDOCK:   -4.21 KCAL/MOL
REMARK 923 INTER-LIGAND FREE ENERGY PREDICTED BY IDOCK:   -3.75 KCAL/MOL
REMARK 924 INTRA-LIGAND FREE ENERGY PREDICTED BY IDOCK:   -0.46 KCAL/MOL
REMARK 927      BINDING AFFINITY PREDICTED BY RF-SCORE:    0.00 PKD
ROOT
HETATM    1  C   UNL     1     -10.228   5.161  69.918  1.00  0.00    -0.361 C  
HETATM    2  C   UNL     1     -11.021   6.094  69.049  1.00  0.00    -0.367 C  
HETATM    3  O   UNL     1     -11.139   5.994  67.840  1.00  0.00    -0.301 OA 
ENDROOT
BRANCH   2   4
HETATM    4  O   UNL     1     -11.630   7.018  69.830  1.00  0.00    -0.223 OA 
BRANCH   4   5
HETATM    5  C   UNL     1     -10.848   8.140  70.291  1.00  0.00    -0.244 C  
BRANCH   5   6
HETATM    6  C   UNL     1     -10.104   8.794  69.099  1.00  0.00    -0.198 C  
BRANCH   6   7
HETATM    7  N   UNL     1      -8.550   8.918  69.271  1.00  0.00    -0.131 N  
HETATM    8  C   UNL     1      -8.096  10.358  69.214  1.00  0.00    -0.157 C  
HETATM    9  C   UNL     1      -7.919   8.134  68.126  1.00  0.00    -0.127 C  
HETATM   10  C   UNL     1      -8.108   8.271  70.579  1.00  0.00    -0.105 C  
ENDBRANCH   6   7
ENDBRANCH   5   6
BRANCH   5  11
HETATM   11  C   UNL     1     -11.739   9.159  70.998  1.00  0.00    -0.363 C  
HETATM   12  C   UNL     1     -12.259   8.637  72.335  1.00  0.00    -0.349 C  
HETATM   13  O   UNL     1     -11.473   7.881  72.968  1.00  0.00    -0.383 OA 
HETATM   14  O   UNL     1     -13.457   8.934  72.577  1.00  0.00    -0.438 OA 
ENDBRANCH   5  11
ENDBRANCH   4   5
ENDBRANCH   2   4
TORSDOF 5
ENDMDL
MODEL      113
REMARK 921   NORMALIZED FREE ENERGY PREDICTED BY IDOCK:   -2.77 KCAL/MOL
REMARK 922        TOTAL FREE ENERGY PREDICTED BY IDOCK:   -4.19 KCAL/MOL
REMARK 923 INTER-LIGAND FREE ENERGY PREDICTED BY IDOCK:   -4.06 KCAL/MOL
REMARK 924 INTRA-LIGAND FREE ENERGY PREDICTED BY IDOCK:   -0.13 KCAL/MOL
REMARK 927      BINDING AFFINITY PREDICTED BY RF-SCORE:    0.00 PKD
ROOT
HETATM    1  C   UNL     1     -10.629  18.358  67.295  1.00  0.00    -0.435 C  
HETATM    2  C   UNL     1      -9.760  17.960  66.137  1.00  0.00    -0.216 C  
HETATM    3  O   UNL     1      -9.834  16.901  65.537  1.00  0.00    -0.559 OA 
ENDROOT
BRANCH   2   4
HETATM    4  O   UNL     1      -8.931  18.986  65.831  1.00  0.00    -0.448 OA 
BRANCH   4   5
HETATM    5  C   UNL     1      -7.555  18.899  66.255  1.00  0.00    -0.271 C  
BRANCH   5   6
HETATM    6  C   UNL     1      -7.278  17.505  66.877  1.00  0.00    -0.197 C  
BRANCH   6   7
HETATM    7  N   UNL     1      -6.965  17.513  68.413  1.00  0.00    -0.203 N  
HETATM    8  C   UNL     1      -5.536  17.104  68.692  1.00  0.00    -0.135 C  
HETATM    9  C   UNL     1      -7.920  16.515  69.060  1.00  0.00    -0.225 C  
HETATM   10  C   UNL     1      -7.252  18.886  69.007  1.00  0.00    -0.293 C  
ENDBRANCH   6   7
ENDBRANCH   5   6
BRANCH   5  11
HETATM   11  C   UNL     1      -6.614  19.164  65.081  1.00  0.00    -0.230 C  
HETATM   12  C   UNL     1      -6.250  20.641  64.960  1.00  0.00    -0.272 C  
HETATM   13  O   UNL     1      -6.157  21.271  66.049  1.00  0.00    -0.266 OA 
HETATM   14  O   UNL     1      -6.207  21.069  63.779  1.00  0.00    -0.311 OA 
ENDBRANCH   5  11
ENDBRANCH   4   5
ENDBRANCH   2   4
TORSDOF 5
ENDMDL
MODEL      114
REMARK 921   NORMALIZED FREE ENERGY PREDICTED BY IDOCK:   -2.77 KCAL/MOL
REMARK 922        TOTAL FREE ENERGY PREDICTED BY IDOCK:   -4.19 KCAL/MOL
REMARK 923 INTER-LIGAND FREE ENERGY PREDICTED BY IDOCK:   -3.69 KCAL/MOL
REMARK 924 INTRA-LIGAND FREE ENERGY PREDICTED BY IDOCK:   -0.50 KCAL/MOL
REMARK 927      BINDING AFFINITY PREDICTED BY RF-SCORE:    0.00 PKD
ROOT
HETATM    1  C   UNL     1      -9.971   9.662  69.691  1.00  0.00    -0.239 C  
HETATM    2  C   UNL     1      -9.330   8.879  70.800  1.00  0.00    -0.230 C  
HETATM    3  O   UNL     1      -8.286   8.257  70.706  1.00  0.00    -0.103 OA 
ENDROOT
BRANCH   2   4
HETATM    4  O   UNL     1     -10.064   9.026  71.929  1.00  0.00    -0.339 OA 
BRANCH   4   5
HETATM    5  C   UNL     1     -11.134   8.090  72.173  1.00  0.00    -0.311 C  
BRANCH   5   6
HETATM    6  C   UNL     1     -10.784   7.190  73.386  1.00  0.00    -0.368 C  
BRANCH   6   7
HETATM    7  N   UNL     1     -10.174   5.792  73.024  1.00  0.00    -0.180 N  
HETATM    8  C   UNL     1     -10.635   4.717  73.981  1.00  0.00    -0.286 C  
HETATM    9  C   UNL     1      -8.659   5.940  73.110  1.00  0.00    -0.119 C  
HETATM   10  C   UNL     1     -10.526   5.415  71.590  1.00  0.00    -0.227 C  
ENDBRANCH   6   7
ENDBRANCH   5   6
BRANCH   5  11
HETATM   11  C   UNL     1     -12.449   8.829  72.408  1.00  0.00    -0.421 C  
HETATM   12  C   UNL     1     -13.598   8.225  71.605  1.00  0.00    -0.346 C  
HETATM   13  O   UNL     1     -13.551   6.975  71.441  1.00  0.00    -0.334 OA 
HETATM   14  O   UNL     1     -14.383   9.071  71.106  1.00  0.00    -0.187 OA 
ENDBRANCH   5  11
ENDBRANCH   4   5
ENDBRANCH   2   4
TORSDOF 5
ENDMDL
MODEL      115
REMARK 921   NORMALIZED FREE ENERGY PREDICTED BY IDOCK:   -2.76 KCAL/MOL
REMARK 922        TOTAL FREE ENERGY PREDICTED BY IDOCK:   -4.18 KCAL/MOL
REMARK 923 INTER-LIGAND FREE ENERGY PREDICTED BY IDOCK:   -4.40 KCAL/MOL
REMARK 924 INTRA-LIGAND FREE ENERGY PREDICTED BY IDOCK:    0.22 KCAL/MOL
REMARK 927      BINDING AFFINITY PREDICTED BY RF-SCORE:    0.00 PKD
ROOT
HETATM    1  C   UNL     1     -10.862  19.516  66.763  1.00  0.00    -0.500 C  
HETATM    2  C   UNL     1     -10.456  18.510  65.725  1.00  0.00    -0.247 C  
HETATM    3  O   UNL     1     -11.152  18.146  64.792  1.00  0.00    -0.636 OA 
ENDROOT
BRANCH   2   4
HETATM    4  O   UNL     1      -9.178  18.126  65.955  1.00  0.00    -0.514 OA 
BRANCH   4   5
HETATM    5  C   UNL     1      -8.929  17.204  67.036  1.00  0.00    -0.230 C  
BRANCH   5   6
HETATM    6  C   UNL     1      -8.522  15.819  66.469  1.00  0.00    -0.300 C  
BRANCH   6   7
HETATM    7  N   UNL     1      -9.682  14.768  66.382  1.00  0.00    -0.275 N  
HETATM    8  C   UNL     1     -10.310  14.745  65.007  1.00  0.00    -0.389 C  
HETATM    9  C   UNL     1     -10.725  15.181  67.416  1.00  0.00    -0.286 C  
HETATM   10  C   UNL     1      -9.174  13.382  66.759  1.00  0.00    -0.236 C  
ENDBRANCH   6   7
ENDBRANCH   5   6
BRANCH   5  11
HETATM   11  C   UNL     1      -7.847  17.748  67.966  1.00  0.00    -0.241 C  
HETATM   12  C   UNL     1      -6.598  18.181  67.202  1.00  0.00    -0.181 C  
HETATM   13  O   UNL     1      -6.801  18.664  66.055  1.00  0.00    -0.225 OA 
HETATM   14  O   UNL     1      -5.516  17.888  67.770  1.00  0.00    -0.142 OA 
ENDBRANCH   5  11
ENDBRANCH   4   5
ENDBRANCH   2   4
TORSDOF 5
ENDMDL
MODEL      116
REMARK 921   NORMALIZED FREE ENERGY PREDICTED BY IDOCK:   -2.76 KCAL/MOL
REMARK 922        TOTAL FREE ENERGY PREDICTED BY IDOCK:   -4.18 KCAL/MOL
REMARK 923 INTER-LIGAND FREE ENERGY PREDICTED BY IDOCK:   -3.71 KCAL/MOL
REMARK 924 INTRA-LIGAND FREE ENERGY PREDICTED BY IDOCK:   -0.47 KCAL/MOL
REMARK 927      BINDING AFFINITY PREDICTED BY RF-SCORE:    0.00 PKD
ROOT
HETATM    1  C   UNL     1      -7.894   8.984  68.151  1.00  0.00    -0.100 C  
HETATM    2  C   UNL     1      -9.383   9.131  68.273  1.00  0.00    -0.135 C  
HETATM    3  O   UNL     1     -10.195   8.727  67.458  1.00  0.00    -0.211 OA 
ENDROOT
BRANCH   2   4
HETATM    4  O   UNL     1      -9.676   9.723  69.455  1.00  0.00    -0.186 OA 
BRANCH   4   5
HETATM    5  C   UNL     1     -10.787   9.207  70.218  1.00  0.00    -0.246 C  
BRANCH   5   6
HETATM    6  C   UNL     1     -10.273   8.236  71.312  1.00  0.00    -0.202 C  
BRANCH   6   7
HETATM    7  N   UNL     1     -10.635   6.727  71.087  1.00  0.00    -0.222 N  
HETATM    8  C   UNL     1     -11.251   6.111  72.322  1.00  0.00    -0.289 C  
HETATM    9  C   UNL     1      -9.331   6.010  70.751  1.00  0.00    -0.154 C  
HETATM   10  C   UNL     1     -11.570   6.578  69.893  1.00  0.00    -0.368 C  
ENDBRANCH   6   7
ENDBRANCH   5   6
BRANCH   5  11
HETATM   11  C   UNL     1     -11.587  10.349  70.840  1.00  0.00    -0.428 C  
HETATM   12  C   UNL     1     -12.070  11.348  69.791  1.00  0.00    -0.320 C  
HETATM   13  O   UNL     1     -12.362  10.859  68.666  1.00  0.00    -0.501 OA 
HETATM   14  O   UNL     1     -11.999  12.551  70.150  1.00  0.00    -0.347 OA 
ENDBRANCH   5  11
ENDBRANCH   4   5
ENDBRANCH   2   4
TORSDOF 5
ENDMDL
MODEL      117
REMARK 921   NORMALIZED FREE ENERGY PREDICTED BY IDOCK:   -2.76 KCAL/MOL
REMARK 922        TOTAL FREE ENERGY PREDICTED BY IDOCK:   -4.17 KCAL/MOL
REMARK 923 INTER-LIGAND FREE ENERGY PREDICTED BY IDOCK:   -3.68 KCAL/MOL
REMARK 924 INTRA-LIGAND FREE ENERGY PREDICTED BY IDOCK:   -0.50 KCAL/MOL
REMARK 927      BINDING AFFINITY PREDICTED BY RF-SCORE:    0.00 PKD
ROOT
HETATM    1  C   UNL     1     -12.442   9.163  71.903  1.00  0.00    -0.459 C  
HETATM    2  C   UNL     1     -12.779   7.807  71.355  1.00  0.00    -0.308 C  
HETATM    3  O   UNL     1     -13.859   7.253  71.470  1.00  0.00    -0.393 OA 
ENDROOT
BRANCH   2   4
HETATM    4  O   UNL     1     -11.716   7.331  70.663  1.00  0.00    -0.303 OA 
BRANCH   4   5
HETATM    5  C   UNL     1     -10.508   7.032  71.393  1.00  0.00    -0.208 C  
BRANCH   5   6
HETATM    6  C   UNL     1     -10.356   5.498  71.563  1.00  0.00    -0.222 C  
BRANCH   6   7
HETATM    7  N   UNL     1     -10.201   5.005  73.043  1.00  0.00    -0.168 N  
HETATM    8  C   UNL     1     -10.295   6.150  74.025  1.00  0.00    -0.300 C  
HETATM    9  C   UNL     1      -8.826   4.353  73.145  1.00  0.00    -0.107 C  
HETATM   10  C   UNL     1     -11.246   3.943  73.361  1.00  0.00    -0.199 C  
ENDBRANCH   6   7
ENDBRANCH   5   6
BRANCH   5  11
HETATM   11  C   UNL     1      -9.292   7.621  70.681  1.00  0.00    -0.163 C  
HETATM   12  C   UNL     1      -8.706   8.811  71.436  1.00  0.00    -0.214 C  
HETATM   13  O   UNL     1      -8.782   8.751  72.693  1.00  0.00    -0.408 OA 
HETATM   14  O   UNL     1      -8.329   9.758  70.699  1.00  0.00    -0.224 OA 
ENDBRANCH   5  11
ENDBRANCH   4   5
ENDBRANCH   2   4
TORSDOF 5
ENDMDL
MODEL      118
REMARK 921   NORMALIZED FREE ENERGY PREDICTED BY IDOCK:   -2.75 KCAL/MOL
REMARK 922        TOTAL FREE ENERGY PREDICTED BY IDOCK:   -4.16 KCAL/MOL
REMARK 923 INTER-LIGAND FREE ENERGY PREDICTED BY IDOCK:   -3.63 KCAL/MOL
REMARK 924 INTRA-LIGAND FREE ENERGY PREDICTED BY IDOCK:   -0.53 KCAL/MOL
REMARK 927      BINDING AFFINITY PREDICTED BY RF-SCORE:    0.00 PKD
ROOT
HETATM    1  C   UNL     1     -12.684   6.843  71.592  1.00  0.00    -0.396 C  
HETATM    2  C   UNL     1     -12.961   8.307  71.777  1.00  0.00    -0.344 C  
HETATM    3  O   UNL     1     -14.061   8.827  71.692  1.00  0.00    -0.401 OA 
ENDROOT
BRANCH   2   4
HETATM    4  O   UNL     1     -11.811   8.938  72.112  1.00  0.00    -0.361 OA 
BRANCH   4   5
HETATM    5  C   UNL     1     -10.678   8.803  71.229  1.00  0.00    -0.269 C  
BRANCH   5   6
HETATM    6  C   UNL     1     -10.595  10.029  70.282  1.00  0.00    -0.295 C  
BRANCH   6   7
HETATM    7  N   UNL     1     -10.107   9.712  68.826  1.00  0.00    -0.172 N  
HETATM    8  C   UNL     1      -8.662  10.108  68.624  1.00  0.00    -0.128 C  
HETATM    9  C   UNL     1     -10.996  10.515  67.883  1.00  0.00    -0.295 C  
HETATM   10  C   UNL     1     -10.304   8.235  68.509  1.00  0.00    -0.199 C  
ENDBRANCH   6   7
ENDBRANCH   5   6
BRANCH   5  11
HETATM   11  C   UNL     1      -9.388   8.651  72.032  1.00  0.00    -0.362 C  
HETATM   12  C   UNL     1      -9.019   7.186  72.251  1.00  0.00    -0.131 C  
HETATM   13  O   UNL     1      -9.320   6.401  71.311  1.00  0.00    -0.156 OA 
HETATM   14  O   UNL     1      -8.568   6.931  73.396  1.00  0.00    -0.122 OA 
ENDBRANCH   5  11
ENDBRANCH   4   5
ENDBRANCH   2   4
TORSDOF 5
ENDMDL
MODEL      119
REMARK 921   NORMALIZED FREE ENERGY PREDICTED BY IDOCK:   -2.74 KCAL/MOL
REMARK 922        TOTAL FREE ENERGY PREDICTED BY IDOCK:   -4.15 KCAL/MOL
REMARK 923 INTER-LIGAND FREE ENERGY PREDICTED BY IDOCK:   -3.64 KCAL/MOL
REMARK 924 INTRA-LIGAND FREE ENERGY PREDICTED BY IDOCK:   -0.51 KCAL/MOL
REMARK 927      BINDING AFFINITY PREDICTED BY RF-SCORE:    0.00 PKD
ROOT
HETATM    1  C   UNL     1     -13.429   9.405  72.174  1.00  0.00    -0.543 C  
HETATM    2  C   UNL     1     -12.139   9.099  71.467  1.00  0.00    -0.351 C  
HETATM    3  O   UNL     1     -11.364   9.934  71.032  1.00  0.00    -0.342 OA 
ENDROOT
BRANCH   2   4
HETATM    4  O   UNL     1     -11.950   7.758  71.450  1.00  0.00    -0.291 OA 
BRANCH   4   5
HETATM    5  C   UNL     1     -10.707   7.253  70.921  1.00  0.00    -0.234 C  
BRANCH   5   6
HETATM    6  C   UNL     1     -10.081   6.239  71.912  1.00  0.00    -0.181 C  
BRANCH   6   7
HETATM    7  N   UNL     1      -9.154   6.866  73.010  1.00  0.00    -0.126 N  
HETATM    8  C   UNL     1      -8.764   8.286  72.665  1.00  0.00    -0.224 C  
HETATM    9  C   UNL     1      -7.905   5.994  73.079  1.00  0.00    -0.105 C  
HETATM   10  C   UNL     1      -9.834   6.816  74.372  1.00  0.00    -0.286 C  
ENDBRANCH   6   7
ENDBRANCH   5   6
BRANCH   5  11
HETATM   11  C   UNL     1     -10.929   6.609  69.554  1.00  0.00    -0.367 C  
HETATM   12  C   UNL     1     -10.238   7.385  68.435  1.00  0.00    -0.183 C  
HETATM   13  O   UNL     1      -9.149   7.938  68.746  1.00  0.00    -0.141 OA 
HETATM   14  O   UNL     1     -10.909   7.472  67.375  1.00  0.00    -0.267 OA 
ENDBRANCH   5  11
ENDBRANCH   4   5
ENDBRANCH   2   4
TORSDOF 5
ENDMDL
MODEL      120
REMARK 921   NORMALIZED FREE ENERGY PREDICTED BY IDOCK:   -2.74 KCAL/MOL
REMARK 922        TOTAL FREE ENERGY PREDICTED BY IDOCK:   -4.15 KCAL/MOL
REMARK 923 INTER-LIGAND FREE ENERGY PREDICTED BY IDOCK:   -4.07 KCAL/MOL
REMARK 924 INTRA-LIGAND FREE ENERGY PREDICTED BY IDOCK:   -0.08 KCAL/MOL
REMARK 927      BINDING AFFINITY PREDICTED BY RF-SCORE:    0.00 PKD
ROOT
HETATM    1  C   UNL     1     -11.813  12.995  67.894  1.00  0.00    -0.389 C  
HETATM    2  C   UNL     1     -11.947  14.130  68.867  1.00  0.00    -0.341 C  
HETATM    3  O   UNL     1     -12.140  14.007  70.064  1.00  0.00    -0.307 OA 
ENDROOT
BRANCH   2   4
HETATM    4  O   UNL     1     -11.757  15.301  68.212  1.00  0.00    -0.343 OA 
BRANCH   4   5
HETATM    5  C   UNL     1     -10.430  15.865  68.199  1.00  0.00    -0.270 C  
BRANCH   5   6
HETATM    6  C   UNL     1     -10.461  17.309  68.763  1.00  0.00    -0.340 C  
BRANCH   6   7
HETATM    7  N   UNL     1      -9.761  18.389  67.868  1.00  0.00    -0.297 N  
HETATM    8  C   UNL     1      -9.809  18.015  66.404  1.00  0.00    -0.340 C  
HETATM    9  C   UNL     1      -8.310  18.467  68.330  1.00  0.00    -0.308 C  
HETATM   10  C   UNL     1     -10.396  19.756  68.090  1.00  0.00    -0.431 C  
ENDBRANCH   6   7
ENDBRANCH   5   6
BRANCH   5  11
HETATM   11  C   UNL     1      -9.467  14.991  69.000  1.00  0.00    -0.210 C  
HETATM   12  C   UNL     1      -8.344  14.430  68.132  1.00  0.00    -0.158 C  
HETATM   13  O   UNL     1      -7.948  15.181  67.200  1.00  0.00    -0.193 OA 
HETATM   14  O   UNL     1      -8.039  13.237  68.387  1.00  0.00    -0.145 OA 
ENDBRANCH   5  11
ENDBRANCH   4   5
ENDBRANCH   2   4
TORSDOF 5
ENDMDL
MODEL      121
REMARK 921   NORMALIZED FREE ENERGY PREDICTED BY IDOCK:   -2.72 KCAL/MOL
REMARK 922        TOTAL FREE ENERGY PREDICTED BY IDOCK:   -4.12 KCAL/MOL
REMARK 923 INTER-LIGAND FREE ENERGY PREDICTED BY IDOCK:   -4.17 KCAL/MOL
REMARK 924 INTRA-LIGAND FREE ENERGY PREDICTED BY IDOCK:    0.05 KCAL/MOL
REMARK 927      BINDING AFFINITY PREDICTED BY RF-SCORE:    0.00 PKD
ROOT
HETATM    1  C   UNL     1     -11.159  15.938  64.799  1.00  0.00    -0.397 C  
HETATM    2  C   UNL     1     -10.085  15.310  65.640  1.00  0.00    -0.371 C  
HETATM    3  O   UNL     1     -10.107  14.166  66.063  1.00  0.00    -0.294 OA 
ENDROOT
BRANCH   2   4
HETATM    4  O   UNL     1      -9.070  16.193  65.796  1.00  0.00    -0.398 OA 
BRANCH   4   5
HETATM    5  C   UNL     1      -8.921  16.837  67.078  1.00  0.00    -0.206 C  
BRANCH   5   6
HETATM    6  C   UNL     1     -10.106  17.806  67.326  1.00  0.00    -0.337 C  
BRANCH   6   7
HETATM    7  N   UNL     1      -9.799  19.318  67.048  1.00  0.00    -0.323 N  
HETATM    8  C   UNL     1     -10.224  20.194  68.204  1.00  0.00    -0.339 C  
HETATM    9  C   UNL     1     -10.584  19.701  65.798  1.00  0.00    -0.438 C  
HETATM   10  C   UNL     1      -8.318  19.513  66.747  1.00  0.00    -0.300 C  
ENDBRANCH   6   7
ENDBRANCH   5   6
BRANCH   5  11
HETATM   11  C   UNL     1      -8.828  15.798  68.193  1.00  0.00    -0.178 C  
HETATM   12  C   UNL     1      -7.644  16.057  69.121  1.00  0.00    -0.225 C  
HETATM   13  O   UNL     1      -7.353  17.270  69.309  1.00  0.00    -0.201 OA 
HETATM   14  O   UNL     1      -7.034  15.019  69.485  1.00  0.00    -0.160 OA 
ENDBRANCH   5  11
ENDBRANCH   4   5
ENDBRANCH   2   4
TORSDOF 5
ENDMDL
MODEL      122
REMARK 921   NORMALIZED FREE ENERGY PREDICTED BY IDOCK:   -2.71 KCAL/MOL
REMARK 922        TOTAL FREE ENERGY PREDICTED BY IDOCK:   -4.11 KCAL/MOL
REMARK 923 INTER-LIGAND FREE ENERGY PREDICTED BY IDOCK:   -3.59 KCAL/MOL
REMARK 924 INTRA-LIGAND FREE ENERGY PREDICTED BY IDOCK:   -0.52 KCAL/MOL
REMARK 927      BINDING AFFINITY PREDICTED BY RF-SCORE:    0.00 PKD
ROOT
HETATM    1  C   UNL     1      -8.375  15.564  66.817  1.00  0.00    -0.301 C  
HETATM    2  C   UNL     1      -8.489  14.387  67.743  1.00  0.00    -0.173 C  
HETATM    3  O   UNL     1      -8.564  14.457  68.958  1.00  0.00    -0.111 OA 
ENDROOT
BRANCH   2   4
HETATM    4  O   UNL     1      -8.559  13.250  67.010  1.00  0.00    -0.208 OA 
BRANCH   4   5
HETATM    5  C   UNL     1      -9.859  12.668  66.781  1.00  0.00    -0.235 C  
BRANCH   5   6
HETATM    6  C   UNL     1     -10.217  12.745  65.274  1.00  0.00    -0.279 C  
BRANCH   6   7
HETATM    7  N   UNL     1     -11.462  13.634  64.931  1.00  0.00    -0.328 N  
HETATM    8  C   UNL     1     -12.253  13.063  63.776  1.00  0.00    -0.460 C  
HETATM    9  C   UNL     1     -10.925  15.011  64.554  1.00  0.00    -0.191 C  
HETATM   10  C   UNL     1     -12.351  13.799  66.157  1.00  0.00    -0.452 C  
ENDBRANCH   6   7
ENDBRANCH   5   6
BRANCH   5  11
HETATM   11  C   UNL     1      -9.892  11.222  67.272  1.00  0.00    -0.203 C  
HETATM   12  C   UNL     1     -10.281  11.125  68.745  1.00  0.00    -0.206 C  
HETATM   13  O   UNL     1     -11.106  11.990  69.149  1.00  0.00    -0.232 OA 
HETATM   14  O   UNL     1      -9.634  10.266  69.396  1.00  0.00    -0.213 OA 
ENDBRANCH   5  11
ENDBRANCH   4   5
ENDBRANCH   2   4
TORSDOF 5
ENDMDL
MODEL      123
REMARK 921   NORMALIZED FREE ENERGY PREDICTED BY IDOCK:   -2.71 KCAL/MOL
REMARK 922        TOTAL FREE ENERGY PREDICTED BY IDOCK:   -4.11 KCAL/MOL
REMARK 923 INTER-LIGAND FREE ENERGY PREDICTED BY IDOCK:   -3.53 KCAL/MOL
REMARK 924 INTRA-LIGAND FREE ENERGY PREDICTED BY IDOCK:   -0.58 KCAL/MOL
REMARK 927      BINDING AFFINITY PREDICTED BY RF-SCORE:    0.00 PKD
ROOT
HETATM    1  C   UNL     1     -11.034   6.688  67.550  1.00  0.00    -0.416 C  
HETATM    2  C   UNL     1     -10.078   7.843  67.638  1.00  0.00    -0.203 C  
HETATM    3  O   UNL     1     -10.001   8.751  66.828  1.00  0.00    -0.218 OA 
ENDROOT
BRANCH   2   4
HETATM    4  O   UNL     1      -9.366   7.744  68.785  1.00  0.00    -0.146 OA 
BRANCH   4   5
HETATM    5  C   UNL     1     -10.015   8.106  70.022  1.00  0.00    -0.192 C  
BRANCH   5   6
HETATM    6  C   UNL     1      -9.426   7.277  71.193  1.00  0.00    -0.156 C  
BRANCH   6   7
HETATM    7  N   UNL     1     -10.486   6.589  72.120  1.00  0.00    -0.203 N  
HETATM    8  C   UNL     1     -11.776   6.313  71.382  1.00  0.00    -0.254 C  
HETATM    9  C   UNL     1     -10.750   7.552  73.273  1.00  0.00    -0.382 C  
HETATM   10  C   UNL     1      -9.922   5.301  72.707  1.00  0.00    -0.160 C  
ENDBRANCH   6   7
ENDBRANCH   5   6
BRANCH   5  11
HETATM   11  C   UNL     1      -9.864   9.603  70.288  1.00  0.00    -0.321 C  
HETATM   12  C   UNL     1     -11.215  10.310  70.366  1.00  0.00    -0.332 C  
HETATM   13  O   UNL     1     -12.158   9.633  70.859  1.00  0.00    -0.293 OA 
HETATM   14  O   UNL     1     -11.241  11.440  69.815  1.00  0.00    -0.251 OA 
ENDBRANCH   5  11
ENDBRANCH   4   5
ENDBRANCH   2   4
TORSDOF 5
ENDMDL
MODEL      124
REMARK 921   NORMALIZED FREE ENERGY PREDICTED BY IDOCK:   -2.69 KCAL/MOL
REMARK 922        TOTAL FREE ENERGY PREDICTED BY IDOCK:   -4.09 KCAL/MOL
REMARK 923 INTER-LIGAND FREE ENERGY PREDICTED BY IDOCK:   -3.57 KCAL/MOL
REMARK 924 INTRA-LIGAND FREE ENERGY PREDICTED BY IDOCK:   -0.51 KCAL/MOL
REMARK 927      BINDING AFFINITY PREDICTED BY RF-SCORE:    0.00 PKD
ROOT
HETATM    1  C   UNL     1     -10.351  10.147  69.466  1.00  0.00    -0.263 C  
HETATM    2  C   UNL     1     -10.996  11.376  68.894  1.00  0.00    -0.226 C  
HETATM    3  O   UNL     1     -12.166  11.461  68.558  1.00  0.00    -0.557 OA 
ENDROOT
BRANCH   2   4
HETATM    4  O   UNL     1     -10.092  12.384  68.872  1.00  0.00    -0.111 OA 
BRANCH   4   5
HETATM    5  C   UNL     1      -9.817  13.024  67.609  1.00  0.00    -0.212 C  
BRANCH   5   6
HETATM    6  C   UNL     1      -9.279  14.459  67.847  1.00  0.00    -0.195 C  
BRANCH   6   7
HETATM    7  N   UNL     1     -10.251  15.613  67.420  1.00  0.00    -0.259 N  
HETATM    8  C   UNL     1     -11.587  15.504  68.119  1.00  0.00    -0.304 C  
HETATM    9  C   UNL     1     -10.449  15.483  65.913  1.00  0.00    -0.342 C  
HETATM   10  C   UNL     1      -9.616  16.970  67.693  1.00  0.00    -0.249 C  
ENDBRANCH   6   7
ENDBRANCH   5   6
BRANCH   5  11
HETATM   11  C   UNL     1      -8.820  12.200  66.796  1.00  0.00    -0.198 C  
HETATM   12  C   UNL     1      -9.498  11.440  65.658  1.00  0.00    -0.230 C  
HETATM   13  O   UNL     1     -10.480  12.022  65.123  1.00  0.00    -0.268 OA 
HETATM   14  O   UNL     1      -9.060  10.275  65.480  1.00  0.00    -0.158 OA 
ENDBRANCH   5  11
ENDBRANCH   4   5
ENDBRANCH   2   4
TORSDOF 5
ENDMDL
MODEL      125
REMARK 921   NORMALIZED FREE ENERGY PREDICTED BY IDOCK:   -2.67 KCAL/MOL
REMARK 922        TOTAL FREE ENERGY PREDICTED BY IDOCK:   -4.06 KCAL/MOL
REMARK 923 INTER-LIGAND FREE ENERGY PREDICTED BY IDOCK:   -3.39 KCAL/MOL
REMARK 924 INTRA-LIGAND FREE ENERGY PREDICTED BY IDOCK:   -0.67 KCAL/MOL
REMARK 927      BINDING AFFINITY PREDICTED BY RF-SCORE:    0.00 PKD
ROOT
HETATM    1  C   UNL     1      -8.624   5.812  70.004  1.00  0.00    -0.128 C  
HETATM    2  C   UNL     1      -9.978   5.695  69.366  1.00  0.00    -0.197 C  
HETATM    3  O   UNL     1     -10.201   5.807  68.172  1.00  0.00    -0.159 OA 
ENDROOT
BRANCH   2   4
HETATM    4  O   UNL     1     -10.892   5.384  70.316  1.00  0.00    -0.266 OA 
BRANCH   4   5
HETATM    5  C   UNL     1     -11.069   6.300  71.416  1.00  0.00    -0.284 C  
BRANCH   5   6
HETATM    6  C   UNL     1     -11.968   7.486  70.980  1.00  0.00    -0.290 C  
BRANCH   6   7
HETATM    7  N   UNL     1     -11.259   8.884  70.949  1.00  0.00    -0.266 N  
HETATM    8  C   UNL     1     -10.722   9.206  69.573  1.00  0.00    -0.215 C  
HETATM    9  C   UNL     1     -10.106   8.811  71.945  1.00  0.00    -0.339 C  
HETATM   10  C   UNL     1     -12.213   9.974  71.418  1.00  0.00    -0.416 C  
ENDBRANCH   6   7
ENDBRANCH   5   6
BRANCH   5  11
HETATM   11  C   UNL     1     -11.668   5.580  72.622  1.00  0.00    -0.240 C  
HETATM   12  C   UNL     1     -10.623   4.767  73.382  1.00  0.00    -0.232 C  
HETATM   13  O   UNL     1      -9.461   5.255  73.402  1.00  0.00    -0.137 OA 
HETATM   14  O   UNL     1     -11.032   3.650  73.789  1.00  0.00    -0.220 OA 
ENDBRANCH   5  11
ENDBRANCH   4   5
ENDBRANCH   2   4
TORSDOF 5
ENDMDL
MODEL      126
REMARK 921   NORMALIZED FREE ENERGY PREDICTED BY IDOCK:   -2.66 KCAL/MOL
REMARK 922        TOTAL FREE ENERGY PREDICTED BY IDOCK:   -4.04 KCAL/MOL
REMARK 923 INTER-LIGAND FREE ENERGY PREDICTED BY IDOCK:   -3.75 KCAL/MOL
REMARK 924 INTRA-LIGAND FREE ENERGY PREDICTED BY IDOCK:   -0.29 KCAL/MOL
REMARK 927      BINDING AFFINITY PREDICTED BY RF-SCORE:    0.00 PKD
ROOT
HETATM    1  C   UNL     1     -11.207  14.109  68.251  1.00  0.00    -0.295 C  
HETATM    2  C   UNL     1     -10.812  15.474  68.735  1.00  0.00    -0.256 C  
HETATM    3  O   UNL     1     -10.373  15.723  69.845  1.00  0.00    -0.294 OA 
ENDROOT
BRANCH   2   4
HETATM    4  O   UNL     1     -10.962  16.364  67.725  1.00  0.00    -0.325 OA 
BRANCH   4   5
HETATM    5  C   UNL     1      -9.788  17.051  67.243  1.00  0.00    -0.260 C  
BRANCH   5   6
HETATM    6  C   UNL     1      -8.710  16.022  66.814  1.00  0.00    -0.253 C  
BRANCH   6   7
HETATM    7  N   UNL     1      -7.344  16.132  67.576  1.00  0.00    -0.144 N  
HETATM    8  C   UNL     1      -6.827  14.774  67.991  1.00  0.00    -0.140 C  
HETATM    9  C   UNL     1      -7.601  16.985  68.813  1.00  0.00    -0.243 C  
HETATM   10  C   UNL     1      -6.314  16.855  66.716  1.00  0.00    -0.204 C  
ENDBRANCH   6   7
ENDBRANCH   5   6
BRANCH   5  11
HETATM   11  C   UNL     1     -10.148  17.976  66.082  1.00  0.00    -0.334 C  
HETATM   12  C   UNL     1      -9.991  19.448  66.453  1.00  0.00    -0.414 C  
HETATM   13  O   UNL     1      -9.056  19.713  67.256  1.00  0.00    -0.298 OA 
HETATM   14  O   UNL     1     -10.896  20.195  66.001  1.00  0.00    -0.295 OA 
ENDBRANCH   5  11
ENDBRANCH   4   5
ENDBRANCH   2   4
TORSDOF 5
ENDMDL
MODEL      127
REMARK 921   NORMALIZED FREE ENERGY PREDICTED BY IDOCK:   -2.64 KCAL/MOL
REMARK 922        TOTAL FREE ENERGY PREDICTED BY IDOCK:   -4.02 KCAL/MOL
REMARK 923 INTER-LIGAND FREE ENERGY PREDICTED BY IDOCK:   -3.45 KCAL/MOL
REMARK 924 INTRA-LIGAND FREE ENERGY PREDICTED BY IDOCK:   -0.57 KCAL/MOL
REMARK 927      BINDING AFFINITY PREDICTED BY RF-SCORE:    0.00 PKD
ROOT
HETATM    1  C   UNL     1     -11.585  12.178  69.313  1.00  0.00    -0.377 C  
HETATM    2  C   UNL     1     -11.884  11.572  67.972  1.00  0.00    -0.217 C  
HETATM    3  O   UNL     1     -12.160  12.202  66.965  1.00  0.00    -0.591 OA 
ENDROOT
BRANCH   2   4
HETATM    4  O   UNL     1     -11.734  10.228  68.048  1.00  0.00    -0.293 OA 
BRANCH   4   5
HETATM    5  C   UNL     1     -10.432   9.706  68.382  1.00  0.00    -0.223 C  
BRANCH   5   6
HETATM    6  C   UNL     1     -10.531   8.190  68.691  1.00  0.00    -0.165 C  
BRANCH   6   7
HETATM    7  N   UNL     1     -10.435   7.812  70.210  1.00  0.00    -0.220 N  
HETATM    8  C   UNL     1     -10.198   9.030  71.073  1.00  0.00    -0.277 C  
HETATM    9  C   UNL     1      -9.260   6.849  70.347  1.00  0.00    -0.156 C  
HETATM   10  C   UNL     1     -11.694   7.078  70.655  1.00  0.00    -0.338 C  
ENDBRANCH   6   7
ENDBRANCH   5   6
BRANCH   5  11
HETATM   11  C   UNL     1      -9.443   9.964  67.247  1.00  0.00    -0.181 C  
HETATM   12  C   UNL     1      -8.367  10.972  67.642  1.00  0.00    -0.117 C  
HETATM   13  O   UNL     1      -8.007  10.941  68.850  1.00  0.00    -0.133 OA 
HETATM   14  O   UNL     1      -8.064  11.788  66.735  1.00  0.00    -0.166 OA 
ENDBRANCH   5  11
ENDBRANCH   4   5
ENDBRANCH   2   4
TORSDOF 5
ENDMDL
MODEL      128
REMARK 921   NORMALIZED FREE ENERGY PREDICTED BY IDOCK:   -2.63 KCAL/MOL
REMARK 922        TOTAL FREE ENERGY PREDICTED BY IDOCK:   -4.00 KCAL/MOL
REMARK 923 INTER-LIGAND FREE ENERGY PREDICTED BY IDOCK:   -3.47 KCAL/MOL
REMARK 924 INTRA-LIGAND FREE ENERGY PREDICTED BY IDOCK:   -0.54 KCAL/MOL
REMARK 927      BINDING AFFINITY PREDICTED BY RF-SCORE:    0.00 PKD
ROOT
HETATM    1  C   UNL     1     -13.147   9.198  72.029  1.00  0.00    -0.497 C  
HETATM    2  C   UNL     1     -12.024   9.475  71.073  1.00  0.00    -0.328 C  
HETATM    3  O   UNL     1     -11.588  10.583  70.806  1.00  0.00    -0.333 OA 
ENDROOT
BRANCH   2   4
HETATM    4  O   UNL     1     -11.536   8.300  70.608  1.00  0.00    -0.274 OA 
BRANCH   4   5
HETATM    5  C   UNL     1     -10.226   7.886  71.049  1.00  0.00    -0.197 C  
BRANCH   5   6
HETATM    6  C   UNL     1     -10.205   6.352  71.279  1.00  0.00    -0.200 C  
BRANCH   6   7
HETATM    7  N   UNL     1     -10.371   5.901  72.771  1.00  0.00    -0.188 N  
HETATM    8  C   UNL     1     -11.718   5.257  73.011  1.00  0.00    -0.141 C  
HETATM    9  C   UNL     1     -10.243   7.157  73.625  1.00  0.00    -0.359 C  
HETATM   10  C   UNL     1      -9.248   4.950  73.167  1.00  0.00    -0.118 C  
ENDBRANCH   6   7
ENDBRANCH   5   6
BRANCH   5  11
HETATM   11  C   UNL     1      -9.164   8.296  70.032  1.00  0.00    -0.151 C  
HETATM   12  C   UNL     1      -8.135   9.252  70.631  1.00  0.00    -0.176 C  
HETATM   13  O   UNL     1      -7.861   9.066  71.848  1.00  0.00    -0.345 OA 
HETATM   14  O   UNL     1      -7.781  10.181  69.861  1.00  0.00    -0.160 OA 
ENDBRANCH   5  11
ENDBRANCH   4   5
ENDBRANCH   2   4
TORSDOF 5
ENDMDL
MODEL      129
REMARK 921   NORMALIZED FREE ENERGY PREDICTED BY IDOCK:   -2.60 KCAL/MOL
REMARK 922        TOTAL FREE ENERGY PREDICTED BY IDOCK:   -3.97 KCAL/MOL
REMARK 923 INTER-LIGAND FREE ENERGY PREDICTED BY IDOCK:   -3.30 KCAL/MOL
REMARK 924 INTRA-LIGAND FREE ENERGY PREDICTED BY IDOCK:   -0.67 KCAL/MOL
REMARK 927      BINDING AFFINITY PREDICTED BY RF-SCORE:    0.00 PKD
ROOT
HETATM    1  C   UNL     1      -7.985   5.800  71.573  1.00  0.00    -0.113 C  
HETATM    2  C   UNL     1      -8.497   6.041  70.182  1.00  0.00    -0.127 C  
HETATM    3  O   UNL     1      -8.744   5.170  69.366  1.00  0.00    -0.097 OA 
ENDROOT
BRANCH   2   4
HETATM    4  O   UNL     1      -8.697   7.369  70.007  1.00  0.00    -0.139 OA 
BRANCH   4   5
HETATM    5  C   UNL     1     -10.041   7.827  69.751  1.00  0.00    -0.194 C  
BRANCH   5   6
HETATM    6  C   UNL     1     -10.541   8.692  70.937  1.00  0.00    -0.214 C  
BRANCH   6   7
HETATM    7  N   UNL     1     -11.564   7.984  71.892  1.00  0.00    -0.281 N  
HETATM    8  C   UNL     1     -10.899   7.503  73.162  1.00  0.00    -0.395 C  
HETATM    9  C   UNL     1     -12.127   6.793  71.124  1.00  0.00    -0.370 C  
HETATM   10  C   UNL     1     -12.721   8.919  72.218  1.00  0.00    -0.397 C  
ENDBRANCH   6   7
ENDBRANCH   5   6
BRANCH   5  11
HETATM   11  C   UNL     1     -10.099   8.614  68.444  1.00  0.00    -0.217 C  
HETATM   12  C   UNL     1     -10.474   7.729  67.258  1.00  0.00    -0.322 C  
HETATM   13  O   UNL     1     -11.275   6.789  67.510  1.00  0.00    -0.287 OA 
HETATM   14  O   UNL     1      -9.839   7.981  66.202  1.00  0.00    -0.146 OA 
ENDBRANCH   5  11
ENDBRANCH   4   5
ENDBRANCH   2   4
TORSDOF 5
ENDMDL
MODEL      130
REMARK 921   NORMALIZED FREE ENERGY PREDICTED BY IDOCK:   -2.59 KCAL/MOL
REMARK 922        TOTAL FREE ENERGY PREDICTED BY IDOCK:   -3.96 KCAL/MOL
REMARK 923 INTER-LIGAND FREE ENERGY PREDICTED BY IDOCK:   -3.43 KCAL/MOL
REMARK 924 INTRA-LIGAND FREE ENERGY PREDICTED BY IDOCK:   -0.52 KCAL/MOL
REMARK 927      BINDING AFFINITY PREDICTED BY RF-SCORE:    0.00 PKD
ROOT
HETATM    1  C   UNL     1      -9.502   8.752  69.159  1.00  0.00    -0.157 C  
HETATM    2  C   UNL     1      -9.057   9.296  70.486  1.00  0.00    -0.259 C  
HETATM    3  O   UNL     1      -7.976   9.817  70.702  1.00  0.00    -0.272 OA 
ENDROOT
BRANCH   2   4
HETATM    4  O   UNL     1     -10.068   9.171  71.378  1.00  0.00    -0.305 OA 
BRANCH   4   5
HETATM    5  C   UNL     1     -10.176   7.936  72.116  1.00  0.00    -0.227 C  
BRANCH   5   6
HETATM    6  C   UNL     1      -9.195   7.948  73.317  1.00  0.00    -0.282 C  
BRANCH   6   7
HETATM    7  N   UNL     1      -8.282   6.680  73.442  1.00  0.00    -0.117 N  
HETATM    8  C   UNL     1      -7.990   6.068  72.091  1.00  0.00    -0.106 C  
HETATM    9  C   UNL     1      -9.040   5.679  74.307  1.00  0.00    -0.123 C  
HETATM   10  C   UNL     1      -6.984   7.029  74.161  1.00  0.00    -0.085 C  
ENDBRANCH   6   7
ENDBRANCH   5   6
BRANCH   5  11
HETATM   11  C   UNL     1     -11.612   7.720  72.591  1.00  0.00    -0.398 C  
HETATM   12  C   UNL     1     -12.558   7.412  71.433  1.00  0.00    -0.370 C  
HETATM   13  O   UNL     1     -12.060   6.751  70.482  1.00  0.00    -0.386 OA 
HETATM   14  O   UNL     1     -13.685   7.963  71.525  1.00  0.00    -0.348 OA 
ENDBRANCH   5  11
ENDBRANCH   4   5
ENDBRANCH   2   4
TORSDOF 5
ENDMDL
MODEL      131
REMARK 921   NORMALIZED FREE ENERGY PREDICTED BY IDOCK:   -2.59 KCAL/MOL
REMARK 922        TOTAL FREE ENERGY PREDICTED BY IDOCK:   -3.95 KCAL/MOL
REMARK 923 INTER-LIGAND FREE ENERGY PREDICTED BY IDOCK:   -3.39 KCAL/MOL
REMARK 924 INTRA-LIGAND FREE ENERGY PREDICTED BY IDOCK:   -0.56 KCAL/MOL
REMARK 927      BINDING AFFINITY PREDICTED BY RF-SCORE:    0.00 PKD
ROOT
HETATM    1  C   UNL     1     -13.990   7.380  71.568  1.00  0.00    -0.517 C  
HETATM    2  C   UNL     1     -12.572   6.887  71.568  1.00  0.00    -0.367 C  
HETATM    3  O   UNL     1     -11.948   6.550  72.561  1.00  0.00    -0.198 OA 
ENDROOT
BRANCH   2   4
HETATM    4  O   UNL     1     -12.125   6.818  70.292  1.00  0.00    -0.328 OA 
BRANCH   4   5
HETATM    5  C   UNL     1     -10.767   7.223  70.023  1.00  0.00    -0.245 C  
BRANCH   5   6
HETATM    6  C   UNL     1     -10.106   6.236  69.026  1.00  0.00    -0.172 C  
BRANCH   6   7
HETATM    7  N   UNL     1      -8.897   5.419  69.600  1.00  0.00    -0.108 N  
HETATM    8  C   UNL     1      -8.694   5.687  71.074  1.00  0.00    -0.134 C  
HETATM    9  C   UNL     1      -7.662   5.861  68.822  1.00  0.00    -0.091 C  
HETATM   10  C   UNL     1      -9.097   3.929  69.352  1.00  0.00    -0.131 C  
ENDBRANCH   6   7
ENDBRANCH   5   6
BRANCH   5  11
HETATM   11  C   UNL     1     -10.730   8.649  69.479  1.00  0.00    -0.189 C  
HETATM   12  C   UNL     1     -10.600   9.685  70.592  1.00  0.00    -0.319 C  
HETATM   13  O   UNL     1      -9.915   9.331  71.590  1.00  0.00    -0.294 OA 
HETATM   14  O   UNL     1     -11.296  10.718  70.422  1.00  0.00    -0.301 OA 
ENDBRANCH   5  11
ENDBRANCH   4   5
ENDBRANCH   2   4
TORSDOF 5
ENDMDL
MODEL      132
REMARK 921   NORMALIZED FREE ENERGY PREDICTED BY IDOCK:   -2.56 KCAL/MOL
REMARK 922        TOTAL FREE ENERGY PREDICTED BY IDOCK:   -3.91 KCAL/MOL
REMARK 923 INTER-LIGAND FREE ENERGY PREDICTED BY IDOCK:   -4.02 KCAL/MOL
REMARK 924 INTRA-LIGAND FREE ENERGY PREDICTED BY IDOCK:    0.10 KCAL/MOL
REMARK 927      BINDING AFFINITY PREDICTED BY RF-SCORE:    0.00 PKD
ROOT
HETATM    1  C   UNL     1      -9.062   8.229  72.815  1.00  0.00    -0.332 C  
HETATM    2  C   UNL     1     -10.537   8.297  72.545  1.00  0.00    -0.337 C  
HETATM    3  O   UNL     1     -11.380   7.596  73.079  1.00  0.00    -0.372 OA 
ENDROOT
BRANCH   2   4
HETATM    4  O   UNL     1     -10.782   9.297  71.665  1.00  0.00    -0.354 OA 
BRANCH   4   5
HETATM    5  C   UNL     1     -10.316   9.140  70.309  1.00  0.00    -0.214 C  
BRANCH   5   6
HETATM    6  C   UNL     1     -11.105   8.007  69.605  1.00  0.00    -0.015 C  
BRANCH   6   7
HETATM    7  N   UNL     1     -10.234   6.805  69.099  1.00  0.00    -0.174 N  
HETATM    8  C   UNL     1     -10.492   6.505  67.640  1.00  0.00    -0.230 C  
HETATM    9  C   UNL     1     -10.620   5.598  69.948  1.00  0.00    -0.328 C  
HETATM   10  C   UNL     1      -8.755   7.085  69.333  1.00  0.00    -0.133 C  
ENDBRANCH   6   7
ENDBRANCH   5   6
BRANCH   5  11
HETATM   11  C   UNL     1     -10.451  10.453  69.541  1.00  0.00    -0.274 C  
HETATM   12  C   UNL     1     -11.908  10.889  69.402  1.00  0.00    -0.328 C  
HETATM   13  O   UNL     1     -12.659  10.600  70.372  1.00  0.00    -0.335 OA 
HETATM   14  O   UNL     1     -12.198  11.375  68.279  1.00  0.00    -0.588 OA 
ENDBRANCH   5  11
ENDBRANCH   4   5
ENDBRANCH   2   4
TORSDOF 5
ENDMDL
MODEL      133
REMARK 921   NORMALIZED FREE ENERGY PREDICTED BY IDOCK:   -2.56 KCAL/MOL
REMARK 922        TOTAL FREE ENERGY PREDICTED BY IDOCK:   -3.91 KCAL/MOL
REMARK 923 INTER-LIGAND FREE ENERGY PREDICTED BY IDOCK:   -4.20 KCAL/MOL
REMARK 924 INTRA-LIGAND FREE ENERGY PREDICTED BY IDOCK:    0.28 KCAL/MOL
REMARK 927      BINDING AFFINITY PREDICTED BY RF-SCORE:    0.00 PKD
ROOT
HETATM    1  C   UNL     1     -12.590  13.809  65.527  1.00  0.00    -0.551 C  
HETATM    2  C   UNL     1     -11.495  14.836  65.498  1.00  0.00    -0.329 C  
HETATM    3  O   UNL     1     -10.941  15.241  64.490  1.00  0.00    -0.334 OA 
ENDROOT
BRANCH   2   4
HETATM    4  O   UNL     1     -11.269  15.281  66.757  1.00  0.00    -0.317 OA 
BRANCH   4   5
HETATM    5  C   UNL     1     -10.053  16.013  67.012  1.00  0.00    -0.271 C  
BRANCH   5   6
HETATM    6  C   UNL     1      -8.823  15.145  66.637  1.00  0.00    -0.286 C  
BRANCH   6   7
HETATM    7  N   UNL     1      -7.788  14.923  67.794  1.00  0.00    -0.138 N  
HETATM    8  C   UNL     1      -6.623  15.881  67.689  1.00  0.00    -0.172 C  
HETATM    9  C   UNL     1      -7.287  13.489  67.663  1.00  0.00    -0.174 C  
HETATM   10  C   UNL     1      -8.469  15.058  69.150  1.00  0.00    -0.192 C  
ENDBRANCH   6   7
ENDBRANCH   5   6
BRANCH   5  11
HETATM   11  C   UNL     1     -10.045  17.328  66.236  1.00  0.00    -0.323 C  
HETATM   12  C   UNL     1     -10.155  18.539  67.158  1.00  0.00    -0.353 C  
HETATM   13  O   UNL     1      -9.595  18.421  68.282  1.00  0.00    -0.304 OA 
HETATM   14  O   UNL     1     -10.895  19.457  66.722  1.00  0.00    -0.454 OA 
ENDBRANCH   5  11
ENDBRANCH   4   5
ENDBRANCH   2   4
TORSDOF 5
ENDMDL
MODEL      134
REMARK 921   NORMALIZED FREE ENERGY PREDICTED BY IDOCK:   -2.55 KCAL/MOL
REMARK 922        TOTAL FREE ENERGY PREDICTED BY IDOCK:   -3.90 KCAL/MOL
REMARK 923 INTER-LIGAND FREE ENERGY PREDICTED BY IDOCK:   -3.33 KCAL/MOL
REMARK 924 INTRA-LIGAND FREE ENERGY PREDICTED BY IDOCK:   -0.58 KCAL/MOL
REMARK 927      BINDING AFFINITY PREDICTED BY RF-SCORE:    0.00 PKD
ROOT
HETATM    1  C   UNL     1      -7.746   8.127  71.011  1.00  0.00    -0.088 C  
HETATM    2  C   UNL     1      -8.916   8.032  71.948  1.00  0.00    -0.149 C  
HETATM    3  O   UNL     1      -9.067   8.710  72.950  1.00  0.00    -0.314 OA 
ENDROOT
BRANCH   2   4
HETATM    4  O   UNL     1      -9.797   7.123  71.467  1.00  0.00    -0.172 OA 
BRANCH   4   5
HETATM    5  C   UNL     1     -10.740   7.554  70.463  1.00  0.00    -0.235 C  
BRANCH   5   6
HETATM    6  C   UNL     1     -10.869   6.475  69.358  1.00  0.00    -0.308 C  
BRANCH   6   7
HETATM    7  N   UNL     1     -10.222   6.851  67.981  1.00  0.00    -0.166 N  
HETATM    8  C   UNL     1      -8.738   6.562  67.965  1.00  0.00    -0.116 C  
HETATM    9  C   UNL     1     -10.456   8.345  67.781  1.00  0.00    -0.220 C  
HETATM   10  C   UNL     1     -10.920   6.113  66.846  1.00  0.00    -0.305 C  
ENDBRANCH   6   7
ENDBRANCH   5   6
BRANCH   5  11
HETATM   11  C   UNL     1     -12.099   7.848  71.096  1.00  0.00    -0.294 C  
HETATM   12  C   UNL     1     -12.266   9.327  71.435  1.00  0.00    -0.349 C  
HETATM   13  O   UNL     1     -11.705  10.135  70.645  1.00  0.00    -0.287 OA 
HETATM   14  O   UNL     1     -12.843   9.545  72.531  1.00  0.00    -0.324 OA 
ENDBRANCH   5  11
ENDBRANCH   4   5
ENDBRANCH   2   4
TORSDOF 5
ENDMDL
MODEL      135
REMARK 921   NORMALIZED FREE ENERGY PREDICTED BY IDOCK:   -2.55 KCAL/MOL
REMARK 922        TOTAL FREE ENERGY PREDICTED BY IDOCK:   -3.90 KCAL/MOL
REMARK 923 INTER-LIGAND FREE ENERGY PREDICTED BY IDOCK:   -3.35 KCAL/MOL
REMARK 924 INTRA-LIGAND FREE ENERGY PREDICTED BY IDOCK:   -0.54 KCAL/MOL
REMARK 927      BINDING AFFINITY PREDICTED BY RF-SCORE:    0.00 PKD
ROOT
HETATM    1  C   UNL     1     -12.035   6.893  71.054  1.00  0.00    -0.422 C  
HETATM    2  C   UNL     1     -11.144   6.239  70.037  1.00  0.00    -0.388 C  
HETATM    3  O   UNL     1     -10.613   5.149  70.169  1.00  0.00    -0.272 OA 
ENDROOT
BRANCH   2   4
HETATM    4  O   UNL     1     -11.079   7.022  68.934  1.00  0.00    -0.153 OA 
BRANCH   4   5
HETATM    5  C   UNL     1     -10.207   8.171  68.966  1.00  0.00    -0.220 C  
BRANCH   5   6
HETATM    6  C   UNL     1      -8.725   7.714  68.918  1.00  0.00    -0.135 C  
BRANCH   6   7
HETATM    7  N   UNL     1      -7.874   8.081  70.183  1.00  0.00    -0.097 N  
HETATM    8  C   UNL     1      -8.746   8.562  71.320  1.00  0.00    -0.181 C  
HETATM    9  C   UNL     1      -6.921   9.194  69.760  1.00  0.00    -0.056 C  
HETATM   10  C   UNL     1      -7.034   6.888  70.622  1.00  0.00    -0.063 C  
ENDBRANCH   6   7
ENDBRANCH   5   6
BRANCH   5  11
HETATM   11  C   UNL     1     -10.521   9.115  67.807  1.00  0.00    -0.306 C  
HETATM   12  C   UNL     1     -10.892  10.514  68.292  1.00  0.00    -0.248 C  
HETATM   13  O   UNL     1     -10.299  10.906  69.333  1.00  0.00    -0.212 OA 
HETATM   14  O   UNL     1     -11.833  11.050  67.654  1.00  0.00    -0.599 OA 
ENDBRANCH   5  11
ENDBRANCH   4   5
ENDBRANCH   2   4
TORSDOF 5
ENDMDL
MODEL      136
REMARK 921   NORMALIZED FREE ENERGY PREDICTED BY IDOCK:   -2.54 KCAL/MOL
REMARK 922        TOTAL FREE ENERGY PREDICTED BY IDOCK:   -3.89 KCAL/MOL
REMARK 923 INTER-LIGAND FREE ENERGY PREDICTED BY IDOCK:   -3.30 KCAL/MOL
REMARK 924 INTRA-LIGAND FREE ENERGY PREDICTED BY IDOCK:   -0.59 KCAL/MOL
REMARK 927      BINDING AFFINITY PREDICTED BY RF-SCORE:    0.00 PKD
ROOT
HETATM    1  C   UNL     1     -11.081   6.522  67.210  1.00  0.00    -0.429 C  
HETATM    2  C   UNL     1     -10.083   5.844  68.103  1.00  0.00    -0.166 C  
HETATM    3  O   UNL     1      -9.980   4.637  68.249  1.00  0.00    -0.136 OA 
ENDROOT
BRANCH   2   4
HETATM    4  O   UNL     1      -9.282   6.779  68.665  1.00  0.00    -0.134 OA 
BRANCH   4   5
HETATM    5  C   UNL     1      -9.802   7.545  69.772  1.00  0.00    -0.180 C  
BRANCH   5   6
HETATM    6  C   UNL     1      -9.701   6.720  71.081  1.00  0.00    -0.174 C  
BRANCH   6   7
HETATM    7  N   UNL     1     -11.021   6.644  71.924  1.00  0.00    -0.236 N  
HETATM    8  C   UNL     1     -11.106   5.357  72.711  1.00  0.00    -0.294 C  
HETATM    9  C   UNL     1     -12.177   6.718  70.933  1.00  0.00    -0.331 C  
HETATM   10  C   UNL     1     -11.127   7.846  72.855  1.00  0.00    -0.379 C  
ENDBRANCH   6   7
ENDBRANCH   5   6
BRANCH   5  11
HETATM   11  C   UNL     1      -9.054   8.869  69.907  1.00  0.00    -0.166 C  
HETATM   12  C   UNL     1      -9.965  10.070  69.660  1.00  0.00    -0.236 C  
HETATM   13  O   UNL     1     -11.160   9.934  70.037  1.00  0.00    -0.251 OA 
HETATM   14  O   UNL     1      -9.430  10.998  69.002  1.00  0.00    -0.184 OA 
ENDBRANCH   5  11
ENDBRANCH   4   5
ENDBRANCH   2   4
TORSDOF 5
ENDMDL
MODEL      137
REMARK 921   NORMALIZED FREE ENERGY PREDICTED BY IDOCK:   -2.53 KCAL/MOL
REMARK 922        TOTAL FREE ENERGY PREDICTED BY IDOCK:   -3.88 KCAL/MOL
REMARK 923 INTER-LIGAND FREE ENERGY PREDICTED BY IDOCK:   -3.40 KCAL/MOL
REMARK 924 INTRA-LIGAND FREE ENERGY PREDICTED BY IDOCK:   -0.48 KCAL/MOL
REMARK 927      BINDING AFFINITY PREDICTED BY RF-SCORE:    0.00 PKD
ROOT
HETATM    1  C   UNL     1      -9.609   8.966  66.141  1.00  0.00    -0.335 C  
HETATM    2  C   UNL     1     -10.404   8.268  67.207  1.00  0.00    -0.302 C  
HETATM    3  O   UNL     1     -10.731   7.094  67.180  1.00  0.00    -0.307 OA 
ENDROOT
BRANCH   2   4
HETATM    4  O   UNL     1     -10.641   9.132  68.222  1.00  0.00    -0.214 OA 
BRANCH   4   5
HETATM    5  C   UNL     1     -10.329   8.707  69.565  1.00  0.00    -0.214 C  
BRANCH   5   6
HETATM    6  C   UNL     1      -8.804   8.466  69.704  1.00  0.00    -0.141 C  
BRANCH   6   7
HETATM    7  N   UNL     1      -8.397   7.032  70.190  1.00  0.00    -0.136 N  
HETATM    8  C   UNL     1      -7.280   7.084  71.206  1.00  0.00    -0.075 C  
HETATM    9  C   UNL     1      -7.934   6.267  68.954  1.00  0.00    -0.109 C  
HETATM   10  C   UNL     1      -9.606   6.303  70.763  1.00  0.00    -0.176 C  
ENDBRANCH   6   7
ENDBRANCH   5   6
BRANCH   5  11
HETATM   11  C   UNL     1     -10.810   9.741  70.580  1.00  0.00    -0.396 C  
HETATM   12  C   UNL     1     -12.207   9.422  71.105  1.00  0.00    -0.323 C  
HETATM   13  O   UNL     1     -12.483   8.197  71.216  1.00  0.00    -0.307 OA 
HETATM   14  O   UNL     1     -12.949  10.428  71.247  1.00  0.00    -0.365 OA 
ENDBRANCH   5  11
ENDBRANCH   4   5
ENDBRANCH   2   4
TORSDOF 5
ENDMDL
MODEL      138
REMARK 921   NORMALIZED FREE ENERGY PREDICTED BY IDOCK:   -2.51 KCAL/MOL
REMARK 922        TOTAL FREE ENERGY PREDICTED BY IDOCK:   -3.86 KCAL/MOL
REMARK 923 INTER-LIGAND FREE ENERGY PREDICTED BY IDOCK:   -3.27 KCAL/MOL
REMARK 924 INTRA-LIGAND FREE ENERGY PREDICTED BY IDOCK:   -0.59 KCAL/MOL
REMARK 927      BINDING AFFINITY PREDICTED BY RF-SCORE:    0.00 PKD
ROOT
HETATM    1  C   UNL     1     -12.392  10.658  71.216  1.00  0.00    -0.488 C  
HETATM    2  C   UNL     1     -11.440   9.503  71.085  1.00  0.00    -0.360 C  
HETATM    3  O   UNL     1     -10.745   9.064  71.985  1.00  0.00    -0.349 OA 
ENDROOT
BRANCH   2   4
HETATM    4  O   UNL     1     -11.528   8.995  69.833  1.00  0.00    -0.090 OA 
BRANCH   4   5
HETATM    5  C   UNL     1     -10.474   9.302  68.898  1.00  0.00    -0.215 C  
BRANCH   5   6
HETATM    6  C   UNL     1      -9.683   8.015  68.548  1.00  0.00    -0.159 C  
BRANCH   6   7
HETATM    7  N   UNL     1      -8.156   8.056  68.902  1.00  0.00    -0.122 N  
HETATM    8  C   UNL     1      -7.872   9.017  70.034  1.00  0.00    -0.088 C  
HETATM    9  C   UNL     1      -7.426   8.514  67.644  1.00  0.00    -0.094 C  
HETATM   10  C   UNL     1      -7.655   6.660  69.251  1.00  0.00    -0.100 C  
ENDBRANCH   6   7
ENDBRANCH   5   6
BRANCH   5  11
HETATM   11  C   UNL     1     -11.047   9.946  67.637  1.00  0.00    -0.170 C  
HETATM   12  C   UNL     1     -11.071  11.470  67.731  1.00  0.00    -0.260 C  
HETATM   13  O   UNL     1     -10.123  11.991  68.378  1.00  0.00    -0.204 OA 
HETATM   14  O   UNL     1     -12.104  12.002  67.250  1.00  0.00    -0.572 OA 
ENDBRANCH   5  11
ENDBRANCH   4   5
ENDBRANCH   2   4
TORSDOF 5
ENDMDL
MODEL      139
REMARK 921   NORMALIZED FREE ENERGY PREDICTED BY IDOCK:   -2.51 KCAL/MOL
REMARK 922        TOTAL FREE ENERGY PREDICTED BY IDOCK:   -3.85 KCAL/MOL
REMARK 923 INTER-LIGAND FREE ENERGY PREDICTED BY IDOCK:   -3.35 KCAL/MOL
REMARK 924 INTRA-LIGAND FREE ENERGY PREDICTED BY IDOCK:   -0.50 KCAL/MOL
REMARK 927      BINDING AFFINITY PREDICTED BY RF-SCORE:    0.00 PKD
ROOT
HETATM    1  C   UNL     1     -11.012  17.330  67.981  1.00  0.00    -0.194 C  
HETATM    2  C   UNL     1     -11.327  15.947  68.474  1.00  0.00    -0.374 C  
HETATM    3  O   UNL     1     -11.630  15.665  69.621  1.00  0.00    -0.307 OA 
ENDROOT
BRANCH   2   4
HETATM    4  O   UNL     1     -11.281  15.083  67.432  1.00  0.00    -0.319 OA 
BRANCH   4   5
HETATM    5  C   UNL     1     -10.151  14.191  67.337  1.00  0.00    -0.240 C  
BRANCH   5   6
HETATM    6  C   UNL     1     -10.619  12.790  66.862  1.00  0.00    -0.244 C  
BRANCH   6   7
HETATM    7  N   UNL     1     -10.509  11.653  67.935  1.00  0.00    -0.187 N  
HETATM    8  C   UNL     1     -10.700  10.286  67.319  1.00  0.00    -0.263 C  
HETATM    9  C   UNL     1     -11.608  11.911  68.961  1.00  0.00    -0.317 C  
HETATM   10  C   UNL     1      -9.170  11.731  68.657  1.00  0.00    -0.083 C  
ENDBRANCH   6   7
ENDBRANCH   5   6
BRANCH   5  11
HETATM   11  C   UNL     1      -9.097  14.760  66.390  1.00  0.00    -0.267 C  
HETATM   12  C   UNL     1      -7.902  15.338  67.143  1.00  0.00    -0.214 C  
HETATM   13  O   UNL     1      -7.592  14.747  68.213  1.00  0.00    -0.104 OA 
HETATM   14  O   UNL     1      -7.454  16.409  66.659  1.00  0.00    -0.231 OA 
ENDBRANCH   5  11
ENDBRANCH   4   5
ENDBRANCH   2   4
TORSDOF 5
ENDMDL
MODEL      140
REMARK 921   NORMALIZED FREE ENERGY PREDICTED BY IDOCK:   -2.49 KCAL/MOL
REMARK 922        TOTAL FREE ENERGY PREDICTED BY IDOCK:   -3.83 KCAL/MOL
REMARK 923 INTER-LIGAND FREE ENERGY PREDICTED BY IDOCK:   -3.23 KCAL/MOL
REMARK 924 INTRA-LIGAND FREE ENERGY PREDICTED BY IDOCK:   -0.60 KCAL/MOL
REMARK 927      BINDING AFFINITY PREDICTED BY RF-SCORE:    0.00 PKD
ROOT
HETATM    1  C   UNL     1     -11.028   6.118  68.582  1.00  0.00    -0.415 C  
HETATM    2  C   UNL     1     -11.217   6.416  70.042  1.00  0.00    -0.411 C  
HETATM    3  O   UNL     1     -11.074   5.609  70.945  1.00  0.00    -0.237 OA 
ENDROOT
BRANCH   2   4
HETATM    4  O   UNL     1     -11.508   7.730  70.193  1.00  0.00    -0.185 OA 
BRANCH   4   5
HETATM    5  C   UNL     1     -10.449   8.688  69.992  1.00  0.00    -0.223 C  
BRANCH   5   6
HETATM    6  C   UNL     1     -11.029  10.008  69.420  1.00  0.00    -0.244 C  
BRANCH   6   7
HETATM    7  N   UNL     1     -10.353  10.515  68.100  1.00  0.00    -0.164 N  
HETATM    8  C   UNL     1      -9.950   9.367  67.203  1.00  0.00    -0.204 C  
HETATM    9  C   UNL     1      -9.114  11.301  68.517  1.00  0.00    -0.173 C  
HETATM   10  C   UNL     1     -11.283  11.469  67.360  1.00  0.00    -0.304 C  
ENDBRANCH   6   7
ENDBRANCH   5   6
BRANCH   5  11
HETATM   11  C   UNL     1      -9.703   8.946  71.300  1.00  0.00    -0.359 C  
HETATM   12  C   UNL     1      -8.309   8.324  71.297  1.00  0.00    -0.131 C  
HETATM   13  O   UNL     1      -7.721   8.308  70.182  1.00  0.00    -0.080 OA 
HETATM   14  O   UNL     1      -7.975   7.797  72.389  1.00  0.00    -0.100 OA 
ENDBRANCH   5  11
ENDBRANCH   4   5
ENDBRANCH   2   4
TORSDOF 5
ENDMDL
MODEL      141
REMARK 921   NORMALIZED FREE ENERGY PREDICTED BY IDOCK:   -2.48 KCAL/MOL
REMARK 922        TOTAL FREE ENERGY PREDICTED BY IDOCK:   -3.82 KCAL/MOL
REMARK 923 INTER-LIGAND FREE ENERGY PREDICTED BY IDOCK:   -3.24 KCAL/MOL
REMARK 924 INTRA-LIGAND FREE ENERGY PREDICTED BY IDOCK:   -0.58 KCAL/MOL
REMARK 927      BINDING AFFINITY PREDICTED BY RF-SCORE:    0.00 PKD
ROOT
HETATM    1  C   UNL     1      -8.233   4.728  71.344  1.00  0.00    -0.103 C  
HETATM    2  C   UNL     1      -9.658   4.832  71.805  1.00  0.00    -0.155 C  
HETATM    3  O   UNL     1     -10.012   4.916  72.969  1.00  0.00    -0.146 OA 
ENDROOT
BRANCH   2   4
HETATM    4  O   UNL     1     -10.472   4.880  70.725  1.00  0.00    -0.199 OA 
BRANCH   4   5
HETATM    5  C   UNL     1     -10.739   6.167  70.131  1.00  0.00    -0.302 C  
BRANCH   5   6
HETATM    6  C   UNL     1     -10.967   6.011  68.605  1.00  0.00    -0.284 C  
BRANCH   6   7
HETATM    7  N   UNL     1      -9.935   6.767  67.697  1.00  0.00    -0.130 N  
HETATM    8  C   UNL     1     -10.526   8.031  67.117  1.00  0.00    -0.338 C  
HETATM    9  C   UNL     1      -9.562   5.810  66.570  1.00  0.00    -0.156 C  
HETATM   10  C   UNL     1      -8.668   7.081  68.482  1.00  0.00    -0.122 C  
ENDBRANCH   6   7
ENDBRANCH   5   6
BRANCH   5  11
HETATM   11  C   UNL     1     -11.948   6.824  70.795  1.00  0.00    -0.433 C  
HETATM   12  C   UNL     1     -11.624   8.219  71.324  1.00  0.00    -0.281 C  
HETATM   13  O   UNL     1     -10.790   8.879  70.647  1.00  0.00    -0.220 OA 
HETATM   14  O   UNL     1     -12.143   8.483  72.438  1.00  0.00    -0.377 OA 
ENDBRANCH   5  11
ENDBRANCH   4   5
ENDBRANCH   2   4
TORSDOF 5
ENDMDL
MODEL      142
REMARK 921   NORMALIZED FREE ENERGY PREDICTED BY IDOCK:   -2.47 KCAL/MOL
REMARK 922        TOTAL FREE ENERGY PREDICTED BY IDOCK:   -3.80 KCAL/MOL
REMARK 923 INTER-LIGAND FREE ENERGY PREDICTED BY IDOCK:   -3.09 KCAL/MOL
REMARK 924 INTRA-LIGAND FREE ENERGY PREDICTED BY IDOCK:   -0.71 KCAL/MOL
REMARK 927      BINDING AFFINITY PREDICTED BY RF-SCORE:    0.00 PKD
ROOT
HETATM    1  C   UNL     1      -8.566   8.006  73.040  1.00  0.00    -0.265 C  
HETATM    2  C   UNL     1      -9.961   8.358  72.609  1.00  0.00    -0.258 C  
HETATM    3  O   UNL     1     -10.981   7.914  73.108  1.00  0.00    -0.383 OA 
ENDROOT
BRANCH   2   4
HETATM    4  O   UNL     1      -9.901   9.288  71.627  1.00  0.00    -0.278 OA 
BRANCH   4   5
HETATM    5  C   UNL     1      -9.252   8.930  70.389  1.00  0.00    -0.194 C  
BRANCH   5   6
HETATM    6  C   UNL     1     -10.300   8.408  69.372  1.00  0.00    -0.215 C  
BRANCH   6   7
HETATM    7  N   UNL     1     -10.267   6.862  69.117  1.00  0.00    -0.180 N  
HETATM    8  C   UNL     1     -10.414   6.537  67.648  1.00  0.00    -0.230 C  
HETATM    9  C   UNL     1     -11.435   6.265  69.894  1.00  0.00    -0.389 C  
HETATM   10  C   UNL     1      -8.981   6.259  69.670  1.00  0.00    -0.135 C  
ENDBRANCH   6   7
ENDBRANCH   5   6
BRANCH   5  11
HETATM   11  C   UNL     1      -8.490  10.124  69.818  1.00  0.00    -0.147 C  
HETATM   12  C   UNL     1      -7.017  10.108  70.217  1.00  0.00    -0.145 C  
HETATM   13  O   UNL     1      -6.492   8.967  70.322  1.00  0.00    -0.037 OA 
HETATM   14  O   UNL     1      -6.547  11.238  70.508  1.00  0.00    -0.239 OA 
ENDBRANCH   5  11
ENDBRANCH   4   5
ENDBRANCH   2   4
TORSDOF 5
ENDMDL
MODEL      143
REMARK 921   NORMALIZED FREE ENERGY PREDICTED BY IDOCK:   -2.45 KCAL/MOL
REMARK 922        TOTAL FREE ENERGY PREDICTED BY IDOCK:   -3.78 KCAL/MOL
REMARK 923 INTER-LIGAND FREE ENERGY PREDICTED BY IDOCK:   -3.63 KCAL/MOL
REMARK 924 INTRA-LIGAND FREE ENERGY PREDICTED BY IDOCK:   -0.15 KCAL/MOL
REMARK 927      BINDING AFFINITY PREDICTED BY RF-SCORE:    0.00 PKD
ROOT
HETATM    1  C   UNL     1     -10.135  14.958  65.631  1.00  0.00    -0.387 C  
HETATM    2  C   UNL     1      -9.042  15.630  66.411  1.00  0.00    -0.320 C  
HETATM    3  O   UNL     1      -7.979  15.114  66.713  1.00  0.00    -0.177 OA 
ENDROOT
BRANCH   2   4
HETATM    4  O   UNL     1      -9.400  16.910  66.666  1.00  0.00    -0.236 OA 
BRANCH   4   5
HETATM    5  C   UNL     1     -10.210  17.171  67.831  1.00  0.00    -0.330 C  
BRANCH   5   6
HETATM    6  C   UNL     1      -9.840  16.181  68.966  1.00  0.00    -0.245 C  
BRANCH   6   7
HETATM    7  N   UNL     1     -11.008  15.249  69.442  1.00  0.00    -0.255 N  
HETATM    8  C   UNL     1     -10.651  13.788  69.290  1.00  0.00     0.001 C  
HETATM    9  C   UNL     1     -12.214  15.577  68.569  1.00  0.00     0.139 C  
HETATM   10  C   UNL     1     -11.380  15.559  70.887  1.00  0.00    -0.369 C  
ENDBRANCH   6   7
ENDBRANCH   5   6
BRANCH   5  11
HETATM   11  C   UNL     1     -10.034  18.616  68.294  1.00  0.00    -0.424 C  
HETATM   12  C   UNL     1     -10.256  19.612  67.159  1.00  0.00    -0.435 C  
HETATM   13  O   UNL     1     -11.123  19.283  66.305  1.00  0.00    -0.178 OA 
HETATM   14  O   UNL     1      -9.455  20.582  67.157  1.00  0.00    -0.412 OA 
ENDBRANCH   5  11
ENDBRANCH   4   5
ENDBRANCH   2   4
TORSDOF 5
ENDMDL
MODEL      144
REMARK 921   NORMALIZED FREE ENERGY PREDICTED BY IDOCK:   -2.44 KCAL/MOL
REMARK 922        TOTAL FREE ENERGY PREDICTED BY IDOCK:   -3.76 KCAL/MOL
REMARK 923 INTER-LIGAND FREE ENERGY PREDICTED BY IDOCK:   -3.14 KCAL/MOL
REMARK 924 INTRA-LIGAND FREE ENERGY PREDICTED BY IDOCK:   -0.62 KCAL/MOL
REMARK 927      BINDING AFFINITY PREDICTED BY RF-SCORE:    0.00 PKD
ROOT
HETATM    1  C   UNL     1      -9.350   7.288  67.302  1.00  0.00    -0.156 C  
HETATM    2  C   UNL     1     -10.401   7.548  68.342  1.00  0.00    -0.195 C  
HETATM    3  O   UNL     1     -10.821   6.723  69.135  1.00  0.00    -0.238 OA 
ENDROOT
BRANCH   2   4
HETATM    4  O   UNL     1     -10.756   8.855  68.298  1.00  0.00    -0.180 OA 
BRANCH   4   5
HETATM    5  C   UNL     1     -10.176   9.751  69.268  1.00  0.00    -0.204 C  
BRANCH   5   6
HETATM    6  C   UNL     1      -9.820  11.102  68.596  1.00  0.00    -0.202 C  
BRANCH   6   7
HETATM    7  N   UNL     1      -8.307  11.284  68.227  1.00  0.00    -0.142 N  
HETATM    8  C   UNL     1      -7.887  12.734  68.295  1.00  0.00    -0.141 C  
HETATM    9  C   UNL     1      -8.138  10.766  66.803  1.00  0.00    -0.137 C  
HETATM   10  C   UNL     1      -7.432  10.433  69.140  1.00  0.00    -0.112 C  
ENDBRANCH   6   7
ENDBRANCH   5   6
BRANCH   5  11
HETATM   11  C   UNL     1     -11.132   9.964  70.440  1.00  0.00    -0.382 C  
HETATM   12  C   UNL     1     -10.718   9.162  71.671  1.00  0.00    -0.371 C  
HETATM   13  O   UNL     1      -9.476   9.020  71.837  1.00  0.00    -0.313 OA 
HETATM   14  O   UNL     1     -11.677   8.644  72.298  1.00  0.00    -0.363 OA 
ENDBRANCH   5  11
ENDBRANCH   4   5
ENDBRANCH   2   4
TORSDOF 5
ENDMDL
MODEL      145
REMARK 921   NORMALIZED FREE ENERGY PREDICTED BY IDOCK:   -2.44 KCAL/MOL
REMARK 922        TOTAL FREE ENERGY PREDICTED BY IDOCK:   -3.76 KCAL/MOL
REMARK 923 INTER-LIGAND FREE ENERGY PREDICTED BY IDOCK:   -3.40 KCAL/MOL
REMARK 924 INTRA-LIGAND FREE ENERGY PREDICTED BY IDOCK:   -0.35 KCAL/MOL
REMARK 927      BINDING AFFINITY PREDICTED BY RF-SCORE:    0.00 PKD
ROOT
HETATM    1  C   UNL     1      -8.555  10.686  66.565  1.00  0.00    -0.143 C  
HETATM    2  C   UNL     1      -9.435  11.123  65.429  1.00  0.00    -0.222 C  
HETATM    3  O   UNL     1      -9.217  10.903  64.250  1.00  0.00    -0.207 OA 
ENDROOT
BRANCH   2   4
HETATM    4  O   UNL     1     -10.531  11.740  65.929  1.00  0.00    -0.238 OA 
BRANCH   4   5
HETATM    5  C   UNL     1     -10.352  12.670  67.017  1.00  0.00    -0.232 C  
BRANCH   5   6
HETATM    6  C   UNL     1     -10.113  14.098  66.461  1.00  0.00    -0.280 C  
BRANCH   6   7
HETATM    7  N   UNL     1      -9.027  14.935  67.220  1.00  0.00    -0.188 N  
HETATM    8  C   UNL     1      -8.641  16.177  66.450  1.00  0.00    -0.330 C  
HETATM    9  C   UNL     1      -7.810  14.030  67.379  1.00  0.00    -0.170 C  
HETATM   10  C   UNL     1      -9.519  15.304  68.614  1.00  0.00    -0.204 C  
ENDBRANCH   6   7
ENDBRANCH   5   6
BRANCH   5  11
HETATM   11  C   UNL     1     -11.563  12.647  67.948  1.00  0.00    -0.401 C  
HETATM   12  C   UNL     1     -11.464  11.536  68.990  1.00  0.00    -0.291 C  
HETATM   13  O   UNL     1     -10.300  11.272  69.398  1.00  0.00    -0.140 OA 
HETATM   14  O   UNL     1     -12.549  10.943  69.219  1.00  0.00    -0.356 OA 
ENDBRANCH   5  11
ENDBRANCH   4   5
ENDBRANCH   2   4
TORSDOF 5
ENDMDL
MODEL      146
REMARK 921   NORMALIZED FREE ENERGY PREDICTED BY IDOCK:   -2.43 KCAL/MOL
REMARK 922        TOTAL FREE ENERGY PREDICTED BY IDOCK:   -3.75 KCAL/MOL
REMARK 923 INTER-LIGAND FREE ENERGY PREDICTED BY IDOCK:   -3.18 KCAL/MOL
REMARK 924 INTRA-LIGAND FREE ENERGY PREDICTED BY IDOCK:   -0.57 KCAL/MOL
REMARK 927      BINDING AFFINITY PREDICTED BY RF-SCORE:    0.00 PKD
ROOT
HETATM    1  C   UNL     1     -10.520   5.314  66.725  1.00  0.00    -0.330 C  
HETATM    2  C   UNL     1     -10.884   6.428  67.664  1.00  0.00    -0.339 C  
HETATM    3  O   UNL     1     -10.984   6.319  68.874  1.00  0.00    -0.306 OA 
ENDROOT
BRANCH   2   4
HETATM    4  O   UNL     1     -11.019   7.577  66.960  1.00  0.00    -0.306 OA 
BRANCH   4   5
HETATM    5  C   UNL     1     -10.042   8.618  67.163  1.00  0.00    -0.261 C  
BRANCH   5   6
HETATM    6  C   UNL     1      -9.478   9.091  65.798  1.00  0.00    -0.236 C  
BRANCH   6   7
HETATM    7  N   UNL     1      -7.959   8.782  65.562  1.00  0.00    -0.098 N  
HETATM    8  C   UNL     1      -7.107  10.021  65.718  1.00  0.00    -0.117 C  
HETATM    9  C   UNL     1      -7.836   8.250  64.138  1.00  0.00    -0.145 C  
HETATM   10  C   UNL     1      -7.486   7.687  66.511  1.00  0.00    -0.092 C  
ENDBRANCH   6   7
ENDBRANCH   5   6
BRANCH   5  11
HETATM   11  C   UNL     1     -10.656   9.788  67.929  1.00  0.00    -0.310 C  
HETATM   12  C   UNL     1      -9.945  10.041  69.256  1.00  0.00    -0.213 C  
HETATM   13  O   UNL     1      -8.705   9.813  69.263  1.00  0.00    -0.140 OA 
HETATM   14  O   UNL     1     -10.714  10.331  70.208  1.00  0.00    -0.288 OA 
ENDBRANCH   5  11
ENDBRANCH   4   5
ENDBRANCH   2   4
TORSDOF 5
ENDMDL
MODEL      147
REMARK 921   NORMALIZED FREE ENERGY PREDICTED BY IDOCK:   -2.41 KCAL/MOL
REMARK 922        TOTAL FREE ENERGY PREDICTED BY IDOCK:   -3.73 KCAL/MOL
REMARK 923 INTER-LIGAND FREE ENERGY PREDICTED BY IDOCK:   -3.17 KCAL/MOL
REMARK 924 INTRA-LIGAND FREE ENERGY PREDICTED BY IDOCK:   -0.55 KCAL/MOL
REMARK 927      BINDING AFFINITY PREDICTED BY RF-SCORE:    0.00 PKD
ROOT
HETATM    1  C   UNL     1     -10.325   5.238  66.961  1.00  0.00    -0.286 C  
HETATM    2  C   UNL     1     -10.380   5.225  68.462  1.00  0.00    -0.112 C  
HETATM    3  O   UNL     1      -9.709   4.504  69.181  1.00  0.00    -0.172 OA 
ENDROOT
BRANCH   2   4
HETATM    4  O   UNL     1     -11.243   6.180  68.883  1.00  0.00    -0.372 OA 
BRANCH   4   5
HETATM    5  C   UNL     1     -10.825   7.051  69.954  1.00  0.00    -0.251 C  
BRANCH   5   6
HETATM    6  C   UNL     1     -10.880   8.529  69.488  1.00  0.00    -0.125 C  
BRANCH   6   7
HETATM    7  N   UNL     1      -9.485   9.227  69.322  1.00  0.00    -0.156 N  
HETATM    8  C   UNL     1      -8.727   9.274  70.629  1.00  0.00    -0.234 C  
HETATM    9  C   UNL     1      -9.762  10.646  68.837  1.00  0.00    -0.202 C  
HETATM   10  C   UNL     1      -8.662   8.520  68.253  1.00  0.00    -0.143 C  
ENDBRANCH   6   7
ENDBRANCH   5   6
BRANCH   5  11
HETATM   11  C   UNL     1     -11.698   6.839  71.189  1.00  0.00    -0.394 C  
HETATM   12  C   UNL     1     -10.944   6.125  72.308  1.00  0.00    -0.260 C  
HETATM   13  O   UNL     1      -9.714   6.391  72.394  1.00  0.00    -0.155 OA 
HETATM   14  O   UNL     1     -11.626   5.268  72.927  1.00  0.00    -0.310 OA 
ENDBRANCH   5  11
ENDBRANCH   4   5
ENDBRANCH   2   4
TORSDOF 5
ENDMDL
MODEL      148
REMARK 921   NORMALIZED FREE ENERGY PREDICTED BY IDOCK:   -2.41 KCAL/MOL
REMARK 922        TOTAL FREE ENERGY PREDICTED BY IDOCK:   -3.72 KCAL/MOL
REMARK 923 INTER-LIGAND FREE ENERGY PREDICTED BY IDOCK:   -4.01 KCAL/MOL
REMARK 924 INTRA-LIGAND FREE ENERGY PREDICTED BY IDOCK:    0.29 KCAL/MOL
REMARK 927      BINDING AFFINITY PREDICTED BY RF-SCORE:    0.00 PKD
ROOT
HETATM    1  C   UNL     1      -8.314  11.695  67.476  1.00  0.00    -0.151 C  
HETATM    2  C   UNL     1      -9.720  11.246  67.753  1.00  0.00    -0.173 C  
HETATM    3  O   UNL     1     -10.168  10.144  67.484  1.00  0.00    -0.186 OA 
ENDROOT
BRANCH   2   4
HETATM    4  O   UNL     1     -10.383  12.234  68.399  1.00  0.00    -0.215 OA 
BRANCH   4   5
HETATM    5  C   UNL     1     -10.321  13.567  67.852  1.00  0.00    -0.249 C  
BRANCH   5   6
HETATM    6  C   UNL     1     -11.468  13.774  66.829  1.00  0.00    -0.348 C  
BRANCH   6   7
HETATM    7  N   UNL     1     -11.006  14.153  65.379  1.00  0.00    -0.313 N  
HETATM    8  C   UNL     1     -10.333  12.990  64.687  1.00  0.00    -0.352 C  
HETATM    9  C   UNL     1     -10.019  15.307  65.522  1.00  0.00    -0.348 C  
HETATM   10  C   UNL     1     -12.190  14.650  64.558  1.00  0.00    -0.456 C  
ENDBRANCH   6   7
ENDBRANCH   5   6
BRANCH   5  11
HETATM   11  C   UNL     1     -10.394  14.608  68.966  1.00  0.00    -0.237 C  
HETATM   12  C   UNL     1     -11.713  14.537  69.731  1.00  0.00    -0.303 C  
HETATM   13  O   UNL     1     -12.210  13.385  69.857  1.00  0.00    -0.314 OA 
HETATM   14  O   UNL     1     -12.196  15.658  70.035  1.00  0.00    -0.367 OA 
ENDBRANCH   5  11
ENDBRANCH   4   5
ENDBRANCH   2   4
TORSDOF 5
ENDMDL
MODEL      149
REMARK 921   NORMALIZED FREE ENERGY PREDICTED BY IDOCK:   -2.37 KCAL/MOL
REMARK 922        TOTAL FREE ENERGY PREDICTED BY IDOCK:   -3.68 KCAL/MOL
REMARK 923 INTER-LIGAND FREE ENERGY PREDICTED BY IDOCK:   -4.09 KCAL/MOL
REMARK 924 INTRA-LIGAND FREE ENERGY PREDICTED BY IDOCK:    0.41 KCAL/MOL
REMARK 927      BINDING AFFINITY PREDICTED BY RF-SCORE:    0.00 PKD
ROOT
HETATM    1  C   UNL     1     -11.978  14.917  69.563  1.00  0.00    -0.347 C  
HETATM    2  C   UNL     1     -11.409  15.242  68.212  1.00  0.00    -0.336 C  
HETATM    3  O   UNL     1     -11.855  14.844  67.150  1.00  0.00    -0.338 OA 
ENDROOT
BRANCH   2   4
HETATM    4  O   UNL     1     -10.367  16.094  68.362  1.00  0.00    -0.240 OA 
BRANCH   4   5
HETATM    5  C   UNL     1      -9.527  16.351  67.218  1.00  0.00    -0.227 C  
BRANCH   5   6
HETATM    6  C   UNL     1      -8.600  17.561  67.501  1.00  0.00    -0.221 C  
BRANCH   6   7
HETATM    7  N   UNL     1      -9.223  18.965  67.188  1.00  0.00    -0.285 N  
HETATM    8  C   UNL     1      -9.787  19.614  68.431  1.00  0.00    -0.432 C  
HETATM    9  C   UNL     1     -10.341  18.732  66.177  1.00  0.00    -0.448 C  
HETATM   10  C   UNL     1      -8.187  19.873  66.536  1.00  0.00    -0.331 C  
ENDBRANCH   6   7
ENDBRANCH   5   6
BRANCH   5  11
HETATM   11  C   UNL     1      -8.708  15.111  66.866  1.00  0.00    -0.289 C  
HETATM   12  C   UNL     1      -7.588  14.859  67.872  1.00  0.00    -0.136 C  
HETATM   13  O   UNL     1      -7.845  15.176  69.065  1.00  0.00    -0.152 OA 
HETATM   14  O   UNL     1      -6.506  14.478  67.357  1.00  0.00    -0.309 OA 
ENDBRANCH   5  11
ENDBRANCH   4   5
ENDBRANCH   2   4
TORSDOF 5
ENDMDL
MODEL      150
REMARK 921   NORMALIZED FREE ENERGY PREDICTED BY IDOCK:   -2.36 KCAL/MOL
REMARK 922        TOTAL FREE ENERGY PREDICTED BY IDOCK:   -3.66 KCAL/MOL
REMARK 923 INTER-LIGAND FREE ENERGY PREDICTED BY IDOCK:   -3.06 KCAL/MOL
REMARK 924 INTRA-LIGAND FREE ENERGY PREDICTED BY IDOCK:   -0.60 KCAL/MOL
REMARK 927      BINDING AFFINITY PREDICTED BY RF-SCORE:    0.00 PKD
ROOT
HETATM    1  C   UNL     1     -11.311   4.571  73.354  1.00  0.00    -0.376 C  
HETATM    2  C   UNL     1     -10.498   5.565  72.577  1.00  0.00    -0.216 C  
HETATM    3  O   UNL     1      -9.455   6.068  72.960  1.00  0.00    -0.144 OA 
ENDROOT
BRANCH   2   4
HETATM    4  O   UNL     1     -11.073   5.761  71.367  1.00  0.00    -0.263 OA 
BRANCH   4   5
HETATM    5  C   UNL     1     -10.551   6.812  70.527  1.00  0.00    -0.225 C  
BRANCH   5   6
HETATM    6  C   UNL     1     -10.279   6.265  69.102  1.00  0.00    -0.187 C  
BRANCH   6   7
HETATM    7  N   UNL     1      -8.785   6.346  68.632  1.00  0.00    -0.122 N  
HETATM    8  C   UNL     1      -8.271   5.000  68.175  1.00  0.00    -0.096 C  
HETATM    9  C   UNL     1      -7.974   6.825  69.831  1.00  0.00    -0.120 C  
HETATM   10  C   UNL     1      -8.632   7.379  67.523  1.00  0.00    -0.122 C  
ENDBRANCH   6   7
ENDBRANCH   5   6
BRANCH   5  11
HETATM   11  C   UNL     1     -11.520   7.991  70.480  1.00  0.00    -0.192 C  
HETATM   12  C   UNL     1     -11.180   9.054  71.521  1.00  0.00    -0.348 C  
HETATM   13  O   UNL     1      -9.953   9.205  71.768  1.00  0.00    -0.320 OA 
HETATM   14  O   UNL     1     -12.181   9.561  72.089  1.00  0.00    -0.328 OA 
ENDBRANCH   5  11
ENDBRANCH   4   5
ENDBRANCH   2   4
TORSDOF 5
ENDMDL
MODEL      151
REMARK 921   NORMALIZED FREE ENERGY PREDICTED BY IDOCK:   -2.33 KCAL/MOL
REMARK 922        TOTAL FREE ENERGY PREDICTED BY IDOCK:   -3.62 KCAL/MOL
REMARK 923 INTER-LIGAND FREE ENERGY PREDICTED BY IDOCK:   -3.39 KCAL/MOL
REMARK 924 INTRA-LIGAND FREE ENERGY PREDICTED BY IDOCK:   -0.23 KCAL/MOL
REMARK 927      BINDING AFFINITY PREDICTED BY RF-SCORE:    0.00 PKD
ROOT
HETATM    1  C   UNL     1      -9.936   5.208  68.672  1.00  0.00    -0.227 C  
HETATM    2  C   UNL     1     -10.308   6.529  68.061  1.00  0.00    -0.187 C  
HETATM    3  O   UNL     1     -11.185   6.693  67.230  1.00  0.00    -0.366 OA 
ENDROOT
BRANCH   2   4
HETATM    4  O   UNL     1      -9.559   7.506  68.625  1.00  0.00    -0.149 OA 
BRANCH   4   5
HETATM    5  C   UNL     1     -10.173   8.793  68.842  1.00  0.00    -0.207 C  
BRANCH   5   6
HETATM    6  C   UNL     1      -9.934   9.255  70.303  1.00  0.00    -0.219 C  
BRANCH   6   7
HETATM    7  N   UNL     1     -11.116   8.970  71.293  1.00  0.00    -0.284 N  
HETATM    8  C   UNL     1     -10.622   8.390  72.598  1.00  0.00    -0.242 C  
HETATM    9  C   UNL     1     -12.034   7.968  70.600  1.00  0.00    -0.033 C  
HETATM   10  C   UNL     1     -11.918  10.241  71.544  1.00  0.00    -0.268 C  
ENDBRANCH   6   7
ENDBRANCH   5   6
BRANCH   5  11
HETATM   11  C   UNL     1      -9.626   9.821  67.853  1.00  0.00    -0.158 C  
HETATM   12  C   UNL     1     -10.741  10.531  67.090  1.00  0.00    -0.265 C  
HETATM   13  O   UNL     1     -11.807  10.723  67.736  1.00  0.00    -0.538 OA 
HETATM   14  O   UNL     1     -10.492  10.727  65.873  1.00  0.00    -0.252 OA 
ENDBRANCH   5  11
ENDBRANCH   4   5
ENDBRANCH   2   4
TORSDOF 5
ENDMDL
MODEL      152
REMARK 921   NORMALIZED FREE ENERGY PREDICTED BY IDOCK:   -2.29 KCAL/MOL
REMARK 922        TOTAL FREE ENERGY PREDICTED BY IDOCK:   -3.57 KCAL/MOL
REMARK 923 INTER-LIGAND FREE ENERGY PREDICTED BY IDOCK:   -3.70 KCAL/MOL
REMARK 924 INTRA-LIGAND FREE ENERGY PREDICTED BY IDOCK:    0.13 KCAL/MOL
REMARK 927      BINDING AFFINITY PREDICTED BY RF-SCORE:    0.00 PKD
ROOT
HETATM    1  C   UNL     1     -10.707   9.460  68.948  1.00  0.00    -0.203 C  
HETATM    2  C   UNL     1     -11.130  10.828  68.496  1.00  0.00    -0.262 C  
HETATM    3  O   UNL     1     -12.285  11.198  68.371  1.00  0.00    -0.610 OA 
ENDROOT
BRANCH   2   4
HETATM    4  O   UNL     1     -10.030  11.595  68.314  1.00  0.00    -0.188 OA 
BRANCH   4   5
HETATM    5  C   UNL     1      -9.729  12.047  66.977  1.00  0.00    -0.196 C  
BRANCH   5   6
HETATM    6  C   UNL     1      -9.645  13.595  66.947  1.00  0.00    -0.262 C  
BRANCH   6   7
HETATM    7  N   UNL     1     -10.975  14.326  66.553  1.00  0.00    -0.311 N  
HETATM    8  C   UNL     1     -11.752  14.766  67.773  1.00  0.00    -0.343 C  
HETATM    9  C   UNL     1     -11.802  13.327  65.750  1.00  0.00    -0.387 C  
HETATM   10  C   UNL     1     -10.679  15.519  65.652  1.00  0.00    -0.366 C  
ENDBRANCH   6   7
ENDBRANCH   5   6
BRANCH   5  11
HETATM   11  C   UNL     1      -8.426  11.424  66.481  1.00  0.00    -0.170 C  
HETATM   12  C   UNL     1      -7.226  11.861  67.319  1.00  0.00    -0.147 C  
HETATM   13  O   UNL     1      -7.456  12.048  68.545  1.00  0.00    -0.107 OA 
HETATM   14  O   UNL     1      -6.186  12.094  66.652  1.00  0.00    -0.148 OA 
ENDBRANCH   5  11
ENDBRANCH   4   5
ENDBRANCH   2   4
TORSDOF 5
ENDMDL
MODEL      153
REMARK 921   NORMALIZED FREE ENERGY PREDICTED BY IDOCK:   -2.26 KCAL/MOL
REMARK 922        TOTAL FREE ENERGY PREDICTED BY IDOCK:   -3.53 KCAL/MOL
REMARK 923 INTER-LIGAND FREE ENERGY PREDICTED BY IDOCK:   -3.09 KCAL/MOL
REMARK 924 INTRA-LIGAND FREE ENERGY PREDICTED BY IDOCK:   -0.43 KCAL/MOL
REMARK 927      BINDING AFFINITY PREDICTED BY RF-SCORE:    0.00 PKD
ROOT
HETATM    1  C   UNL     1     -12.247  13.360  66.173  1.00  0.00    -0.471 C  
HETATM    2  C   UNL     1     -10.865  13.440  65.590  1.00  0.00    -0.283 C  
HETATM    3  O   UNL     1     -10.608  13.744  64.438  1.00  0.00    -0.418 OA 
ENDROOT
BRANCH   2   4
HETATM    4  O   UNL     1      -9.957  13.184  66.562  1.00  0.00    -0.255 OA 
BRANCH   4   5
HETATM    5  C   UNL     1      -9.578  11.812  66.794  1.00  0.00    -0.200 C  
BRANCH   5   6
HETATM    6  C   UNL     1      -8.312  11.464  65.970  1.00  0.00    -0.019 C  
BRANCH   6   7
HETATM    7  N   UNL     1      -8.508  10.348  64.887  1.00  0.00    -0.174 N  
HETATM    8  C   UNL     1      -9.874  10.428  64.246  1.00  0.00    -0.322 C  
HETATM    9  C   UNL     1      -8.355   9.011  65.605  1.00  0.00    -0.132 C  
HETATM   10  C   UNL     1      -7.416  10.437  63.828  1.00  0.00    -0.011 C  
ENDBRANCH   6   7
ENDBRANCH   5   6
BRANCH   5  11
HETATM   11  C   UNL     1      -9.340  11.566  68.283  1.00  0.00    -0.190 C  
HETATM   12  C   UNL     1     -10.436  10.706  68.905  1.00  0.00    -0.210 C  
HETATM   13  O   UNL     1     -10.932   9.825  68.151  1.00  0.00    -0.239 OA 
HETATM   14  O   UNL     1     -10.789  11.068  70.056  1.00  0.00    -0.172 OA 
ENDBRANCH   5  11
ENDBRANCH   4   5
ENDBRANCH   2   4
TORSDOF 5
ENDMDL
MODEL      154
REMARK 921   NORMALIZED FREE ENERGY PREDICTED BY IDOCK:   -2.26 KCAL/MOL
REMARK 922        TOTAL FREE ENERGY PREDICTED BY IDOCK:   -3.53 KCAL/MOL
REMARK 923 INTER-LIGAND FREE ENERGY PREDICTED BY IDOCK:   -3.73 KCAL/MOL
REMARK 924 INTRA-LIGAND FREE ENERGY PREDICTED BY IDOCK:    0.20 KCAL/MOL
REMARK 927      BINDING AFFINITY PREDICTED BY RF-SCORE:    0.00 PKD
ROOT
HETATM    1  C   UNL     1     -11.663  13.600  64.228  1.00  0.00    -0.438 C  
HETATM    2  C   UNL     1     -11.766  13.187  65.668  1.00  0.00    -0.364 C  
HETATM    3  O   UNL     1     -12.656  12.498  66.136  1.00  0.00    -0.397 OA 
ENDROOT
BRANCH   2   4
HETATM    4  O   UNL     1     -10.685  13.648  66.341  1.00  0.00    -0.279 OA 
BRANCH   4   5
HETATM    5  C   UNL     1     -10.656  13.486  67.774  1.00  0.00    -0.246 C  
BRANCH   5   6
HETATM    6  C   UNL     1      -9.619  12.401  68.165  1.00  0.00    -0.218 C  
BRANCH   6   7
HETATM    7  N   UNL     1     -10.224  10.998  68.516  1.00  0.00    -0.184 N  
HETATM    8  C   UNL     1     -10.475  10.173  67.275  1.00  0.00    -0.256 C  
HETATM    9  C   UNL     1     -11.544  11.259  69.235  1.00  0.00    -0.322 C  
HETATM   10  C   UNL     1      -9.309  10.251  69.478  1.00  0.00    -0.178 C  
ENDBRANCH   6   7
ENDBRANCH   5   6
BRANCH   5  11
HETATM   11  C   UNL     1     -10.335  14.814  68.457  1.00  0.00    -0.237 C  
HETATM   12  C   UNL     1      -8.947  15.329  68.083  1.00  0.00    -0.173 C  
HETATM   13  O   UNL     1      -8.566  15.070  66.910  1.00  0.00    -0.225 OA 
HETATM   14  O   UNL     1      -8.312  15.845  69.039  1.00  0.00    -0.209 OA 
ENDBRANCH   5  11
ENDBRANCH   4   5
ENDBRANCH   2   4
TORSDOF 5
ENDMDL
MODEL      155
REMARK 921   NORMALIZED FREE ENERGY PREDICTED BY IDOCK:   -2.25 KCAL/MOL
REMARK 922        TOTAL FREE ENERGY PREDICTED BY IDOCK:   -3.52 KCAL/MOL
REMARK 923 INTER-LIGAND FREE ENERGY PREDICTED BY IDOCK:   -3.74 KCAL/MOL
REMARK 924 INTRA-LIGAND FREE ENERGY PREDICTED BY IDOCK:    0.22 KCAL/MOL
REMARK 927      BINDING AFFINITY PREDICTED BY RF-SCORE:    0.00 PKD
ROOT
HETATM    1  C   UNL     1      -5.173  18.294  65.193  1.00  0.00    -0.180 C  
HETATM    2  C   UNL     1      -6.457  18.747  65.825  1.00  0.00    -0.252 C  
HETATM    3  O   UNL     1      -6.614  19.806  66.410  1.00  0.00    -0.187 OA 
ENDROOT
BRANCH   2   4
HETATM    4  O   UNL     1      -7.419  17.825  65.586  1.00  0.00    -0.533 OA 
BRANCH   4   5
HETATM    5  C   UNL     1      -8.396  17.577  66.619  1.00  0.00    -0.261 C  
BRANCH   5   6
HETATM    6  C   UNL     1      -7.737  16.819  67.800  1.00  0.00    -0.168 C  
BRANCH   6   7
HETATM    7  N   UNL     1      -8.493  15.528  68.268  1.00  0.00    -0.153 N  
HETATM    8  C   UNL     1      -7.532  14.445  68.702  1.00  0.00    -0.126 C  
HETATM    9  C   UNL     1      -9.309  15.042  67.074  1.00  0.00    -0.224 C  
HETATM   10  C   UNL     1      -9.466  15.860  69.393  1.00  0.00    -0.248 C  
ENDBRANCH   6   7
ENDBRANCH   5   6
BRANCH   5  11
HETATM   11  C   UNL     1      -9.017  18.888  67.095  1.00  0.00    -0.299 C  
HETATM   12  C   UNL     1     -10.173  19.333  66.202  1.00  0.00    -0.470 C  
HETATM   13  O   UNL     1     -10.866  18.404  65.704  1.00  0.00    -0.411 OA 
HETATM   14  O   UNL     1     -10.210  20.570  65.981  1.00  0.00    -0.228 OA 
ENDBRANCH   5  11
ENDBRANCH   4   5
ENDBRANCH   2   4
TORSDOF 5
ENDMDL
MODEL      156
REMARK 921   NORMALIZED FREE ENERGY PREDICTED BY IDOCK:   -2.23 KCAL/MOL
REMARK 922        TOTAL FREE ENERGY PREDICTED BY IDOCK:   -3.49 KCAL/MOL
REMARK 923 INTER-LIGAND FREE ENERGY PREDICTED BY IDOCK:   -2.86 KCAL/MOL
REMARK 924 INTRA-LIGAND FREE ENERGY PREDICTED BY IDOCK:   -0.63 KCAL/MOL
REMARK 927      BINDING AFFINITY PREDICTED BY RF-SCORE:    0.00 PKD
ROOT
HETATM    1  C   UNL     1     -12.904   7.097  71.192  1.00  0.00    -0.340 C  
HETATM    2  C   UNL     1     -11.576   7.003  71.887  1.00  0.00    -0.284 C  
HETATM    3  O   UNL     1     -11.216   6.070  72.585  1.00  0.00    -0.263 OA 
ENDROOT
BRANCH   2   4
HETATM    4  O   UNL     1     -10.827   8.084  71.563  1.00  0.00    -0.225 OA 
BRANCH   4   5
HETATM    5  C   UNL     1      -9.477   7.863  71.106  1.00  0.00    -0.158 C  
BRANCH   5   6
HETATM    6  C   UNL     1      -9.363   8.207  69.599  1.00  0.00    -0.159 C  
BRANCH   6   7
HETATM    7  N   UNL     1      -9.114   6.982  68.653  1.00  0.00    -0.133 N  
HETATM    8  C   UNL     1      -7.975   7.241  67.694  1.00  0.00    -0.114 C  
HETATM    9  C   UNL     1     -10.405   6.763  67.871  1.00  0.00    -0.194 C  
HETATM   10  C   UNL     1      -8.846   5.725  69.472  1.00  0.00    -0.117 C  
ENDBRANCH   6   7
ENDBRANCH   5   6
BRANCH   5  11
HETATM   11  C   UNL     1      -8.491   8.693  71.927  1.00  0.00    -0.210 C  
HETATM   12  C   UNL     1      -8.085   7.988  73.218  1.00  0.00    -0.186 C  
HETATM   13  O   UNL     1      -8.011   6.731  73.154  1.00  0.00    -0.100 OA 
HETATM   14  O   UNL     1      -7.992   8.748  74.216  1.00  0.00    -0.378 OA 
ENDBRANCH   5  11
ENDBRANCH   4   5
ENDBRANCH   2   4
TORSDOF 5
ENDMDL
MODEL      157
REMARK 921   NORMALIZED FREE ENERGY PREDICTED BY IDOCK:   -2.23 KCAL/MOL
REMARK 922        TOTAL FREE ENERGY PREDICTED BY IDOCK:   -3.49 KCAL/MOL
REMARK 923 INTER-LIGAND FREE ENERGY PREDICTED BY IDOCK:   -2.81 KCAL/MOL
REMARK 924 INTRA-LIGAND FREE ENERGY PREDICTED BY IDOCK:   -0.68 KCAL/MOL
REMARK 927      BINDING AFFINITY PREDICTED BY RF-SCORE:    0.00 PKD
ROOT
HETATM    1  C   UNL     1     -12.677   6.903  71.519  1.00  0.00    -0.396 C  
HETATM    2  C   UNL     1     -11.769   6.305  72.556  1.00  0.00    -0.204 C  
HETATM    3  O   UNL     1     -11.806   5.146  72.933  1.00  0.00    -0.256 OA 
ENDROOT
BRANCH   2   4
HETATM    4  O   UNL     1     -10.872   7.238  72.952  1.00  0.00    -0.278 OA 
BRANCH   4   5
HETATM    5  C   UNL     1      -9.582   7.259  72.307  1.00  0.00    -0.146 C  
BRANCH   5   6
HETATM    6  C   UNL     1      -9.207   8.713  71.918  1.00  0.00    -0.275 C  
BRANCH   6   7
HETATM    7  N   UNL     1      -9.368   9.057  70.397  1.00  0.00    -0.191 N  
HETATM    8  C   UNL     1     -10.637   9.835  70.133  1.00  0.00    -0.285 C  
HETATM    9  C   UNL     1      -9.415   7.729  69.650  1.00  0.00    -0.156 C  
HETATM   10  C   UNL     1      -8.154   9.831  69.896  1.00  0.00    -0.182 C  
ENDBRANCH   6   7
ENDBRANCH   5   6
BRANCH   5  11
HETATM   11  C   UNL     1      -8.517   6.650  73.217  1.00  0.00    -0.128 C  
HETATM   12  C   UNL     1      -8.215   5.198  72.854  1.00  0.00    -0.109 C  
HETATM   13  O   UNL     1      -8.290   4.916  71.628  1.00  0.00    -0.110 OA 
HETATM   14  O   UNL     1      -8.048   4.441  73.844  1.00  0.00    -0.095 OA 
ENDBRANCH   5  11
ENDBRANCH   4   5
ENDBRANCH   2   4
TORSDOF 5
ENDMDL
MODEL      158
REMARK 921   NORMALIZED FREE ENERGY PREDICTED BY IDOCK:   -2.23 KCAL/MOL
REMARK 922        TOTAL FREE ENERGY PREDICTED BY IDOCK:   -3.49 KCAL/MOL
REMARK 923 INTER-LIGAND FREE ENERGY PREDICTED BY IDOCK:   -3.74 KCAL/MOL
REMARK 924 INTRA-LIGAND FREE ENERGY PREDICTED BY IDOCK:    0.25 KCAL/MOL
REMARK 927      BINDING AFFINITY PREDICTED BY RF-SCORE:    0.00 PKD
ROOT
HETATM    1  C   UNL     1     -12.501   7.993  71.604  1.00  0.00    -0.347 C  
HETATM    2  C   UNL     1     -12.462   9.493  71.660  1.00  0.00    -0.391 C  
HETATM    3  O   UNL     1     -13.408  10.208  71.942  1.00  0.00    -0.416 OA 
ENDROOT
BRANCH   2   4
HETATM    4  O   UNL     1     -11.199   9.913  71.411  1.00  0.00    -0.348 OA 
BRANCH   4   5
HETATM    5  C   UNL     1     -10.882  10.362  70.078  1.00  0.00    -0.289 C  
BRANCH   5   6
HETATM    6  C   UNL     1     -10.601   9.143  69.160  1.00  0.00    -0.208 C  
BRANCH   6   7
HETATM    7  N   UNL     1      -9.135   8.591  69.218  1.00  0.00    -0.152 N  
HETATM    8  C   UNL     1      -8.127   9.645  68.820  1.00  0.00    -0.097 C  
HETATM    9  C   UNL     1      -9.070   7.422  68.240  1.00  0.00    -0.128 C  
HETATM   10  C   UNL     1      -8.824   8.054  70.609  1.00  0.00    -0.143 C  
ENDBRANCH   6   7
ENDBRANCH   5   6
BRANCH   5  11
HETATM   11  C   UNL     1     -12.018  11.214  69.514  1.00  0.00    -0.425 C  
HETATM   12  C   UNL     1     -11.560  12.632  69.181  1.00  0.00    -0.320 C  
HETATM   13  O   UNL     1     -10.373  12.739  68.768  1.00  0.00    -0.208 OA 
HETATM   14  O   UNL     1     -12.392  13.527  69.477  1.00  0.00    -0.268 OA 
ENDBRANCH   5  11
ENDBRANCH   4   5
ENDBRANCH   2   4
TORSDOF 5
ENDMDL
MODEL      159
REMARK 921   NORMALIZED FREE ENERGY PREDICTED BY IDOCK:   -2.23 KCAL/MOL
REMARK 922        TOTAL FREE ENERGY PREDICTED BY IDOCK:   -3.49 KCAL/MOL
REMARK 923 INTER-LIGAND FREE ENERGY PREDICTED BY IDOCK:   -3.08 KCAL/MOL
REMARK 924 INTRA-LIGAND FREE ENERGY PREDICTED BY IDOCK:   -0.41 KCAL/MOL
REMARK 927      BINDING AFFINITY PREDICTED BY RF-SCORE:    0.00 PKD
ROOT
HETATM    1  C   UNL     1      -5.160  18.033  65.000  1.00  0.00    -0.063 C  
HETATM    2  C   UNL     1      -6.454  18.335  65.699  1.00  0.00    -0.274 C  
HETATM    3  O   UNL     1      -6.758  19.418  66.171  1.00  0.00    -0.200 OA 
ENDROOT
BRANCH   2   4
HETATM    4  O   UNL     1      -7.246  17.238  65.662  1.00  0.00    -0.245 OA 
BRANCH   4   5
HETATM    5  C   UNL     1      -8.096  16.974  66.798  1.00  0.00    -0.242 C  
BRANCH   5   6
HETATM    6  C   UNL     1      -9.493  17.609  66.575  1.00  0.00    -0.283 C  
BRANCH   6   7
HETATM    7  N   UNL     1     -10.127  18.284  67.840  1.00  0.00    -0.343 N  
HETATM    8  C   UNL     1     -10.946  19.500  67.472  1.00  0.00    -0.268 C  
HETATM    9  C   UNL     1      -8.968  18.699  68.741  1.00  0.00    -0.259 C  
HETATM   10  C   UNL     1     -10.978  17.280  68.607  1.00  0.00    -0.097 C  
ENDBRANCH   6   7
ENDBRANCH   5   6
BRANCH   5  11
HETATM   11  C   UNL     1      -8.217  15.470  67.039  1.00  0.00    -0.275 C  
HETATM   12  C   UNL     1      -6.981  14.898  67.727  1.00  0.00    -0.175 C  
HETATM   13  O   UNL     1      -6.411  15.665  68.550  1.00  0.00    -0.099 OA 
HETATM   14  O   UNL     1      -6.619  13.775  67.293  1.00  0.00    -0.259 OA 
ENDBRANCH   5  11
ENDBRANCH   4   5
ENDBRANCH   2   4
TORSDOF 5
ENDMDL
MODEL      160
REMARK 921   NORMALIZED FREE ENERGY PREDICTED BY IDOCK:   -2.23 KCAL/MOL
REMARK 922        TOTAL FREE ENERGY PREDICTED BY IDOCK:   -3.49 KCAL/MOL
REMARK 923 INTER-LIGAND FREE ENERGY PREDICTED BY IDOCK:   -3.28 KCAL/MOL
REMARK 924 INTRA-LIGAND FREE ENERGY PREDICTED BY IDOCK:   -0.21 KCAL/MOL
REMARK 927      BINDING AFFINITY PREDICTED BY RF-SCORE:    0.00 PKD
ROOT
HETATM    1  C   UNL     1     -12.145   8.599  72.171  1.00  0.00    -0.451 C  
HETATM    2  C   UNL     1     -11.970   9.749  71.222  1.00  0.00    -0.386 C  
HETATM    3  O   UNL     1     -12.879  10.412  70.752  1.00  0.00    -0.358 OA 
ENDROOT
BRANCH   2   4
HETATM    4  O   UNL     1     -10.648   9.967  71.026  1.00  0.00    -0.290 OA 
BRANCH   4   5
HETATM    5  C   UNL     1     -10.111   9.746  69.706  1.00  0.00    -0.239 C  
BRANCH   5   6
HETATM    6  C   UNL     1     -10.780   8.504  69.061  1.00  0.00    -0.092 C  
BRANCH   6   7
HETATM    7  N   UNL     1      -9.868   7.233  68.963  1.00  0.00    -0.162 N  
HETATM    8  C   UNL     1      -9.478   6.936  67.533  1.00  0.00    -0.128 C  
HETATM    9  C   UNL     1     -10.677   6.069  69.526  1.00  0.00    -0.335 C  
HETATM   10  C   UNL     1      -8.627   7.401  69.830  1.00  0.00    -0.140 C  
ENDBRANCH   6   7
ENDBRANCH   5   6
BRANCH   5  11
HETATM   11  C   UNL     1     -10.310  10.983  68.832  1.00  0.00    -0.223 C  
HETATM   12  C   UNL     1      -8.992  11.498  68.258  1.00  0.00    -0.177 C  
HETATM   13  O   UNL     1      -8.134  10.615  67.985  1.00  0.00    -0.108 OA 
HETATM   14  O   UNL     1      -8.888  12.751  68.245  1.00  0.00    -0.186 OA 
ENDBRANCH   5  11
ENDBRANCH   4   5
ENDBRANCH   2   4
TORSDOF 5
ENDMDL
MODEL      161
REMARK 921   NORMALIZED FREE ENERGY PREDICTED BY IDOCK:   -2.22 KCAL/MOL
REMARK 922        TOTAL FREE ENERGY PREDICTED BY IDOCK:   -3.48 KCAL/MOL
REMARK 923 INTER-LIGAND FREE ENERGY PREDICTED BY IDOCK:   -3.33 KCAL/MOL
REMARK 924 INTRA-LIGAND FREE ENERGY PREDICTED BY IDOCK:   -0.15 KCAL/MOL
REMARK 927      BINDING AFFINITY PREDICTED BY RF-SCORE:    0.00 PKD
ROOT
HETATM    1  C   UNL     1      -6.715  12.646  69.001  1.00  0.00    -0.097 C  
HETATM    2  C   UNL     1      -7.351  12.419  67.660  1.00  0.00    -0.132 C  
HETATM    3  O   UNL     1      -6.745  12.187  66.628  1.00  0.00     0.018 OA 
ENDROOT
BRANCH   2   4
HETATM    4  O   UNL     1      -8.698  12.449  67.797  1.00  0.00    -0.158 OA 
BRANCH   4   5
HETATM    5  C   UNL     1      -9.395  13.650  67.405  1.00  0.00    -0.227 C  
BRANCH   5   6
HETATM    6  C   UNL     1      -8.401  14.837  67.323  1.00  0.00    -0.212 C  
BRANCH   6   7
HETATM    7  N   UNL     1      -8.732  16.048  68.263  1.00  0.00    -0.173 N  
HETATM    8  C   UNL     1      -9.498  15.609  69.489  1.00  0.00    -0.275 C  
HETATM    9  C   UNL     1      -9.581  17.016  67.446  1.00  0.00    -0.246 C  
HETATM   10  C   UNL     1      -7.453  16.774  68.664  1.00  0.00    -0.219 C  
ENDBRANCH   6   7
ENDBRANCH   5   6
BRANCH   5  11
HETATM   11  C   UNL     1     -10.105  13.445  66.069  1.00  0.00    -0.308 C  
HETATM   12  C   UNL     1     -11.623  13.400  66.227  1.00  0.00    -0.344 C  
HETATM   13  O   UNL     1     -12.099  14.136  67.134  1.00  0.00    -0.426 OA 
HETATM   14  O   UNL     1     -12.193  12.540  65.509  1.00  0.00    -0.528 OA 
ENDBRANCH   5  11
ENDBRANCH   4   5
ENDBRANCH   2   4
TORSDOF 5
ENDMDL
MODEL      162
REMARK 921   NORMALIZED FREE ENERGY PREDICTED BY IDOCK:   -2.22 KCAL/MOL
REMARK 922        TOTAL FREE ENERGY PREDICTED BY IDOCK:   -3.48 KCAL/MOL
REMARK 923 INTER-LIGAND FREE ENERGY PREDICTED BY IDOCK:   -3.10 KCAL/MOL
REMARK 924 INTRA-LIGAND FREE ENERGY PREDICTED BY IDOCK:   -0.37 KCAL/MOL
REMARK 927      BINDING AFFINITY PREDICTED BY RF-SCORE:    0.00 PKD
ROOT
HETATM    1  C   UNL     1     -11.779   8.463  72.518  1.00  0.00    -0.429 C  
HETATM    2  C   UNL     1     -11.920   7.659  71.257  1.00  0.00    -0.306 C  
HETATM    3  O   UNL     1     -12.810   6.855  71.036  1.00  0.00    -0.333 OA 
ENDROOT
BRANCH   2   4
HETATM    4  O   UNL     1     -10.942   8.016  70.391  1.00  0.00    -0.246 OA 
BRANCH   4   5
HETATM    5  C   UNL     1     -10.060   6.987  69.898  1.00  0.00    -0.193 C  
BRANCH   5   6
HETATM    6  C   UNL     1      -8.930   7.620  69.045  1.00  0.00    -0.137 C  
BRANCH   6   7
HETATM    7  N   UNL     1      -9.039   7.366  67.502  1.00  0.00    -0.125 N  
HETATM    8  C   UNL     1      -8.552   5.984  67.129  1.00  0.00    -0.106 C  
HETATM    9  C   UNL     1      -8.169   8.418  66.823  1.00  0.00    -0.102 C  
HETATM   10  C   UNL     1     -10.473   7.571  67.030  1.00  0.00    -0.338 C  
ENDBRANCH   6   7
ENDBRANCH   5   6
BRANCH   5  11
HETATM   11  C   UNL     1      -9.478   6.180  71.057  1.00  0.00    -0.187 C  
HETATM   12  C   UNL     1      -9.895   4.713  71.001  1.00  0.00    -0.198 C  
HETATM   13  O   UNL     1     -10.027   4.227  69.845  1.00  0.00    -0.221 OA 
HETATM   14  O   UNL     1     -10.172   4.211  72.120  1.00  0.00    -0.182 OA 
ENDBRANCH   5  11
ENDBRANCH   4   5
ENDBRANCH   2   4
TORSDOF 5
ENDMDL
MODEL      163
REMARK 921   NORMALIZED FREE ENERGY PREDICTED BY IDOCK:   -2.20 KCAL/MOL
REMARK 922        TOTAL FREE ENERGY PREDICTED BY IDOCK:   -3.45 KCAL/MOL
REMARK 923 INTER-LIGAND FREE ENERGY PREDICTED BY IDOCK:   -3.19 KCAL/MOL
REMARK 924 INTRA-LIGAND FREE ENERGY PREDICTED BY IDOCK:   -0.26 KCAL/MOL
REMARK 927      BINDING AFFINITY PREDICTED BY RF-SCORE:    0.00 PKD
ROOT
HETATM    1  C   UNL     1     -12.393  13.317  63.360  1.00  0.00    -0.402 C  
HETATM    2  C   UNL     1     -11.620  13.148  64.636  1.00  0.00    -0.345 C  
HETATM    3  O   UNL     1     -11.221  14.060  65.339  1.00  0.00    -0.306 OA 
ENDROOT
BRANCH   2   4
HETATM    4  O   UNL     1     -11.496  11.827  64.908  1.00  0.00    -0.287 OA 
BRANCH   4   5
HETATM    5  C   UNL     1     -10.190  11.324  65.258  1.00  0.00    -0.274 C  
BRANCH   5   6
HETATM    6  C   UNL     1     -10.176  10.866  66.739  1.00  0.00    -0.231 C  
BRANCH   6   7
HETATM    7  N   UNL     1      -9.525  11.878  67.743  1.00  0.00    -0.178 N  
HETATM    8  C   UNL     1     -10.570  12.698  68.464  1.00  0.00    -0.243 C  
HETATM    9  C   UNL     1      -8.630  12.797  66.919  1.00  0.00    -0.137 C  
HETATM   10  C   UNL     1      -8.642  11.141  68.743  1.00  0.00    -0.132 C  
ENDBRANCH   6   7
ENDBRANCH   5   6
BRANCH   5  11
HETATM   11  C   UNL     1      -9.792  10.177  64.332  1.00  0.00    -0.307 C  
HETATM   12  C   UNL     1      -8.314  10.234  63.950  1.00  0.00    -0.165 C  
HETATM   13  O   UNL     1      -7.538  10.677  64.839  1.00  0.00    -0.056 OA 
HETATM   14  O   UNL     1      -8.078   9.941  62.751  1.00  0.00    -0.122 OA 
ENDBRANCH   5  11
ENDBRANCH   4   5
ENDBRANCH   2   4
TORSDOF 5
ENDMDL
MODEL      164
REMARK 921   NORMALIZED FREE ENERGY PREDICTED BY IDOCK:   -2.19 KCAL/MOL
REMARK 922        TOTAL FREE ENERGY PREDICTED BY IDOCK:   -3.44 KCAL/MOL
REMARK 923 INTER-LIGAND FREE ENERGY PREDICTED BY IDOCK:   -2.81 KCAL/MOL
REMARK 924 INTRA-LIGAND FREE ENERGY PREDICTED BY IDOCK:   -0.63 KCAL/MOL
REMARK 927      BINDING AFFINITY PREDICTED BY RF-SCORE:    0.00 PKD
ROOT
HETATM    1  C   UNL     1     -10.617   4.907  66.146  1.00  0.00    -0.322 C  
HETATM    2  C   UNL     1      -9.199   5.313  65.866  1.00  0.00    -0.159 C  
HETATM    3  O   UNL     1      -8.671   5.300  64.767  1.00  0.00    -0.152 OA 
ENDROOT
BRANCH   2   4
HETATM    4  O   UNL     1      -8.628   5.752  67.013  1.00  0.00    -0.111 OA 
BRANCH   4   5
HETATM    5  C   UNL     1      -9.134   6.968  67.603  1.00  0.00    -0.122 C  
BRANCH   5   6
HETATM    6  C   UNL     1      -8.703   7.055  69.090  1.00  0.00    -0.132 C  
BRANCH   6   7
HETATM    7  N   UNL     1      -9.882   7.071  70.124  1.00  0.00    -0.175 N  
HETATM    8  C   UNL     1     -11.138   6.459  69.547  1.00  0.00    -0.396 C  
HETATM    9  C   UNL     1     -10.136   8.533  70.475  1.00  0.00    -0.192 C  
HETATM   10  C   UNL     1      -9.476   6.347  71.402  1.00  0.00    -0.155 C  
ENDBRANCH   6   7
ENDBRANCH   5   6
BRANCH   5  11
HETATM   11  C   UNL     1      -8.642   8.186  66.824  1.00  0.00    -0.136 C  
HETATM   12  C   UNL     1      -9.797   9.028  66.287  1.00  0.00    -0.291 C  
HETATM   13  O   UNL     1     -10.826   9.068  67.014  1.00  0.00    -0.183 OA 
HETATM   14  O   UNL     1      -9.614   9.477  65.127  1.00  0.00    -0.280 OA 
ENDBRANCH   5  11
ENDBRANCH   4   5
ENDBRANCH   2   4
TORSDOF 5
ENDMDL
MODEL      165
REMARK 921   NORMALIZED FREE ENERGY PREDICTED BY IDOCK:   -2.18 KCAL/MOL
REMARK 922        TOTAL FREE ENERGY PREDICTED BY IDOCK:   -3.43 KCAL/MOL
REMARK 923 INTER-LIGAND FREE ENERGY PREDICTED BY IDOCK:   -2.99 KCAL/MOL
REMARK 924 INTRA-LIGAND FREE ENERGY PREDICTED BY IDOCK:   -0.44 KCAL/MOL
REMARK 927      BINDING AFFINITY PREDICTED BY RF-SCORE:    0.00 PKD
ROOT
HETATM    1  C   UNL     1     -10.845   7.624  72.495  1.00  0.00    -0.367 C  
HETATM    2  C   UNL     1     -11.259   6.959  71.214  1.00  0.00    -0.268 C  
HETATM    3  O   UNL     1     -12.408   6.846  70.823  1.00  0.00    -0.376 OA 
ENDROOT
BRANCH   2   4
HETATM    4  O   UNL     1     -10.152   6.565  70.540  1.00  0.00    -0.182 OA 
BRANCH   4   5
HETATM    5  C   UNL     1      -9.875   7.184  69.266  1.00  0.00    -0.161 C  
BRANCH   5   6
HETATM    6  C   UNL     1      -8.787   8.276  69.432  1.00  0.00    -0.146 C  
BRANCH   6   7
HETATM    7  N   UNL     1      -9.020   9.581  68.594  1.00  0.00    -0.131 N  
HETATM    8  C   UNL     1     -10.492   9.851  68.382  1.00  0.00    -0.208 C  
HETATM    9  C   UNL     1      -8.338   9.363  67.248  1.00  0.00    -0.125 C  
HETATM   10  C   UNL     1      -8.352  10.772  69.269  1.00  0.00    -0.062 C  
ENDBRANCH   6   7
ENDBRANCH   5   6
BRANCH   5  11
HETATM   11  C   UNL     1      -9.439   6.136  68.245  1.00  0.00    -0.117 C  
HETATM   12  C   UNL     1     -10.491   5.920  67.160  1.00  0.00    -0.272 C  
HETATM   13  O   UNL     1     -11.154   6.941  66.831  1.00  0.00    -0.379 OA 
HETATM   14  O   UNL     1     -10.644   4.719  66.819  1.00  0.00    -0.193 OA 
ENDBRANCH   5  11
ENDBRANCH   4   5
ENDBRANCH   2   4
TORSDOF 5
ENDMDL
MODEL      166
REMARK 921   NORMALIZED FREE ENERGY PREDICTED BY IDOCK:   -2.18 KCAL/MOL
REMARK 922        TOTAL FREE ENERGY PREDICTED BY IDOCK:   -3.42 KCAL/MOL
REMARK 923 INTER-LIGAND FREE ENERGY PREDICTED BY IDOCK:   -3.59 KCAL/MOL
REMARK 924 INTRA-LIGAND FREE ENERGY PREDICTED BY IDOCK:    0.16 KCAL/MOL
REMARK 927      BINDING AFFINITY PREDICTED BY RF-SCORE:    0.00 PKD
ROOT
HETATM    1  C   UNL     1      -6.254  19.486  64.974  1.00  0.00    -0.312 C  
HETATM    2  C   UNL     1      -7.321  19.126  65.967  1.00  0.00    -0.272 C  
HETATM    3  O   UNL     1      -8.259  18.378  65.746  1.00  0.00    -0.494 OA 
ENDROOT
BRANCH   2   4
HETATM    4  O   UNL     1      -7.039  19.711  67.155  1.00  0.00    -0.202 OA 
BRANCH   4   5
HETATM    5  C   UNL     1      -7.324  18.974  68.362  1.00  0.00    -0.295 C  
BRANCH   5   6
HETATM    6  C   UNL     1      -6.282  17.841  68.550  1.00  0.00    -0.184 C  
BRANCH   6   7
HETATM    7  N   UNL     1      -6.877  16.392  68.614  1.00  0.00    -0.145 N  
HETATM    8  C   UNL     1      -6.634  15.633  67.330  1.00  0.00    -0.159 C  
HETATM    9  C   UNL     1      -8.377  16.546  68.844  1.00  0.00    -0.241 C  
HETATM   10  C   UNL     1      -6.299  15.632  69.801  1.00  0.00    -0.170 C  
ENDBRANCH   6   7
ENDBRANCH   5   6
BRANCH   5  11
HETATM   11  C   UNL     1      -7.334  19.907  69.571  1.00  0.00    -0.077 C  
HETATM   12  C   UNL     1      -5.949  20.478  69.866  1.00  0.00    -0.297 C  
HETATM   13  O   UNL     1      -5.222  20.693  68.859  1.00  0.00    -0.237 OA 
HETATM   14  O   UNL     1      -5.668  20.547  71.089  1.00  0.00    -0.500 OA 
ENDBRANCH   5  11
ENDBRANCH   4   5
ENDBRANCH   2   4
TORSDOF 5
ENDMDL
MODEL      167
REMARK 921   NORMALIZED FREE ENERGY PREDICTED BY IDOCK:   -2.17 KCAL/MOL
REMARK 922        TOTAL FREE ENERGY PREDICTED BY IDOCK:   -3.41 KCAL/MOL
REMARK 923 INTER-LIGAND FREE ENERGY PREDICTED BY IDOCK:   -3.67 KCAL/MOL
REMARK 924 INTRA-LIGAND FREE ENERGY PREDICTED BY IDOCK:    0.27 KCAL/MOL
REMARK 927      BINDING AFFINITY PREDICTED BY RF-SCORE:    0.00 PKD
ROOT
HETATM    1  C   UNL     1     -11.253  10.377  69.834  1.00  0.00    -0.371 C  
HETATM    2  C   UNL     1     -11.501  11.567  68.954  1.00  0.00    -0.289 C  
HETATM    3  O   UNL     1     -11.661  12.709  69.350  1.00  0.00    -0.297 OA 
ENDROOT
BRANCH   2   4
HETATM    4  O   UNL     1     -11.456  11.179  67.657  1.00  0.00    -0.428 OA 
BRANCH   4   5
HETATM    5  C   UNL     1     -10.183  11.217  66.980  1.00  0.00    -0.215 C  
BRANCH   5   6
HETATM    6  C   UNL     1     -10.107  10.079  65.929  1.00  0.00    -0.249 C  
BRANCH   6   7
HETATM    7  N   UNL     1      -8.932   9.061  66.135  1.00  0.00    -0.165 N  
HETATM    8  C   UNL     1      -8.539   8.394  64.836  1.00  0.00    -0.080 C  
HETATM    9  C   UNL     1      -9.432   8.010  67.121  1.00  0.00    -0.162 C  
HETATM   10  C   UNL     1      -7.730   9.756  66.762  1.00  0.00    -0.098 C  
ENDBRANCH   6   7
ENDBRANCH   5   6
BRANCH   5  11
HETATM   11  C   UNL     1      -9.967  12.578  66.322  1.00  0.00    -0.263 C  
HETATM   12  C   UNL     1     -10.885  12.786  65.121  1.00  0.00    -0.291 C  
HETATM   13  O   UNL     1     -12.027  12.258  65.208  1.00  0.00    -0.387 OA 
HETATM   14  O   UNL     1     -10.338  13.359  64.144  1.00  0.00    -0.380 OA 
ENDBRANCH   5  11
ENDBRANCH   4   5
ENDBRANCH   2   4
TORSDOF 5
ENDMDL
MODEL      168
REMARK 921   NORMALIZED FREE ENERGY PREDICTED BY IDOCK:   -2.16 KCAL/MOL
REMARK 922        TOTAL FREE ENERGY PREDICTED BY IDOCK:   -3.40 KCAL/MOL
REMARK 923 INTER-LIGAND FREE ENERGY PREDICTED BY IDOCK:   -3.62 KCAL/MOL
REMARK 924 INTRA-LIGAND FREE ENERGY PREDICTED BY IDOCK:    0.22 KCAL/MOL
REMARK 927      BINDING AFFINITY PREDICTED BY RF-SCORE:    0.00 PKD
ROOT
HETATM    1  C   UNL     1      -5.841  19.052  64.718  1.00  0.00    -0.317 C  
HETATM    2  C   UNL     1      -7.007  19.133  65.661  1.00  0.00    -0.260 C  
HETATM    3  O   UNL     1      -7.926  19.929  65.571  1.00  0.00    -0.353 OA 
ENDROOT
BRANCH   2   4
HETATM    4  O   UNL     1      -6.903  18.146  66.582  1.00  0.00    -0.183 OA 
BRANCH   4   5
HETATM    5  C   UNL     1      -7.736  18.221  67.757  1.00  0.00    -0.235 C  
BRANCH   5   6
HETATM    6  C   UNL     1      -8.321  16.822  68.083  1.00  0.00    -0.201 C  
BRANCH   6   7
HETATM    7  N   UNL     1      -9.869  16.684  67.879  1.00  0.00    -0.243 N  
HETATM    8  C   UNL     1     -10.403  17.740  66.938  1.00  0.00    -0.344 C  
HETATM    9  C   UNL     1     -10.508  16.849  69.253  1.00  0.00    -0.319 C  
HETATM   10  C   UNL     1     -10.215  15.291  67.367  1.00  0.00    -0.243 C  
ENDBRANCH   6   7
ENDBRANCH   5   6
BRANCH   5  11
HETATM   11  C   UNL     1      -6.943  18.766  68.943  1.00  0.00    -0.335 C  
HETATM   12  C   UNL     1      -5.744  17.885  69.285  1.00  0.00    -0.213 C  
HETATM   13  O   UNL     1      -5.183  17.322  68.305  1.00  0.00    -0.128 OA 
HETATM   14  O   UNL     1      -5.543  17.739  70.518  1.00  0.00    -0.250 OA 
ENDBRANCH   5  11
ENDBRANCH   4   5
ENDBRANCH   2   4
TORSDOF 5
ENDMDL
MODEL      169
REMARK 921   NORMALIZED FREE ENERGY PREDICTED BY IDOCK:   -2.16 KCAL/MOL
REMARK 922        TOTAL FREE ENERGY PREDICTED BY IDOCK:   -3.40 KCAL/MOL
REMARK 923 INTER-LIGAND FREE ENERGY PREDICTED BY IDOCK:   -3.01 KCAL/MOL
REMARK 924 INTRA-LIGAND FREE ENERGY PREDICTED BY IDOCK:   -0.39 KCAL/MOL
REMARK 927      BINDING AFFINITY PREDICTED BY RF-SCORE:    0.00 PKD
ROOT
HETATM    1  C   UNL     1      -6.858   6.629  68.516  1.00  0.00    -0.070 C  
HETATM    2  C   UNL     1      -7.489   6.801  69.868  1.00  0.00    -0.095 C  
HETATM    3  O   UNL     1      -7.033   6.372  70.914  1.00  0.00    -0.064 OA 
ENDROOT
BRANCH   2   4
HETATM    4  O   UNL     1      -8.604   7.559  69.744  1.00  0.00    -0.137 OA 
BRANCH   4   5
HETATM    5  C   UNL     1      -9.866   6.985  70.144  1.00  0.00    -0.175 C  
BRANCH   5   6
HETATM    6  C   UNL     1     -10.977   8.065  70.105  1.00  0.00    -0.226 C  
BRANCH   6   7
HETATM    7  N   UNL     1     -11.795   8.227  71.433  1.00  0.00    -0.286 N  
HETATM    8  C   UNL     1     -12.550   9.536  71.466  1.00  0.00    -0.373 C  
HETATM    9  C   UNL     1     -10.785   8.188  72.576  1.00  0.00    -0.349 C  
HETATM   10  C   UNL     1     -12.751   7.055  71.615  1.00  0.00    -0.377 C  
ENDBRANCH   6   7
ENDBRANCH   5   6
BRANCH   5  11
HETATM   11  C   UNL     1     -10.226   5.804  69.245  1.00  0.00    -0.292 C  
HETATM   12  C   UNL     1      -9.880   4.465  69.890  1.00  0.00    -0.220 C  
HETATM   13  O   UNL     1     -10.005   4.415  71.144  1.00  0.00    -0.190 OA 
HETATM   14  O   UNL     1      -9.398   3.617  69.097  1.00  0.00    -0.151 OA 
ENDBRANCH   5  11
ENDBRANCH   4   5
ENDBRANCH   2   4
TORSDOF 5
ENDMDL
MODEL      170
REMARK 921   NORMALIZED FREE ENERGY PREDICTED BY IDOCK:   -2.15 KCAL/MOL
REMARK 922        TOTAL FREE ENERGY PREDICTED BY IDOCK:   -3.39 KCAL/MOL
REMARK 923 INTER-LIGAND FREE ENERGY PREDICTED BY IDOCK:   -4.37 KCAL/MOL
REMARK 924 INTRA-LIGAND FREE ENERGY PREDICTED BY IDOCK:    0.99 KCAL/MOL
REMARK 927      BINDING AFFINITY PREDICTED BY RF-SCORE:    0.00 PKD
ROOT
HETATM    1  C   UNL     1      -5.565  19.122  64.591  1.00  0.00    -0.288 C  
HETATM    2  C   UNL     1      -6.838  19.213  65.383  1.00  0.00    -0.204 C  
HETATM    3  O   UNL     1      -7.253  20.222  65.927  1.00  0.00    -0.277 OA 
ENDROOT
BRANCH   2   4
HETATM    4  O   UNL     1      -7.474  18.018  65.341  1.00  0.00    -0.482 OA 
BRANCH   4   5
HETATM    5  C   UNL     1      -8.129  17.553  66.539  1.00  0.00    -0.270 C  
BRANCH   5   6
HETATM    6  C   UNL     1      -9.269  18.527  66.933  1.00  0.00    -0.290 C  
BRANCH   6   7
HETATM    7  N   UNL     1      -9.372  18.846  68.465  1.00  0.00    -0.350 N  
HETATM    8  C   UNL     1     -10.246  20.052  68.725  1.00  0.00    -0.284 C  
HETATM    9  C   UNL     1      -7.954  19.125  68.950  1.00  0.00    -0.305 C  
HETATM   10  C   UNL     1      -9.896  17.634  69.226  1.00  0.00    -0.050 C  
ENDBRANCH   6   7
ENDBRANCH   5   6
BRANCH   5  11
HETATM   11  C   UNL     1      -8.669  16.138  66.340  1.00  0.00    -0.360 C  
HETATM   12  C   UNL     1     -10.087  16.140  65.775  1.00  0.00    -0.363 C  
HETATM   13  O   UNL     1     -10.355  17.078  64.977  1.00  0.00    -0.540 OA 
HETATM   14  O   UNL     1     -10.844  15.270  66.275  1.00  0.00    -0.311 OA 
ENDBRANCH   5  11
ENDBRANCH   4   5
ENDBRANCH   2   4
TORSDOF 5
ENDMDL
MODEL      171
REMARK 921   NORMALIZED FREE ENERGY PREDICTED BY IDOCK:   -2.15 KCAL/MOL
REMARK 922        TOTAL FREE ENERGY PREDICTED BY IDOCK:   -3.38 KCAL/MOL
REMARK 923 INTER-LIGAND FREE ENERGY PREDICTED BY IDOCK:   -2.74 KCAL/MOL
REMARK 924 INTRA-LIGAND FREE ENERGY PREDICTED BY IDOCK:   -0.64 KCAL/MOL
REMARK 927      BINDING AFFINITY PREDICTED BY RF-SCORE:    0.00 PKD
ROOT
HETATM    1  C   UNL     1     -11.851   6.407  70.513  1.00  0.00    -0.316 C  
HETATM    2  C   UNL     1     -10.669   5.891  69.745  1.00  0.00    -0.340 C  
HETATM    3  O   UNL     1      -9.644   5.458  70.244  1.00  0.00    -0.160 OA 
ENDROOT
BRANCH   2   4
HETATM    4  O   UNL     1     -10.950   5.927  68.421  1.00  0.00    -0.274 OA 
BRANCH   4   5
HETATM    5  C   UNL     1      -9.977   6.517  67.534  1.00  0.00    -0.137 C  
BRANCH   5   6
HETATM    6  C   UNL     1      -9.579   5.502  66.432  1.00  0.00    -0.158 C  
BRANCH   6   7
HETATM    7  N   UNL     1      -8.162   4.853  66.604  1.00  0.00    -0.107 N  
HETATM    8  C   UNL     1      -7.581   4.421  65.277  1.00  0.00    -0.085 C  
HETATM    9  C   UNL     1      -8.345   3.636  67.506  1.00  0.00    -0.094 C  
HETATM   10  C   UNL     1      -7.218   5.819  67.310  1.00  0.00    -0.076 C  
ENDBRANCH   6   7
ENDBRANCH   5   6
BRANCH   5  11
HETATM   11  C   UNL     1     -10.525   7.801  66.915  1.00  0.00    -0.388 C  
HETATM   12  C   UNL     1     -10.150   9.036  67.731  1.00  0.00    -0.208 C  
HETATM   13  O   UNL     1      -9.025   8.993  68.301  1.00  0.00    -0.133 OA 
HETATM   14  O   UNL     1     -11.066   9.891  67.828  1.00  0.00    -0.269 OA 
ENDBRANCH   5  11
ENDBRANCH   4   5
ENDBRANCH   2   4
TORSDOF 5
ENDMDL
MODEL      172
REMARK 921   NORMALIZED FREE ENERGY PREDICTED BY IDOCK:   -2.13 KCAL/MOL
REMARK 922        TOTAL FREE ENERGY PREDICTED BY IDOCK:   -3.37 KCAL/MOL
REMARK 923 INTER-LIGAND FREE ENERGY PREDICTED BY IDOCK:   -2.77 KCAL/MOL
REMARK 924 INTRA-LIGAND FREE ENERGY PREDICTED BY IDOCK:   -0.59 KCAL/MOL
REMARK 927      BINDING AFFINITY PREDICTED BY RF-SCORE:    0.00 PKD
ROOT
HETATM    1  C   UNL     1      -7.137  10.427  68.278  1.00  0.00    -0.078 C  
HETATM    2  C   UNL     1      -8.372  11.250  68.508  1.00  0.00    -0.155 C  
HETATM    3  O   UNL     1      -8.509  12.415  68.175  1.00  0.00    -0.167 OA 
ENDROOT
BRANCH   2   4
HETATM    4  O   UNL     1      -9.322  10.474  69.081  1.00  0.00    -0.194 OA 
BRANCH   4   5
HETATM    5  C   UNL     1      -9.737   9.280  68.386  1.00  0.00    -0.154 C  
BRANCH   5   6
HETATM    6  C   UNL     1     -10.460   8.319  69.366  1.00  0.00    -0.220 C  
BRANCH   6   7
HETATM    7  N   UNL     1      -9.619   7.076  69.821  1.00  0.00    -0.152 N  
HETATM    8  C   UNL     1      -8.407   6.871  68.943  1.00  0.00    -0.121 C  
HETATM    9  C   UNL     1     -10.540   5.865  69.718  1.00  0.00    -0.303 C  
HETATM   10  C   UNL     1      -9.202   7.223  71.280  1.00  0.00    -0.150 C  
ENDBRANCH   6   7
ENDBRANCH   5   6
BRANCH   5  11
HETATM   11  C   UNL     1     -10.641   9.632  67.207  1.00  0.00    -0.315 C  
HETATM   12  C   UNL     1      -9.943   9.419  65.866  1.00  0.00    -0.256 C  
HETATM   13  O   UNL     1      -9.128   8.459  65.821  1.00  0.00    -0.185 OA 
HETATM   14  O   UNL     1     -10.184  10.309  65.010  1.00  0.00    -0.320 OA 
ENDBRANCH   5  11
ENDBRANCH   4   5
ENDBRANCH   2   4
TORSDOF 5
ENDMDL
MODEL      173
REMARK 921   NORMALIZED FREE ENERGY PREDICTED BY IDOCK:   -2.13 KCAL/MOL
REMARK 922        TOTAL FREE ENERGY PREDICTED BY IDOCK:   -3.36 KCAL/MOL
REMARK 923 INTER-LIGAND FREE ENERGY PREDICTED BY IDOCK:   -3.93 KCAL/MOL
REMARK 924 INTRA-LIGAND FREE ENERGY PREDICTED BY IDOCK:    0.57 KCAL/MOL
REMARK 927      BINDING AFFINITY PREDICTED BY RF-SCORE:    0.00 PKD
ROOT
HETATM    1  C   UNL     1     -11.084  11.668  63.665  1.00  0.00    -0.506 C  
HETATM    2  C   UNL     1     -11.037  12.858  64.579  1.00  0.00    -0.342 C  
HETATM    3  O   UNL     1     -10.390  13.872  64.376  1.00  0.00    -0.384 OA 
ENDROOT
BRANCH   2   4
HETATM    4  O   UNL     1     -11.872  12.649  65.624  1.00  0.00    -0.392 OA 
BRANCH   4   5
HETATM    5  C   UNL     1     -11.319  12.098  66.838  1.00  0.00    -0.343 C  
BRANCH   5   6
HETATM    6  C   UNL     1      -9.812  12.449  66.940  1.00  0.00    -0.215 C  
BRANCH   6   7
HETATM    7  N   UNL     1      -8.860  11.228  67.189  1.00  0.00    -0.150 N  
HETATM    8  C   UNL     1      -7.819  11.538  68.240  1.00  0.00    -0.138 C  
HETATM    9  C   UNL     1      -8.175  10.929  65.860  1.00  0.00    -0.133 C  
HETATM   10  C   UNL     1      -9.667   9.998  67.585  1.00  0.00    -0.158 C  
ENDBRANCH   6   7
ENDBRANCH   5   6
BRANCH   5  11
HETATM   11  C   UNL     1     -12.080  12.616  68.057  1.00  0.00    -0.152 C  
HETATM   12  C   UNL     1     -11.793  14.091  68.328  1.00  0.00    -0.371 C  
HETATM   13  O   UNL     1     -11.596  14.805  67.308  1.00  0.00    -0.370 OA 
HETATM   14  O   UNL     1     -11.671  14.379  69.546  1.00  0.00    -0.275 OA 
ENDBRANCH   5  11
ENDBRANCH   4   5
ENDBRANCH   2   4
TORSDOF 5
ENDMDL
MODEL      174
REMARK 921   NORMALIZED FREE ENERGY PREDICTED BY IDOCK:   -2.13 KCAL/MOL
REMARK 922        TOTAL FREE ENERGY PREDICTED BY IDOCK:   -3.36 KCAL/MOL
REMARK 923 INTER-LIGAND FREE ENERGY PREDICTED BY IDOCK:   -2.88 KCAL/MOL
REMARK 924 INTRA-LIGAND FREE ENERGY PREDICTED BY IDOCK:   -0.48 KCAL/MOL
REMARK 927      BINDING AFFINITY PREDICTED BY RF-SCORE:    0.00 PKD
ROOT
HETATM    1  C   UNL     1     -10.843  10.186  70.071  1.00  0.00    -0.361 C  
HETATM    2  C   UNL     1     -11.438  10.967  68.935  1.00  0.00    -0.296 C  
HETATM    3  O   UNL     1     -12.511  10.727  68.407  1.00  0.00    -0.179 OA 
ENDROOT
BRANCH   2   4
HETATM    4  O   UNL     1     -10.627  12.010  68.639  1.00  0.00    -0.223 OA 
BRANCH   4   5
HETATM    5  C   UNL     1      -9.527  11.780  67.734  1.00  0.00    -0.181 C  
BRANCH   5   6
HETATM    6  C   UNL     1      -9.719  12.616  66.442  1.00  0.00    -0.258 C  
BRANCH   6   7
HETATM    7  N   UNL     1     -10.591  11.933  65.332  1.00  0.00    -0.261 N  
HETATM    8  C   UNL     1     -10.649  10.434  65.513  1.00  0.00    -0.018 C  
HETATM    9  C   UNL     1      -9.935  12.265  63.996  1.00  0.00    -0.258 C  
HETATM   10  C   UNL     1     -11.995  12.524  65.322  1.00  0.00    -0.438 C  
ENDBRANCH   6   7
ENDBRANCH   5   6
BRANCH   5  11
HETATM   11  C   UNL     1      -8.199  12.121  68.408  1.00  0.00    -0.145 C  
HETATM   12  C   UNL     1      -7.585  10.912  69.109  1.00  0.00    -0.133 C  
HETATM   13  O   UNL     1      -7.788   9.798  68.555  1.00  0.00    -0.080 OA 
HETATM   14  O   UNL     1      -7.054  11.172  70.219  1.00  0.00    -0.046 OA 
ENDBRANCH   5  11
ENDBRANCH   4   5
ENDBRANCH   2   4
TORSDOF 5
ENDMDL
MODEL      175
REMARK 921   NORMALIZED FREE ENERGY PREDICTED BY IDOCK:   -2.12 KCAL/MOL
REMARK 922        TOTAL FREE ENERGY PREDICTED BY IDOCK:   -3.35 KCAL/MOL
REMARK 923 INTER-LIGAND FREE ENERGY PREDICTED BY IDOCK:   -4.19 KCAL/MOL
REMARK 924 INTRA-LIGAND FREE ENERGY PREDICTED BY IDOCK:    0.84 KCAL/MOL
REMARK 927      BINDING AFFINITY PREDICTED BY RF-SCORE:    0.00 PKD
ROOT
HETATM    1  C   UNL     1     -14.223   8.603  71.725  1.00  0.00    -0.490 C  
HETATM    2  C   UNL     1     -13.163   9.655  71.880  1.00  0.00    -0.446 C  
HETATM    3  O   UNL     1     -13.375  10.850  72.005  1.00  0.00    -0.448 OA 
ENDROOT
BRANCH   2   4
HETATM    4  O   UNL     1     -11.948   9.059  71.923  1.00  0.00    -0.338 OA 
BRANCH   4   5
HETATM    5  C   UNL     1     -10.905   9.577  71.071  1.00  0.00    -0.353 C  
BRANCH   5   6
HETATM    6  C   UNL     1      -9.564   8.861  71.379  1.00  0.00    -0.289 C  
BRANCH   6   7
HETATM    7  N   UNL     1      -9.693   7.352  71.786  1.00  0.00    -0.153 N  
HETATM    8  C   UNL     1     -10.645   6.609  70.876  1.00  0.00    -0.224 C  
HETATM    9  C   UNL     1     -10.226   7.329  73.215  1.00  0.00    -0.319 C  
HETATM   10  C   UNL     1      -8.324   6.683  71.787  1.00  0.00    -0.111 C  
ENDBRANCH   6   7
ENDBRANCH   5   6
BRANCH   5  11
HETATM   11  C   UNL     1     -11.283   9.411  69.601  1.00  0.00    -0.100 C  
HETATM   12  C   UNL     1     -11.187  10.727  68.833  1.00  0.00    -0.268 C  
HETATM   13  O   UNL     1     -10.273  11.511  69.206  1.00  0.00    -0.084 OA 
HETATM   14  O   UNL     1     -12.113  10.911  68.002  1.00  0.00    -0.563 OA 
ENDBRANCH   5  11
ENDBRANCH   4   5
ENDBRANCH   2   4
TORSDOF 5
ENDMDL
MODEL      176
REMARK 921   NORMALIZED FREE ENERGY PREDICTED BY IDOCK:   -2.10 KCAL/MOL
REMARK 922        TOTAL FREE ENERGY PREDICTED BY IDOCK:   -3.32 KCAL/MOL
REMARK 923 INTER-LIGAND FREE ENERGY PREDICTED BY IDOCK:   -2.71 KCAL/MOL
REMARK 924 INTRA-LIGAND FREE ENERGY PREDICTED BY IDOCK:   -0.61 KCAL/MOL
REMARK 927      BINDING AFFINITY PREDICTED BY RF-SCORE:    0.00 PKD
ROOT
HETATM    1  C   UNL     1      -7.468   8.719  67.418  1.00  0.00    -0.089 C  
HETATM    2  C   UNL     1      -8.688   8.268  66.668  1.00  0.00    -0.136 C  
HETATM    3  O   UNL     1      -8.714   7.979  65.483  1.00  0.00    -0.157 OA 
ENDROOT
BRANCH   2   4
HETATM    4  O   UNL     1      -9.730   8.176  67.528  1.00  0.00    -0.147 OA 
BRANCH   4   5
HETATM    5  C   UNL     1      -9.994   9.295  68.400  1.00  0.00    -0.176 C  
BRANCH   5   6
HETATM    6  C   UNL     1     -10.943  10.301  67.699  1.00  0.00    -0.294 C  
BRANCH   6   7
HETATM    7  N   UNL     1     -10.607  11.813  67.942  1.00  0.00    -0.195 N  
HETATM    8  C   UNL     1     -11.410  12.385  69.088  1.00  0.00    -0.269 C  
HETATM    9  C   UNL     1     -10.954  12.551  66.653  1.00  0.00    -0.266 C  
HETATM   10  C   UNL     1      -9.115  11.991  68.195  1.00  0.00    -0.191 C  
ENDBRANCH   6   7
ENDBRANCH   5   6
BRANCH   5  11
HETATM   11  C   UNL     1     -10.591   8.815  69.721  1.00  0.00    -0.227 C  
HETATM   12  C   UNL     1      -9.527   8.641  70.801  1.00  0.00    -0.190 C  
HETATM   13  O   UNL     1      -8.565   9.455  70.757  1.00  0.00    -0.209 OA 
HETATM   14  O   UNL     1      -9.687   7.626  71.527  1.00  0.00    -0.164 OA 
ENDBRANCH   5  11
ENDBRANCH   4   5
ENDBRANCH   2   4
TORSDOF 5
ENDMDL
MODEL      177
REMARK 921   NORMALIZED FREE ENERGY PREDICTED BY IDOCK:   -2.10 KCAL/MOL
REMARK 922        TOTAL FREE ENERGY PREDICTED BY IDOCK:   -3.32 KCAL/MOL
REMARK 923 INTER-LIGAND FREE ENERGY PREDICTED BY IDOCK:   -2.99 KCAL/MOL
REMARK 924 INTRA-LIGAND FREE ENERGY PREDICTED BY IDOCK:   -0.33 KCAL/MOL
REMARK 927      BINDING AFFINITY PREDICTED BY RF-SCORE:    0.00 PKD
ROOT
HETATM    1  C   UNL     1     -10.486  10.114  67.784  1.00  0.00    -0.277 C  
HETATM    2  C   UNL     1      -9.364   9.792  68.729  1.00  0.00    -0.150 C  
HETATM    3  O   UNL     1      -8.207  10.150  68.589  1.00  0.00    -0.102 OA 
ENDROOT
BRANCH   2   4
HETATM    4  O   UNL     1      -9.857   9.101  69.785  1.00  0.00    -0.168 OA 
BRANCH   4   5
HETATM    5  C   UNL     1     -10.437   7.804  69.538  1.00  0.00    -0.225 C  
BRANCH   5   6
HETATM    6  C   UNL     1      -9.344   6.819  69.047  1.00  0.00    -0.134 C  
BRANCH   6   7
HETATM    7  N   UNL     1      -9.646   6.119  67.677  1.00  0.00    -0.111 N  
HETATM    8  C   UNL     1     -11.026   6.464  67.167  1.00  0.00    -0.399 C  
HETATM    9  C   UNL     1      -9.551   4.617  67.924  1.00  0.00    -0.157 C  
HETATM   10  C   UNL     1      -8.588   6.491  66.646  1.00  0.00    -0.118 C  
ENDBRANCH   6   7
ENDBRANCH   5   6
BRANCH   5  11
HETATM   11  C   UNL     1     -11.119   7.273  70.797  1.00  0.00    -0.290 C  
HETATM   12  C   UNL     1     -11.950   8.347  71.495  1.00  0.00    -0.299 C  
HETATM   13  O   UNL     1     -12.505   9.187  70.735  1.00  0.00    -0.170 OA 
HETATM   14  O   UNL     1     -11.875   8.325  72.750  1.00  0.00    -0.388 OA 
ENDBRANCH   5  11
ENDBRANCH   4   5
ENDBRANCH   2   4
TORSDOF 5
ENDMDL
MODEL      178
REMARK 921   NORMALIZED FREE ENERGY PREDICTED BY IDOCK:   -2.08 KCAL/MOL
REMARK 922        TOTAL FREE ENERGY PREDICTED BY IDOCK:   -3.30 KCAL/MOL
REMARK 923 INTER-LIGAND FREE ENERGY PREDICTED BY IDOCK:   -2.76 KCAL/MOL
REMARK 924 INTRA-LIGAND FREE ENERGY PREDICTED BY IDOCK:   -0.53 KCAL/MOL
REMARK 927      BINDING AFFINITY PREDICTED BY RF-SCORE:    0.00 PKD
ROOT
HETATM    1  C   UNL     1      -6.956  10.163  67.587  1.00  0.00    -0.085 C  
HETATM    2  C   UNL     1      -7.471   9.382  66.413  1.00  0.00    -0.093 C  
HETATM    3  O   UNL     1      -7.183   8.224  66.162  1.00  0.00    -0.068 OA 
ENDROOT
BRANCH   2   4
HETATM    4  O   UNL     1      -8.349  10.147  65.721  1.00  0.00    -0.134 OA 
BRANCH   4   5
HETATM    5  C   UNL     1      -9.575  10.535  66.374  1.00  0.00    -0.177 C  
BRANCH   5   6
HETATM    6  C   UNL     1     -10.251  11.690  65.590  1.00  0.00    -0.243 C  
BRANCH   6   7
HETATM    7  N   UNL     1     -10.321  13.059  66.353  1.00  0.00    -0.276 N  
HETATM    8  C   UNL     1      -8.994  13.415  66.982  1.00  0.00    -0.224 C  
HETATM    9  C   UNL     1     -11.379  12.900  67.440  1.00  0.00    -0.309 C  
HETATM   10  C   UNL     1     -10.780  14.167  65.413  1.00  0.00    -0.342 C  
ENDBRANCH   6   7
ENDBRANCH   5   6
BRANCH   5  11
HETATM   11  C   UNL     1     -10.518   9.340  66.496  1.00  0.00    -0.204 C  
HETATM   12  C   UNL     1     -10.484   8.724  67.893  1.00  0.00    -0.216 C  
HETATM   13  O   UNL     1     -10.300   9.533  68.842  1.00  0.00    -0.195 OA 
HETATM   14  O   UNL     1     -10.523   7.467  67.905  1.00  0.00    -0.196 OA 
ENDBRANCH   5  11
ENDBRANCH   4   5
ENDBRANCH   2   4
TORSDOF 5
ENDMDL
MODEL      179
REMARK 921   NORMALIZED FREE ENERGY PREDICTED BY IDOCK:   -2.08 KCAL/MOL
REMARK 922        TOTAL FREE ENERGY PREDICTED BY IDOCK:   -3.29 KCAL/MOL
REMARK 923 INTER-LIGAND FREE ENERGY PREDICTED BY IDOCK:   -4.45 KCAL/MOL
REMARK 924 INTRA-LIGAND FREE ENERGY PREDICTED BY IDOCK:    1.16 KCAL/MOL
REMARK 927      BINDING AFFINITY PREDICTED BY RF-SCORE:    0.00 PKD
ROOT
HETATM    1  C   UNL     1      -9.689  15.330  69.119  1.00  0.00    -0.243 C  
HETATM    2  C   UNL     1     -11.044  15.264  68.474  1.00  0.00    -0.282 C  
HETATM    3  O   UNL     1     -12.040  15.841  68.876  1.00  0.00    -0.333 OA 
ENDROOT
BRANCH   2   4
HETATM    4  O   UNL     1     -10.963  14.517  67.347  1.00  0.00    -0.288 OA 
BRANCH   4   5
HETATM    5  C   UNL     1     -10.195  15.034  66.241  1.00  0.00    -0.294 C  
BRANCH   5   6
HETATM    6  C   UNL     1     -10.109  13.974  65.113  1.00  0.00    -0.314 C  
BRANCH   6   7
HETATM    7  N   UNL     1     -11.435  13.183  64.841  1.00  0.00    -0.300 N  
HETATM    8  C   UNL     1     -11.198  11.990  63.943  1.00  0.00    -0.417 C  
HETATM    9  C   UNL     1     -12.393  14.155  64.161  1.00  0.00    -0.335 C  
HETATM   10  C   UNL     1     -12.070  12.744  66.155  1.00  0.00    -0.364 C  
ENDBRANCH   6   7
ENDBRANCH   5   6
BRANCH   5  11
HETATM   11  C   UNL     1     -10.810  16.331  65.721  1.00  0.00    -0.173 C  
HETATM   12  C   UNL     1      -9.921  17.540  65.999  1.00  0.00    -0.218 C  
HETATM   13  O   UNL     1      -8.679  17.325  65.960  1.00  0.00    -0.497 OA 
HETATM   14  O   UNL     1     -10.546  18.573  66.352  1.00  0.00    -0.393 OA 
ENDBRANCH   5  11
ENDBRANCH   4   5
ENDBRANCH   2   4
TORSDOF 5
ENDMDL
MODEL      180
REMARK 921   NORMALIZED FREE ENERGY PREDICTED BY IDOCK:   -2.07 KCAL/MOL
REMARK 922        TOTAL FREE ENERGY PREDICTED BY IDOCK:   -3.28 KCAL/MOL
REMARK 923 INTER-LIGAND FREE ENERGY PREDICTED BY IDOCK:   -2.61 KCAL/MOL
REMARK 924 INTRA-LIGAND FREE ENERGY PREDICTED BY IDOCK:   -0.67 KCAL/MOL
REMARK 927      BINDING AFFINITY PREDICTED BY RF-SCORE:    0.00 PKD
ROOT
HETATM    1  C   UNL     1     -11.218   7.778  71.729  1.00  0.00    -0.298 C  
HETATM    2  C   UNL     1     -10.935   6.867  70.569  1.00  0.00    -0.273 C  
HETATM    3  O   UNL     1     -11.783   6.312  69.891  1.00  0.00    -0.408 OA 
ENDROOT
BRANCH   2   4
HETATM    4  O   UNL     1      -9.598   6.814  70.362  1.00  0.00    -0.169 OA 
BRANCH   4   5
HETATM    5  C   UNL     1      -9.123   6.730  69.002  1.00  0.00    -0.137 C  
BRANCH   5   6
HETATM    6  C   UNL     1      -8.605   8.115  68.535  1.00  0.00    -0.130 C  
BRANCH   6   7
HETATM    7  N   UNL     1      -9.547   8.877  67.540  1.00  0.00    -0.140 N  
HETATM    8  C   UNL     1      -8.759   9.626  66.489  1.00  0.00    -0.134 C  
HETATM    9  C   UNL     1     -10.358   9.864  68.373  1.00  0.00    -0.198 C  
HETATM   10  C   UNL     1     -10.522   7.908  66.884  1.00  0.00    -0.318 C  
ENDBRANCH   6   7
ENDBRANCH   5   6
BRANCH   5  11
HETATM   11  C   UNL     1      -8.028   5.673  68.881  1.00  0.00    -0.097 C  
HETATM   12  C   UNL     1      -8.601   4.278  68.642  1.00  0.00    -0.093 C  
HETATM   13  O   UNL     1      -9.656   4.233  67.953  1.00  0.00    -0.162 OA 
HETATM   14  O   UNL     1      -8.010   3.362  69.268  1.00  0.00    -0.050 OA 
ENDBRANCH   5  11
ENDBRANCH   4   5
ENDBRANCH   2   4
TORSDOF 5
ENDMDL
MODEL      181
REMARK 921   NORMALIZED FREE ENERGY PREDICTED BY IDOCK:   -2.06 KCAL/MOL
REMARK 922        TOTAL FREE ENERGY PREDICTED BY IDOCK:   -3.27 KCAL/MOL
REMARK 923 INTER-LIGAND FREE ENERGY PREDICTED BY IDOCK:   -3.21 KCAL/MOL
REMARK 924 INTRA-LIGAND FREE ENERGY PREDICTED BY IDOCK:   -0.06 KCAL/MOL
REMARK 927      BINDING AFFINITY PREDICTED BY RF-SCORE:    0.00 PKD
ROOT
HETATM    1  C   UNL     1      -9.121  12.294  67.935  1.00  0.00    -0.190 C  
HETATM    2  C   UNL     1      -9.345  13.762  67.711  1.00  0.00    -0.213 C  
HETATM    3  O   UNL     1      -8.469  14.610  67.699  1.00  0.00    -0.159 OA 
ENDROOT
BRANCH   2   4
HETATM    4  O   UNL     1     -10.659  13.978  67.465  1.00  0.00    -0.257 OA 
BRANCH   4   5
HETATM    5  C   UNL     1     -11.049  14.343  66.125  1.00  0.00    -0.330 C  
BRANCH   5   6
HETATM    6  C   UNL     1     -12.064  13.310  65.568  1.00  0.00    -0.435 C  
BRANCH   6   7
HETATM    7  N   UNL     1     -11.467  12.266  64.563  1.00  0.00    -0.327 N  
HETATM    8  C   UNL     1     -10.253  12.813  63.847  1.00  0.00    -0.240 C  
HETATM    9  C   UNL     1     -12.564  11.957  63.550  1.00  0.00    -0.459 C  
HETATM   10  C   UNL     1     -11.121  10.970  65.286  1.00  0.00     0.062 C  
ENDBRANCH   6   7
ENDBRANCH   5   6
BRANCH   5  11
HETATM   11  C   UNL     1     -11.642  15.750  66.103  1.00  0.00     0.418 C  
HETATM   12  C   UNL     1     -11.452  16.431  64.750  1.00  0.00    -0.061 C  
HETATM   13  O   UNL     1     -11.495  15.671  63.746  1.00  0.00    -0.103 OA 
HETATM   14  O   UNL     1     -11.157  17.652  64.822  1.00  0.00    -0.915 OA 
ENDBRANCH   5  11
ENDBRANCH   4   5
ENDBRANCH   2   4
TORSDOF 5
ENDMDL
MODEL      182
REMARK 921   NORMALIZED FREE ENERGY PREDICTED BY IDOCK:   -2.06 KCAL/MOL
REMARK 922        TOTAL FREE ENERGY PREDICTED BY IDOCK:   -3.27 KCAL/MOL
REMARK 923 INTER-LIGAND FREE ENERGY PREDICTED BY IDOCK:   -3.26 KCAL/MOL
REMARK 924 INTRA-LIGAND FREE ENERGY PREDICTED BY IDOCK:   -0.01 KCAL/MOL
REMARK 927      BINDING AFFINITY PREDICTED BY RF-SCORE:    0.00 PKD
ROOT
HETATM    1  C   UNL     1      -8.899   5.580  66.946  1.00  0.00    -0.112 C  
HETATM    2  C   UNL     1      -9.949   6.472  67.545  1.00  0.00    -0.137 C  
HETATM    3  O   UNL     1     -11.082   6.604  67.115  1.00  0.00    -0.392 OA 
ENDROOT
BRANCH   2   4
HETATM    4  O   UNL     1      -9.455   7.049  68.666  1.00  0.00    -0.137 OA 
BRANCH   4   5
HETATM    5  C   UNL     1     -10.050   6.696  69.931  1.00  0.00    -0.176 C  
BRANCH   5   6
HETATM    6  C   UNL     1     -11.286   7.592  70.205  1.00  0.00    -0.216 C  
BRANCH   6   7
HETATM    7  N   UNL     1     -10.998   8.885  71.044  1.00  0.00    -0.256 N  
HETATM    8  C   UNL     1     -10.418   9.987  70.188  1.00  0.00    -0.284 C  
HETATM    9  C   UNL     1      -9.995   8.492  72.123  1.00  0.00    -0.317 C  
HETATM   10  C   UNL     1     -12.268   9.361  71.738  1.00  0.00    -0.390 C  
ENDBRANCH   6   7
ENDBRANCH   5   6
BRANCH   5  11
HETATM   11  C   UNL     1     -10.437   5.219  69.948  1.00  0.00    -0.351 C  
HETATM   12  C   UNL     1      -9.844   4.484  71.148  1.00  0.00    -0.193 C  
HETATM   13  O   UNL     1      -9.740   5.162  72.206  1.00  0.00    -0.156 OA 
HETATM   14  O   UNL     1      -9.423   3.328  70.890  1.00  0.00    -0.142 OA 
ENDBRANCH   5  11
ENDBRANCH   4   5
ENDBRANCH   2   4
TORSDOF 5
ENDMDL
MODEL      183
REMARK 921   NORMALIZED FREE ENERGY PREDICTED BY IDOCK:   -2.05 KCAL/MOL
REMARK 922        TOTAL FREE ENERGY PREDICTED BY IDOCK:   -3.26 KCAL/MOL
REMARK 923 INTER-LIGAND FREE ENERGY PREDICTED BY IDOCK:   -2.69 KCAL/MOL
REMARK 924 INTRA-LIGAND FREE ENERGY PREDICTED BY IDOCK:   -0.57 KCAL/MOL
REMARK 927      BINDING AFFINITY PREDICTED BY RF-SCORE:    0.00 PKD
ROOT
HETATM    1  C   UNL     1      -8.811   4.856  64.936  1.00  0.00    -0.152 C  
HETATM    2  C   UNL     1      -8.914   5.076  66.418  1.00  0.00    -0.123 C  
HETATM    3  O   UNL     1      -8.042   4.808  67.227  1.00  0.00    -0.101 OA 
ENDROOT
BRANCH   2   4
HETATM    4  O   UNL     1     -10.096   5.675  66.697  1.00  0.00    -0.164 OA 
BRANCH   4   5
HETATM    5  C   UNL     1     -10.103   6.750  67.658  1.00  0.00    -0.161 C  
BRANCH   5   6
HETATM    6  C   UNL     1     -10.653   8.044  67.003  1.00  0.00    -0.294 C  
BRANCH   6   7
HETATM    7  N   UNL     1      -9.664   9.261  67.002  1.00  0.00    -0.172 N  
HETATM    8  C   UNL     1     -10.002  10.254  68.090  1.00  0.00    -0.146 C  
HETATM    9  C   UNL     1      -9.794   9.929  65.638  1.00  0.00    -0.298 C  
HETATM   10  C   UNL     1      -8.226   8.777  67.149  1.00  0.00    -0.104 C  
ENDBRANCH   6   7
ENDBRANCH   5   6
BRANCH   5  11
HETATM   11  C   UNL     1     -10.933   6.368  68.882  1.00  0.00    -0.412 C  
HETATM   12  C   UNL     1     -10.057   5.973  70.068  1.00  0.00    -0.186 C  
HETATM   13  O   UNL     1      -8.962   6.590  70.167  1.00  0.00    -0.152 OA 
HETATM   14  O   UNL     1     -10.490   4.994  70.728  1.00  0.00    -0.227 OA 
ENDBRANCH   5  11
ENDBRANCH   4   5
ENDBRANCH   2   4
TORSDOF 5
ENDMDL
MODEL      184
REMARK 921   NORMALIZED FREE ENERGY PREDICTED BY IDOCK:   -2.05 KCAL/MOL
REMARK 922        TOTAL FREE ENERGY PREDICTED BY IDOCK:   -3.26 KCAL/MOL
REMARK 923 INTER-LIGAND FREE ENERGY PREDICTED BY IDOCK:   -2.57 KCAL/MOL
REMARK 924 INTRA-LIGAND FREE ENERGY PREDICTED BY IDOCK:   -0.69 KCAL/MOL
REMARK 927      BINDING AFFINITY PREDICTED BY RF-SCORE:    0.00 PKD
ROOT
HETATM    1  C   UNL     1      -6.890   6.611  68.558  1.00  0.00    -0.070 C  
HETATM    2  C   UNL     1      -7.387   6.546  69.974  1.00  0.00    -0.089 C  
HETATM    3  O   UNL     1      -6.800   6.011  70.898  1.00  0.00    -0.058 OA 
ENDROOT
BRANCH   2   4
HETATM    4  O   UNL     1      -8.553   7.229  70.067  1.00  0.00    -0.138 OA 
BRANCH   4   5
HETATM    5  C   UNL     1      -9.766   6.479  70.283  1.00  0.00    -0.168 C  
BRANCH   5   6
HETATM    6  C   UNL     1     -10.175   6.550  71.777  1.00  0.00    -0.188 C  
BRANCH   6   7
HETATM    7  N   UNL     1     -10.058   5.199  72.564  1.00  0.00    -0.175 N  
HETATM    8  C   UNL     1      -8.923   5.232  73.562  1.00  0.00    -0.121 C  
HETATM    9  C   UNL     1      -9.799   4.110  71.528  1.00  0.00    -0.184 C  
HETATM   10  C   UNL     1     -11.373   4.876  73.262  1.00  0.00    -0.327 C  
ENDBRANCH   6   7
ENDBRANCH   5   6
BRANCH   5  11
HETATM   11  C   UNL     1     -10.888   7.004  69.389  1.00  0.00    -0.253 C  
HETATM   12  C   UNL     1     -10.763   6.495  67.955  1.00  0.00    -0.287 C  
HETATM   13  O   UNL     1     -10.293   5.332  67.827  1.00  0.00    -0.178 OA 
HETATM   14  O   UNL     1     -11.035   7.352  67.076  1.00  0.00    -0.332 OA 
ENDBRANCH   5  11
ENDBRANCH   4   5
ENDBRANCH   2   4
TORSDOF 5
ENDMDL
MODEL      185
REMARK 921   NORMALIZED FREE ENERGY PREDICTED BY IDOCK:   -2.04 KCAL/MOL
REMARK 922        TOTAL FREE ENERGY PREDICTED BY IDOCK:   -3.25 KCAL/MOL
REMARK 923 INTER-LIGAND FREE ENERGY PREDICTED BY IDOCK:   -2.58 KCAL/MOL
REMARK 924 INTRA-LIGAND FREE ENERGY PREDICTED BY IDOCK:   -0.67 KCAL/MOL
REMARK 927      BINDING AFFINITY PREDICTED BY RF-SCORE:    0.00 PKD
ROOT
HETATM    1  C   UNL     1      -8.895   7.018  72.562  1.00  0.00    -0.139 C  
HETATM    2  C   UNL     1     -10.385   7.132  72.413  1.00  0.00    -0.201 C  
HETATM    3  O   UNL     1     -11.107   7.823  73.111  1.00  0.00    -0.409 OA 
ENDROOT
BRANCH   2   4
HETATM    4  O   UNL     1     -10.782   6.399  71.346  1.00  0.00    -0.230 OA 
BRANCH   4   5
HETATM    5  C   UNL     1     -10.182   6.681  70.065  1.00  0.00    -0.187 C  
BRANCH   5   6
HETATM    6  C   UNL     1     -10.477   5.525  69.075  1.00  0.00    -0.226 C  
BRANCH   6   7
HETATM    7  N   UNL     1      -9.219   4.937  68.345  1.00  0.00    -0.118 N  
HETATM    8  C   UNL     1      -9.407   3.477  68.002  1.00  0.00    -0.184 C  
HETATM    9  C   UNL     1      -8.044   5.093  69.304  1.00  0.00    -0.084 C  
HETATM   10  C   UNL     1      -8.908   5.744  67.090  1.00  0.00    -0.107 C  
ENDBRANCH   6   7
ENDBRANCH   5   6
BRANCH   5  11
HETATM   11  C   UNL     1     -10.695   8.010  69.514  1.00  0.00    -0.185 C  
HETATM   12  C   UNL     1      -9.589   9.059  69.425  1.00  0.00    -0.160 C  
HETATM   13  O   UNL     1      -8.440   8.618  69.150  1.00  0.00    -0.121 OA 
HETATM   14  O   UNL     1      -9.946  10.218  69.756  1.00  0.00    -0.230 OA 
ENDBRANCH   5  11
ENDBRANCH   4   5
ENDBRANCH   2   4
TORSDOF 5
ENDMDL
MODEL      186
REMARK 921   NORMALIZED FREE ENERGY PREDICTED BY IDOCK:   -2.04 KCAL/MOL
REMARK 922        TOTAL FREE ENERGY PREDICTED BY IDOCK:   -3.24 KCAL/MOL
REMARK 923 INTER-LIGAND FREE ENERGY PREDICTED BY IDOCK:   -2.83 KCAL/MOL
REMARK 924 INTRA-LIGAND FREE ENERGY PREDICTED BY IDOCK:   -0.42 KCAL/MOL
REMARK 927      BINDING AFFINITY PREDICTED BY RF-SCORE:    0.00 PKD
ROOT
HETATM    1  C   UNL     1     -10.565   6.480  67.190  1.00  0.00    -0.398 C  
HETATM    2  C   UNL     1     -10.207   7.852  67.682  1.00  0.00    -0.226 C  
HETATM    3  O   UNL     1      -9.549   8.088  68.682  1.00  0.00    -0.146 OA 
ENDROOT
BRANCH   2   4
HETATM    4  O   UNL     1     -10.675   8.775  66.808  1.00  0.00    -0.206 OA 
BRANCH   4   5
HETATM    5  C   UNL     1      -9.718   9.593  66.105  1.00  0.00    -0.252 C  
BRANCH   5   6
HETATM    6  C   UNL     1      -8.706   8.694  65.348  1.00  0.00    -0.174 C  
BRANCH   6   7
HETATM    7  N   UNL     1      -7.197   9.055  65.574  1.00  0.00    -0.084 N  
HETATM    8  C   UNL     1      -7.015   9.969  66.763  1.00  0.00    -0.089 C  
HETATM    9  C   UNL     1      -6.721   9.758  64.307  1.00  0.00    -0.120 C  
HETATM   10  C   UNL     1      -6.368   7.788  65.744  1.00  0.00    -0.042 C  
ENDBRANCH   6   7
ENDBRANCH   5   6
BRANCH   5  11
HETATM   11  C   UNL     1     -10.429  10.540  65.140  1.00  0.00    -0.225 C  
HETATM   12  C   UNL     1     -10.612  11.934  65.736  1.00  0.00    -0.267 C  
HETATM   13  O   UNL     1      -9.690  12.325  66.502  1.00  0.00    -0.222 OA 
HETATM   14  O   UNL     1     -11.722  12.465  65.478  1.00  0.00    -0.375 OA 
ENDBRANCH   5  11
ENDBRANCH   4   5
ENDBRANCH   2   4
TORSDOF 5
ENDMDL
MODEL      187
REMARK 921   NORMALIZED FREE ENERGY PREDICTED BY IDOCK:   -2.03 KCAL/MOL
REMARK 922        TOTAL FREE ENERGY PREDICTED BY IDOCK:   -3.23 KCAL/MOL
REMARK 923 INTER-LIGAND FREE ENERGY PREDICTED BY IDOCK:   -2.65 KCAL/MOL
REMARK 924 INTRA-LIGAND FREE ENERGY PREDICTED BY IDOCK:   -0.57 KCAL/MOL
REMARK 927      BINDING AFFINITY PREDICTED BY RF-SCORE:    0.00 PKD
ROOT
HETATM    1  C   UNL     1     -10.571   4.843  65.994  1.00  0.00    -0.312 C  
HETATM    2  C   UNL     1     -10.328   5.013  67.466  1.00  0.00    -0.089 C  
HETATM    3  O   UNL     1      -9.729   4.220  68.172  1.00  0.00    -0.155 OA 
ENDROOT
BRANCH   2   4
HETATM    4  O   UNL     1     -10.823   6.210  67.862  1.00  0.00    -0.279 OA 
BRANCH   4   5
HETATM    5  C   UNL     1     -10.013   7.026  68.734  1.00  0.00    -0.160 C  
BRANCH   5   6
HETATM    6  C   UNL     1      -9.186   8.037  67.897  1.00  0.00    -0.131 C  
BRANCH   6   7
HETATM    7  N   UNL     1      -7.631   7.896  68.032  1.00  0.00    -0.110 N  
HETATM    8  C   UNL     1      -7.002   9.159  68.575  1.00  0.00    -0.067 C  
HETATM    9  C   UNL     1      -7.094   7.616  66.632  1.00  0.00    -0.079 C  
HETATM   10  C   UNL     1      -7.279   6.705  68.914  1.00  0.00    -0.091 C  
ENDBRANCH   6   7
ENDBRANCH   5   6
BRANCH   5  11
HETATM   11  C   UNL     1     -10.888   7.753  69.753  1.00  0.00    -0.211 C  
HETATM   12  C   UNL     1     -11.525   6.791  70.752  1.00  0.00    -0.342 C  
HETATM   13  O   UNL     1     -10.830   5.786  71.062  1.00  0.00    -0.260 OA 
HETATM   14  O   UNL     1     -12.717   7.064  71.046  1.00  0.00    -0.367 OA 
ENDBRANCH   5  11
ENDBRANCH   4   5
ENDBRANCH   2   4
TORSDOF 5
ENDMDL
MODEL      188
REMARK 921   NORMALIZED FREE ENERGY PREDICTED BY IDOCK:   -2.02 KCAL/MOL
REMARK 922        TOTAL FREE ENERGY PREDICTED BY IDOCK:   -3.22 KCAL/MOL
REMARK 923 INTER-LIGAND FREE ENERGY PREDICTED BY IDOCK:   -2.68 KCAL/MOL
REMARK 924 INTRA-LIGAND FREE ENERGY PREDICTED BY IDOCK:   -0.54 KCAL/MOL
REMARK 927      BINDING AFFINITY PREDICTED BY RF-SCORE:    0.00 PKD
ROOT
HETATM    1  C   UNL     1      -9.146   3.720  69.165  1.00  0.00    -0.200 C  
HETATM    2  C   UNL     1      -9.345   5.173  69.484  1.00  0.00    -0.130 C  
HETATM    3  O   UNL     1     -10.322   5.831  69.170  1.00  0.00    -0.199 OA 
ENDROOT
BRANCH   2   4
HETATM    4  O   UNL     1      -8.301   5.612  70.226  1.00  0.00    -0.108 OA 
BRANCH   4   5
HETATM    5  C   UNL     1      -8.585   6.274  71.476  1.00  0.00    -0.131 C  
BRANCH   5   6
HETATM    6  C   UNL     1      -8.651   5.233  72.624  1.00  0.00    -0.117 C  
BRANCH   6   7
HETATM    7  N   UNL     1      -9.933   5.316  73.524  1.00  0.00    -0.161 N  
HETATM    8  C   UNL     1      -9.823   6.422  74.549  1.00  0.00    -0.337 C  
HETATM    9  C   UNL     1     -10.058   3.971  74.231  1.00  0.00    -0.172 C  
HETATM   10  C   UNL     1     -11.175   5.508  72.663  1.00  0.00    -0.295 C  
ENDBRANCH   6   7
ENDBRANCH   5   6
BRANCH   5  11
HETATM   11  C   UNL     1      -7.530   7.339  71.771  1.00  0.00    -0.084 C  
HETATM   12  C   UNL     1      -8.107   8.750  71.705  1.00  0.00    -0.065 C  
HETATM   13  O   UNL     1      -9.304   8.869  72.085  1.00  0.00    -0.348 OA 
HETATM   14  O   UNL     1      -7.349   9.595  71.166  1.00  0.00    -0.332 OA 
ENDBRANCH   5  11
ENDBRANCH   4   5
ENDBRANCH   2   4
TORSDOF 5
ENDMDL
MODEL      189
REMARK 921   NORMALIZED FREE ENERGY PREDICTED BY IDOCK:   -2.00 KCAL/MOL
REMARK 922        TOTAL FREE ENERGY PREDICTED BY IDOCK:   -3.20 KCAL/MOL
REMARK 923 INTER-LIGAND FREE ENERGY PREDICTED BY IDOCK:   -2.64 KCAL/MOL
REMARK 924 INTRA-LIGAND FREE ENERGY PREDICTED BY IDOCK:   -0.56 KCAL/MOL
REMARK 927      BINDING AFFINITY PREDICTED BY RF-SCORE:    0.00 PKD
ROOT
HETATM    1  C   UNL     1     -10.390   5.582  67.409  1.00  0.00    -0.279 C  
HETATM    2  C   UNL     1     -10.563   6.029  68.831  1.00  0.00    -0.290 C  
HETATM    3  O   UNL     1     -11.629   6.317  69.349  1.00  0.00    -0.403 OA 
ENDROOT
BRANCH   2   4
HETATM    4  O   UNL     1      -9.362   6.000  69.456  1.00  0.00    -0.134 OA 
BRANCH   4   5
HETATM    5  C   UNL     1      -9.317   5.538  70.822  1.00  0.00    -0.163 C  
BRANCH   5   6
HETATM    6  C   UNL     1      -8.277   4.397  70.962  1.00  0.00    -0.081 C  
BRANCH   6   7
HETATM    7  N   UNL     1      -8.883   2.956  71.092  1.00  0.00    -0.077 N  
HETATM    8  C   UNL     1      -9.982   2.906  72.129  1.00  0.00    -0.165 C  
HETATM    9  C   UNL     1      -7.740   2.037  71.509  1.00  0.00    -0.040 C  
HETATM   10  C   UNL     1      -9.401   2.475  69.743  1.00  0.00    -0.106 C  
ENDBRANCH   6   7
ENDBRANCH   5   6
BRANCH   5  11
HETATM   11  C   UNL     1      -8.987   6.691  71.767  1.00  0.00    -0.140 C  
HETATM   12  C   UNL     1     -10.240   7.300  72.391  1.00  0.00    -0.196 C  
HETATM   13  O   UNL     1     -11.181   6.493  72.622  1.00  0.00    -0.253 OA 
HETATM   14  O   UNL     1     -10.217   8.553  72.483  1.00  0.00    -0.310 OA 
ENDBRANCH   5  11
ENDBRANCH   4   5
ENDBRANCH   2   4
TORSDOF 5
ENDMDL
MODEL      190
REMARK 921   NORMALIZED FREE ENERGY PREDICTED BY IDOCK:   -1.99 KCAL/MOL
REMARK 922        TOTAL FREE ENERGY PREDICTED BY IDOCK:   -3.17 KCAL/MOL
REMARK 923 INTER-LIGAND FREE ENERGY PREDICTED BY IDOCK:   -3.25 KCAL/MOL
REMARK 924 INTRA-LIGAND FREE ENERGY PREDICTED BY IDOCK:    0.07 KCAL/MOL
REMARK 927      BINDING AFFINITY PREDICTED BY RF-SCORE:    0.00 PKD
ROOT
HETATM    1  C   UNL     1      -9.230   8.087  73.051  1.00  0.00    -0.337 C  
HETATM    2  C   UNL     1      -9.156   6.631  73.409  1.00  0.00    -0.126 C  
HETATM    3  O   UNL     1      -8.939   6.195  74.526  1.00  0.00    -0.127 OA 
ENDROOT
BRANCH   2   4
HETATM    4  O   UNL     1      -9.432   5.889  72.310  1.00  0.00    -0.148 OA 
BRANCH   4   5
HETATM    5  C   UNL     1     -10.717   5.237  72.234  1.00  0.00    -0.223 C  
BRANCH   5   6
HETATM    6  C   UNL     1     -10.911   4.305  73.459  1.00  0.00    -0.287 C  
BRANCH   6   7
HETATM    7  N   UNL     1     -10.386   2.840  73.270  1.00  0.00    -0.127 N  
HETATM    8  C   UNL     1      -9.894   2.601  71.861  1.00  0.00    -0.157 C  
HETATM    9  C   UNL     1     -11.560   1.913  73.568  1.00  0.00    -0.195 C  
HETATM   10  C   UNL     1      -9.284   2.537  74.277  1.00  0.00    -0.080 C  
ENDBRANCH   6   7
ENDBRANCH   5   6
BRANCH   5  11
HETATM   11  C   UNL     1     -11.839   6.270  72.156  1.00  0.00    -0.365 C  
HETATM   12  C   UNL     1     -11.892   6.956  70.793  1.00  0.00    -0.377 C  
HETATM   13  O   UNL     1     -11.573   6.237  69.808  1.00  0.00    -0.436 OA 
HETATM   14  O   UNL     1     -12.134   8.189  70.844  1.00  0.00    -0.262 OA 
ENDBRANCH   5  11
ENDBRANCH   4   5
ENDBRANCH   2   4
TORSDOF 5
ENDMDL
MODEL      191
REMARK 921   NORMALIZED FREE ENERGY PREDICTED BY IDOCK:   -1.97 KCAL/MOL
REMARK 922        TOTAL FREE ENERGY PREDICTED BY IDOCK:   -3.16 KCAL/MOL
REMARK 923 INTER-LIGAND FREE ENERGY PREDICTED BY IDOCK:   -2.71 KCAL/MOL
REMARK 924 INTRA-LIGAND FREE ENERGY PREDICTED BY IDOCK:   -0.45 KCAL/MOL
REMARK 927      BINDING AFFINITY PREDICTED BY RF-SCORE:    0.00 PKD
ROOT
HETATM    1  C   UNL     1      -8.167   7.810  69.625  1.00  0.00    -0.127 C  
HETATM    2  C   UNL     1      -9.382   7.328  68.886  1.00  0.00    -0.144 C  
HETATM    3  O   UNL     1      -9.536   6.198  68.455  1.00  0.00    -0.119 OA 
ENDROOT
BRANCH   2   4
HETATM    4  O   UNL     1     -10.295   8.326  68.834  1.00  0.00    -0.214 OA 
BRANCH   4   5
HETATM    5  C   UNL     1     -10.120   9.358  67.841  1.00  0.00    -0.194 C  
BRANCH   5   6
HETATM    6  C   UNL     1      -9.988   8.721  66.433  1.00  0.00    -0.275 C  
BRANCH   6   7
HETATM    7  N   UNL     1      -8.745   9.196  65.603  1.00  0.00    -0.163 N  
HETATM    8  C   UNL     1      -9.132  10.213  64.553  1.00  0.00    -0.240 C  
HETATM    9  C   UNL     1      -8.170   7.955  64.928  1.00  0.00    -0.124 C  
HETATM   10  C   UNL     1      -7.675   9.764  66.526  1.00  0.00    -0.105 C  
ENDBRANCH   6   7
ENDBRANCH   5   6
BRANCH   5  11
HETATM   11  C   UNL     1     -11.285  10.345  67.882  1.00  0.00    -0.332 C  
HETATM   12  C   UNL     1     -10.819  11.770  68.171  1.00  0.00    -0.217 C  
HETATM   13  O   UNL     1      -9.692  12.082  67.698  1.00  0.00    -0.181 OA 
HETATM   14  O   UNL     1     -11.569  12.412  68.948  1.00  0.00    -0.270 OA 
ENDBRANCH   5  11
ENDBRANCH   4   5
ENDBRANCH   2   4
TORSDOF 5
ENDMDL
MODEL      192
REMARK 921   NORMALIZED FREE ENERGY PREDICTED BY IDOCK:   -1.95 KCAL/MOL
REMARK 922        TOTAL FREE ENERGY PREDICTED BY IDOCK:   -3.13 KCAL/MOL
REMARK 923 INTER-LIGAND FREE ENERGY PREDICTED BY IDOCK:   -2.59 KCAL/MOL
REMARK 924 INTRA-LIGAND FREE ENERGY PREDICTED BY IDOCK:   -0.53 KCAL/MOL
REMARK 927      BINDING AFFINITY PREDICTED BY RF-SCORE:    0.00 PKD
ROOT
HETATM    1  C   UNL     1      -7.707   7.111  68.634  1.00  0.00    -0.120 C  
HETATM    2  C   UNL     1      -7.715   6.422  69.969  1.00  0.00    -0.102 C  
HETATM    3  O   UNL     1      -6.839   6.517  70.811  1.00  0.00    -0.059 OA 
ENDROOT
BRANCH   2   4
HETATM    4  O   UNL     1      -8.874   5.735  70.107  1.00  0.00    -0.136 OA 
BRANCH   4   5
HETATM    5  C   UNL     1      -9.752   6.093  71.194  1.00  0.00    -0.176 C  
BRANCH   5   6
HETATM    6  C   UNL     1     -10.762   7.172  70.727  1.00  0.00    -0.231 C  
BRANCH   6   7
HETATM    7  N   UNL     1     -10.804   8.470  71.606  1.00  0.00    -0.263 N  
HETATM    8  C   UNL     1      -9.694   8.483  72.632  1.00  0.00    -0.215 C  
HETATM    9  C   UNL     1     -12.156   8.478  72.311  1.00  0.00    -0.387 C  
HETATM   10  C   UNL     1     -10.730   9.711  70.724  1.00  0.00    -0.331 C  
ENDBRANCH   6   7
ENDBRANCH   5   6
BRANCH   5  11
HETATM   11  C   UNL     1     -10.482   4.859  71.722  1.00  0.00    -0.214 C  
HETATM   12  C   UNL     1      -9.537   3.897  72.438  1.00  0.00    -0.138 C  
HETATM   13  O   UNL     1      -8.586   4.434  73.068  1.00  0.00    -0.101 OA 
HETATM   14  O   UNL     1      -9.763   2.682  72.206  1.00  0.00    -0.120 OA 
ENDBRANCH   5  11
ENDBRANCH   4   5
ENDBRANCH   2   4
TORSDOF 5
ENDMDL
MODEL      193
REMARK 921   NORMALIZED FREE ENERGY PREDICTED BY IDOCK:   -1.95 KCAL/MOL
REMARK 922        TOTAL FREE ENERGY PREDICTED BY IDOCK:   -3.12 KCAL/MOL
REMARK 923 INTER-LIGAND FREE ENERGY PREDICTED BY IDOCK:   -2.58 KCAL/MOL
REMARK 924 INTRA-LIGAND FREE ENERGY PREDICTED BY IDOCK:   -0.55 KCAL/MOL
REMARK 927      BINDING AFFINITY PREDICTED BY RF-SCORE:    0.00 PKD
ROOT
HETATM    1  C   UNL     1     -11.101   8.191  72.670  1.00  0.00    -0.450 C  
HETATM    2  C   UNL     1     -11.565   6.895  72.069  1.00  0.00    -0.285 C  
HETATM    3  O   UNL     1     -12.609   6.742  71.458  1.00  0.00    -0.361 OA 
ENDROOT
BRANCH   2   4
HETATM    4  O   UNL     1     -10.614   5.950  72.260  1.00  0.00    -0.202 OA 
BRANCH   4   5
HETATM    5  C   UNL     1      -9.498   5.914  71.347  1.00  0.00    -0.150 C  
BRANCH   5   6
HETATM    6  C   UNL     1      -8.311   5.151  71.989  1.00  0.00    -0.125 C  
BRANCH   6   7
HETATM    7  N   UNL     1      -6.995   5.987  72.159  1.00  0.00    -0.077 N  
HETATM    8  C   UNL     1      -6.217   5.559  73.381  1.00  0.00    -0.060 C  
HETATM    9  C   UNL     1      -7.420   7.445  72.305  1.00  0.00    -0.076 C  
HETATM   10  C   UNL     1      -6.130   5.876  70.910  1.00  0.00    -0.034 C  
ENDBRANCH   6   7
ENDBRANCH   5   6
BRANCH   5  11
HETATM   11  C   UNL     1      -9.907   5.265  70.026  1.00  0.00    -0.288 C  
HETATM   12  C   UNL     1      -9.666   6.189  68.834  1.00  0.00    -0.130 C  
HETATM   13  O   UNL     1      -8.662   6.946  68.926  1.00  0.00    -0.130 OA 
HETATM   14  O   UNL     1     -10.572   6.159  67.964  1.00  0.00    -0.210 OA 
ENDBRANCH   5  11
ENDBRANCH   4   5
ENDBRANCH   2   4
TORSDOF 5
ENDMDL
MODEL      194
REMARK 921   NORMALIZED FREE ENERGY PREDICTED BY IDOCK:   -1.93 KCAL/MOL
REMARK 922        TOTAL FREE ENERGY PREDICTED BY IDOCK:   -3.11 KCAL/MOL
REMARK 923 INTER-LIGAND FREE ENERGY PREDICTED BY IDOCK:   -3.34 KCAL/MOL
REMARK 924 INTRA-LIGAND FREE ENERGY PREDICTED BY IDOCK:    0.24 KCAL/MOL
REMARK 927      BINDING AFFINITY PREDICTED BY RF-SCORE:    0.00 PKD
ROOT
HETATM    1  C   UNL     1      -7.662  11.680  68.385  1.00  0.00    -0.130 C  
HETATM    2  C   UNL     1      -7.335  13.135  68.564  1.00  0.00    -0.111 C  
HETATM    3  O   UNL     1      -6.658  13.593  69.468  1.00  0.00    -0.112 OA 
ENDROOT
BRANCH   2   4
HETATM    4  O   UNL     1      -7.857  13.838  67.531  1.00  0.00    -0.159 OA 
BRANCH   4   5
HETATM    5  C   UNL     1      -8.707  14.963  67.835  1.00  0.00    -0.164 C  
BRANCH   5   6
HETATM    6  C   UNL     1      -8.882  15.851  66.575  1.00  0.00    -0.305 C  
BRANCH   6   7
HETATM    7  N   UNL     1      -8.581  17.375  66.789  1.00  0.00    -0.248 N  
HETATM    8  C   UNL     1      -7.398  17.830  65.966  1.00  0.00    -0.272 C  
HETATM    9  C   UNL     1      -8.276  17.557  68.272  1.00  0.00    -0.263 C  
HETATM   10  C   UNL     1      -9.813  18.210  66.460  1.00  0.00    -0.362 C  
ENDBRANCH   6   7
ENDBRANCH   5   6
BRANCH   5  11
HETATM   11  C   UNL     1     -10.062  14.486  68.353  1.00  0.00    -0.241 C  
HETATM   12  C   UNL     1     -10.891  13.816  67.260  1.00  0.00    -0.285 C  
HETATM   13  O   UNL     1     -10.237  13.167  66.400  1.00  0.00    -0.273 OA 
HETATM   14  O   UNL     1     -12.116  14.100  67.293  1.00  0.00    -0.417 OA 
ENDBRANCH   5  11
ENDBRANCH   4   5
ENDBRANCH   2   4
TORSDOF 5
ENDMDL
MODEL      195
REMARK 921   NORMALIZED FREE ENERGY PREDICTED BY IDOCK:   -1.93 KCAL/MOL
REMARK 922        TOTAL FREE ENERGY PREDICTED BY IDOCK:   -3.10 KCAL/MOL
REMARK 923 INTER-LIGAND FREE ENERGY PREDICTED BY IDOCK:   -2.90 KCAL/MOL
REMARK 924 INTRA-LIGAND FREE ENERGY PREDICTED BY IDOCK:   -0.20 KCAL/MOL
REMARK 927      BINDING AFFINITY PREDICTED BY RF-SCORE:    0.00 PKD
ROOT
HETATM    1  C   UNL     1     -13.118   7.331  71.540  1.00  0.00    -0.434 C  
HETATM    2  C   UNL     1     -12.124   8.305  72.102  1.00  0.00    -0.367 C  
HETATM    3  O   UNL     1     -12.151   9.512  71.928  1.00  0.00    -0.371 OA 
ENDROOT
BRANCH   2   4
HETATM    4  O   UNL     1     -11.237   7.638  72.878  1.00  0.00    -0.363 OA 
BRANCH   4   5
HETATM    5  C   UNL     1      -9.997   7.209  72.280  1.00  0.00    -0.172 C  
BRANCH   5   6
HETATM    6  C   UNL     1      -8.972   6.844  73.385  1.00  0.00    -0.133 C  
BRANCH   6   7
HETATM    7  N   UNL     1      -7.539   7.449  73.190  1.00  0.00    -0.088 N  
HETATM    8  C   UNL     1      -7.575   8.710  72.357  1.00  0.00     0.030 C  
HETATM    9  C   UNL     1      -6.710   6.386  72.477  1.00  0.00    -0.065 C  
HETATM   10  C   UNL     1      -6.888   7.720  74.541  1.00  0.00    -0.113 C  
ENDBRANCH   6   7
ENDBRANCH   5   6
BRANCH   5  11
HETATM   11  C   UNL     1     -10.233   6.022  71.347  1.00  0.00    -0.253 C  
HETATM   12  C   UNL     1      -9.898   6.357  69.896  1.00  0.00    -0.167 C  
HETATM   13  O   UNL     1      -8.941   7.161  69.729  1.00  0.00    -0.142 OA 
HETATM   14  O   UNL     1     -10.702   5.879  69.056  1.00  0.00    -0.264 OA 
ENDBRANCH   5  11
ENDBRANCH   4   5
ENDBRANCH   2   4
TORSDOF 5
ENDMDL
MODEL      196
REMARK 921   NORMALIZED FREE ENERGY PREDICTED BY IDOCK:   -1.92 KCAL/MOL
REMARK 922        TOTAL FREE ENERGY PREDICTED BY IDOCK:   -3.08 KCAL/MOL
REMARK 923 INTER-LIGAND FREE ENERGY PREDICTED BY IDOCK:   -3.32 KCAL/MOL
REMARK 924 INTRA-LIGAND FREE ENERGY PREDICTED BY IDOCK:    0.23 KCAL/MOL
REMARK 927      BINDING AFFINITY PREDICTED BY RF-SCORE:    0.00 PKD
ROOT
HETATM    1  C   UNL     1     -13.870   7.446  71.552  1.00  0.00    -0.483 C  
HETATM    2  C   UNL     1     -12.482   6.874  71.505  1.00  0.00    -0.375 C  
HETATM    3  O   UNL     1     -12.118   5.873  72.097  1.00  0.00    -0.252 OA 
ENDROOT
BRANCH   2   4
HETATM    4  O   UNL     1     -11.727   7.610  70.655  1.00  0.00    -0.273 OA 
BRANCH   4   5
HETATM    5  C   UNL     1     -10.731   8.489  71.217  1.00  0.00    -0.240 C  
BRANCH   5   6
HETATM    6  C   UNL     1      -9.311   7.949  70.906  1.00  0.00    -0.153 C  
BRANCH   6   7
HETATM    7  N   UNL     1      -8.398   7.717  72.160  1.00  0.00    -0.110 N  
HETATM    8  C   UNL     1      -9.138   8.000  73.447  1.00  0.00    -0.273 C  
HETATM    9  C   UNL     1      -7.219   8.675  72.025  1.00  0.00    -0.043 C  
HETATM   10  C   UNL     1      -7.848   6.297  72.162  1.00  0.00    -0.104 C  
ENDBRANCH   6   7
ENDBRANCH   5   6
BRANCH   5  11
HETATM   11  C   UNL     1     -10.902   9.907  70.676  1.00  0.00    -0.400 C  
HETATM   12  C   UNL     1     -10.358  10.048  69.256  1.00  0.00    -0.219 C  
HETATM   13  O   UNL     1     -10.481   9.031  68.521  1.00  0.00    -0.211 OA 
HETATM   14  O   UNL     1      -9.747  11.126  69.041  1.00  0.00    -0.181 OA 
ENDBRANCH   5  11
ENDBRANCH   4   5
ENDBRANCH   2   4
TORSDOF 5
ENDMDL
MODEL      197
REMARK 921   NORMALIZED FREE ENERGY PREDICTED BY IDOCK:   -1.90 KCAL/MOL
REMARK 922        TOTAL FREE ENERGY PREDICTED BY IDOCK:   -3.07 KCAL/MOL
REMARK 923 INTER-LIGAND FREE ENERGY PREDICTED BY IDOCK:   -3.09 KCAL/MOL
REMARK 924 INTRA-LIGAND FREE ENERGY PREDICTED BY IDOCK:    0.02 KCAL/MOL
REMARK 927      BINDING AFFINITY PREDICTED BY RF-SCORE:    0.00 PKD
ROOT
HETATM    1  C   UNL     1     -11.908  14.827  71.927  1.00  0.00    -0.357 C  
HETATM    2  C   UNL     1     -12.951  13.927  71.329  1.00  0.00    -0.341 C  
HETATM    3  O   UNL     1     -13.855  13.393  71.950  1.00  0.00    -0.393 OA 
ENDROOT
BRANCH   2   4
HETATM    4  O   UNL     1     -12.764  13.859  69.989  1.00  0.00    -0.244 OA 
BRANCH   4   5
HETATM    5  C   UNL     1     -11.873  12.845  69.478  1.00  0.00    -0.320 C  
BRANCH   5   6
HETATM    6  C   UNL     1     -10.629  13.508  68.832  1.00  0.00    -0.165 C  
BRANCH   6   7
HETATM    7  N   UNL     1     -10.276  12.999  67.392  1.00  0.00    -0.229 N  
HETATM    8  C   UNL     1      -9.798  14.125  66.504  1.00  0.00    -0.290 C  
HETATM    9  C   UNL     1     -11.553  12.397  66.816  1.00  0.00    -0.379 C  
HETATM   10  C   UNL     1      -9.229  11.894  67.462  1.00  0.00    -0.177 C  
ENDBRANCH   6   7
ENDBRANCH   5   6
BRANCH   5  11
HETATM   11  C   UNL     1     -11.459  11.885  70.592  1.00  0.00     0.529 C  
HETATM   12  C   UNL     1     -11.823  10.439  70.267  1.00  0.00    -0.312 C  
HETATM   13  O   UNL     1     -11.758  10.120  69.048  1.00  0.00    -0.090 OA 
HETATM   14  O   UNL     1     -12.259   9.782  71.246  1.00  0.00    -0.321 OA 
ENDBRANCH   5  11
ENDBRANCH   4   5
ENDBRANCH   2   4
TORSDOF 5
ENDMDL
MODEL      198
REMARK 921   NORMALIZED FREE ENERGY PREDICTED BY IDOCK:   -1.90 KCAL/MOL
REMARK 922        TOTAL FREE ENERGY PREDICTED BY IDOCK:   -3.06 KCAL/MOL
REMARK 923 INTER-LIGAND FREE ENERGY PREDICTED BY IDOCK:   -2.94 KCAL/MOL
REMARK 924 INTRA-LIGAND FREE ENERGY PREDICTED BY IDOCK:   -0.12 KCAL/MOL
REMARK 927      BINDING AFFINITY PREDICTED BY RF-SCORE:    0.00 PKD
ROOT
HETATM    1  C   UNL     1      -9.880  10.703  67.535  1.00  0.00    -0.194 C  
HETATM    2  C   UNL     1     -10.087   9.467  66.708  1.00  0.00    -0.245 C  
HETATM    3  O   UNL     1      -9.557   9.249  65.632  1.00  0.00    -0.265 OA 
ENDROOT
BRANCH   2   4
HETATM    4  O   UNL     1     -10.902   8.617  67.376  1.00  0.00    -0.211 OA 
BRANCH   4   5
HETATM    5  C   UNL     1     -10.296   7.557  68.144  1.00  0.00    -0.200 C  
BRANCH   5   6
HETATM    6  C   UNL     1      -8.761   7.552  67.923  1.00  0.00    -0.124 C  
BRANCH   6   7
HETATM    7  N   UNL     1      -8.193   6.264  67.233  1.00  0.00    -0.109 N  
HETATM    8  C   UNL     1      -7.549   5.333  68.235  1.00  0.00    -0.080 C  
HETATM    9  C   UNL     1      -7.150   6.732  66.223  1.00  0.00    -0.067 C  
HETATM   10  C   UNL     1      -9.294   5.542  66.466  1.00  0.00    -0.147 C  
ENDBRANCH   6   7
ENDBRANCH   5   6
BRANCH   5  11
HETATM   11  C   UNL     1     -10.629   7.712  69.627  1.00  0.00    -0.243 C  
HETATM   12  C   UNL     1     -11.177   6.421  70.230  1.00  0.00    -0.382 C  
HETATM   13  O   UNL     1     -10.700   5.353  69.758  1.00  0.00    -0.315 OA 
HETATM   14  O   UNL     1     -12.125   6.589  71.038  1.00  0.00    -0.352 OA 
ENDBRANCH   5  11
ENDBRANCH   4   5
ENDBRANCH   2   4
TORSDOF 5
ENDMDL
MODEL      199
REMARK 921   NORMALIZED FREE ENERGY PREDICTED BY IDOCK:   -1.89 KCAL/MOL
REMARK 922        TOTAL FREE ENERGY PREDICTED BY IDOCK:   -3.05 KCAL/MOL
REMARK 923 INTER-LIGAND FREE ENERGY PREDICTED BY IDOCK:   -2.44 KCAL/MOL
REMARK 924 INTRA-LIGAND FREE ENERGY PREDICTED BY IDOCK:   -0.61 KCAL/MOL
REMARK 927      BINDING AFFINITY PREDICTED BY RF-SCORE:    0.00 PKD
ROOT
HETATM    1  C   UNL     1     -10.329   7.125  66.978  1.00  0.00    -0.368 C  
HETATM    2  C   UNL     1      -9.084   6.719  66.243  1.00  0.00    -0.139 C  
HETATM    3  O   UNL     1      -9.033   5.876  65.364  1.00  0.00    -0.115 OA 
ENDROOT
BRANCH   2   4
HETATM    4  O   UNL     1      -8.049   7.483  66.668  1.00  0.00    -0.116 OA 
BRANCH   4   5
HETATM    5  C   UNL     1      -8.256   8.906  66.784  1.00  0.00    -0.111 C  
BRANCH   5   6
HETATM    6  C   UNL     1      -7.224   9.513  67.771  1.00  0.00    -0.082 C  
BRANCH   6   7
HETATM    7  N   UNL     1      -7.823  10.487  68.843  1.00  0.00    -0.115 N  
HETATM    8  C   UNL     1      -7.829  11.917  68.355  1.00  0.00    -0.141 C  
HETATM    9  C   UNL     1      -6.940  10.370  70.081  1.00  0.00    -0.141 C  
HETATM   10  C   UNL     1      -9.231  10.050  69.231  1.00  0.00    -0.203 C  
ENDBRANCH   6   7
ENDBRANCH   5   6
BRANCH   5  11
HETATM   11  C   UNL     1      -8.156   9.576  65.416  1.00  0.00    -0.125 C  
HETATM   12  C   UNL     1      -9.439  10.315  65.044  1.00  0.00    -0.257 C  
HETATM   13  O   UNL     1     -10.063  10.842  66.005  1.00  0.00    -0.232 OA 
HETATM   14  O   UNL     1      -9.772  10.199  63.837  1.00  0.00    -0.297 OA 
ENDBRANCH   5  11
ENDBRANCH   4   5
ENDBRANCH   2   4
TORSDOF 5
ENDMDL
MODEL      200
REMARK 921   NORMALIZED FREE ENERGY PREDICTED BY IDOCK:   -1.89 KCAL/MOL
REMARK 922        TOTAL FREE ENERGY PREDICTED BY IDOCK:   -3.05 KCAL/MOL
REMARK 923 INTER-LIGAND FREE ENERGY PREDICTED BY IDOCK:   -2.52 KCAL/MOL
REMARK 924 INTRA-LIGAND FREE ENERGY PREDICTED BY IDOCK:   -0.52 KCAL/MOL
REMARK 927      BINDING AFFINITY PREDICTED BY RF-SCORE:    0.00 PKD
ROOT
HETATM    1  C   UNL     1     -10.749   4.827  72.769  1.00  0.00    -0.282 C  
HETATM    2  C   UNL     1      -9.593   5.221  71.895  1.00  0.00    -0.152 C  
HETATM    3  O   UNL     1      -9.120   4.531  71.008  1.00  0.00    -0.122 OA 
ENDROOT
BRANCH   2   4
HETATM    4  O   UNL     1      -9.208   6.481  72.209  1.00  0.00    -0.140 OA 
BRANCH   4   5
HETATM    5  C   UNL     1      -8.925   7.394  71.128  1.00  0.00    -0.143 C  
BRANCH   5   6
HETATM    6  C   UNL     1     -10.212   7.657  70.304  1.00  0.00    -0.205 C  
BRANCH   6   7
HETATM    7  N   UNL     1     -10.076   7.413  68.762  1.00  0.00    -0.174 N  
HETATM    8  C   UNL     1     -10.978   6.294  68.293  1.00  0.00    -0.321 C  
HETATM    9  C   UNL     1      -8.620   7.040  68.505  1.00  0.00    -0.123 C  
HETATM   10  C   UNL     1     -10.372   8.695  67.993  1.00  0.00    -0.223 C  
ENDBRANCH   6   7
ENDBRANCH   5   6
BRANCH   5  11
HETATM   11  C   UNL     1      -8.352   8.703  71.669  1.00  0.00    -0.216 C  
HETATM   12  C   UNL     1      -6.834   8.645  71.819  1.00  0.00    -0.080 C  
HETATM   13  O   UNL     1      -6.226   7.952  70.958  1.00  0.00    -0.034 OA 
HETATM   14  O   UNL     1      -6.395   9.201  72.858  1.00  0.00    -0.307 OA 
ENDBRANCH   5  11
ENDBRANCH   4   5
ENDBRANCH   2   4
TORSDOF 5
ENDMDL
MODEL      201
REMARK 921   NORMALIZED FREE ENERGY PREDICTED BY IDOCK:   -1.87 KCAL/MOL
REMARK 922        TOTAL FREE ENERGY PREDICTED BY IDOCK:   -3.03 KCAL/MOL
REMARK 923 INTER-LIGAND FREE ENERGY PREDICTED BY IDOCK:   -3.27 KCAL/MOL
REMARK 924 INTRA-LIGAND FREE ENERGY PREDICTED BY IDOCK:    0.24 KCAL/MOL
REMARK 927      BINDING AFFINITY PREDICTED BY RF-SCORE:    0.00 PKD
ROOT
HETATM    1  C   UNL     1      -8.612   6.462  72.801  1.00  0.00    -0.125 C  
HETATM    2  C   UNL     1     -10.113   6.522  72.803  1.00  0.00    -0.176 C  
HETATM    3  O   UNL     1     -10.817   6.391  73.789  1.00  0.00    -0.222 OA 
ENDROOT
BRANCH   2   4
HETATM    4  O   UNL     1     -10.547   6.806  71.552  1.00  0.00    -0.217 OA 
BRANCH   4   5
HETATM    5  C   UNL     1     -10.272   8.117  71.017  1.00  0.00    -0.188 C  
BRANCH   5   6
HETATM    6  C   UNL     1     -10.854   8.239  69.585  1.00  0.00    -0.150 C  
BRANCH   6   7
HETATM    7  N   UNL     1      -9.806   8.576  68.468  1.00  0.00    -0.168 N  
HETATM    8  C   UNL     1     -10.130   7.873  67.170  1.00  0.00    -0.258 C  
HETATM    9  C   UNL     1      -8.450   8.105  68.983  1.00  0.00    -0.129 C  
HETATM   10  C   UNL     1      -9.726  10.083  68.252  1.00  0.00    -0.141 C  
ENDBRANCH   6   7
ENDBRANCH   5   6
BRANCH   5  11
HETATM   11  C   UNL     1     -10.846   9.200  71.929  1.00  0.00    -0.353 C  
HETATM   12  C   UNL     1     -12.370   9.258  71.860  1.00  0.00    -0.382 C  
HETATM   13  O   UNL     1     -12.951   8.154  71.683  1.00  0.00    -0.324 OA 
HETATM   14  O   UNL     1     -12.844  10.423  71.869  1.00  0.00    -0.433 OA 
ENDBRANCH   5  11
ENDBRANCH   4   5
ENDBRANCH   2   4
TORSDOF 5
ENDMDL
MODEL      202
REMARK 921   NORMALIZED FREE ENERGY PREDICTED BY IDOCK:   -1.85 KCAL/MOL
REMARK 922        TOTAL FREE ENERGY PREDICTED BY IDOCK:   -3.00 KCAL/MOL
REMARK 923 INTER-LIGAND FREE ENERGY PREDICTED BY IDOCK:   -3.12 KCAL/MOL
REMARK 924 INTRA-LIGAND FREE ENERGY PREDICTED BY IDOCK:    0.12 KCAL/MOL
REMARK 927      BINDING AFFINITY PREDICTED BY RF-SCORE:    0.00 PKD
ROOT
HETATM    1  C   UNL     1     -12.776   7.357  71.630  1.00  0.00    -0.399 C  
HETATM    2  C   UNL     1     -11.585   7.930  72.342  1.00  0.00    -0.380 C  
HETATM    3  O   UNL     1     -11.105   9.031  72.131  1.00  0.00    -0.350 OA 
ENDROOT
BRANCH   2   4
HETATM    4  O   UNL     1     -11.174   7.057  73.293  1.00  0.00    -0.229 OA 
BRANCH   4   5
HETATM    5  C   UNL     1     -10.037   6.219  73.002  1.00  0.00    -0.184 C  
BRANCH   5   6
HETATM    6  C   UNL     1     -10.477   5.009  72.137  1.00  0.00    -0.210 C  
BRANCH   6   7
HETATM    7  N   UNL     1     -10.138   3.602  72.739  1.00  0.00    -0.153 N  
HETATM    8  C   UNL     1     -11.284   3.056  73.559  1.00  0.00    -0.191 C  
HETATM    9  C   UNL     1      -8.914   3.791  73.629  1.00  0.00    -0.088 C  
HETATM   10  C   UNL     1      -9.763   2.626  71.630  1.00  0.00    -0.156 C  
ENDBRANCH   6   7
ENDBRANCH   5   6
BRANCH   5  11
HETATM   11  C   UNL     1      -8.946   7.022  72.295  1.00  0.00    -0.144 C  
HETATM   12  C   UNL     1      -8.072   7.792  73.281  1.00  0.00    -0.148 C  
HETATM   13  O   UNL     1      -7.876   7.230  74.392  1.00  0.00    -0.127 OA 
HETATM   14  O   UNL     1      -7.757   8.948  72.900  1.00  0.00    -0.365 OA 
ENDBRANCH   5  11
ENDBRANCH   4   5
ENDBRANCH   2   4
TORSDOF 5
ENDMDL
MODEL      203
REMARK 921   NORMALIZED FREE ENERGY PREDICTED BY IDOCK:   -1.84 KCAL/MOL
REMARK 922        TOTAL FREE ENERGY PREDICTED BY IDOCK:   -2.99 KCAL/MOL
REMARK 923 INTER-LIGAND FREE ENERGY PREDICTED BY IDOCK:   -2.41 KCAL/MOL
REMARK 924 INTRA-LIGAND FREE ENERGY PREDICTED BY IDOCK:   -0.58 KCAL/MOL
REMARK 927      BINDING AFFINITY PREDICTED BY RF-SCORE:    0.00 PKD
ROOT
HETATM    1  C   UNL     1      -8.685   6.028  67.760  1.00  0.00    -0.104 C  
HETATM    2  C   UNL     1      -9.602   6.604  68.800  1.00  0.00    -0.131 C  
HETATM    3  O   UNL     1     -10.820   6.550  68.767  1.00  0.00    -0.251 OA 
ENDROOT
BRANCH   2   4
HETATM    4  O   UNL     1      -8.860   7.132  69.803  1.00  0.00    -0.141 OA 
BRANCH   4   5
HETATM    5  C   UNL     1      -9.149   6.718  71.154  1.00  0.00    -0.151 C  
BRANCH   5   6
HETATM    6  C   UNL     1      -7.853   6.221  71.846  1.00  0.00    -0.101 C  
BRANCH   6   7
HETATM    7  N   UNL     1      -7.884   4.728  72.323  1.00  0.00    -0.096 N  
HETATM    8  C   UNL     1      -6.551   4.048  72.113  1.00  0.00    -0.022 C  
HETATM    9  C   UNL     1      -8.955   4.026  71.495  1.00  0.00    -0.114 C  
HETATM   10  C   UNL     1      -8.298   4.647  73.787  1.00  0.00    -0.105 C  
ENDBRANCH   6   7
ENDBRANCH   5   6
BRANCH   5  11
HETATM   11  C   UNL     1      -9.779   7.864  71.943  1.00  0.00    -0.231 C  
HETATM   12  C   UNL     1     -11.140   7.482  72.520  1.00  0.00    -0.321 C  
HETATM   13  O   UNL     1     -11.265   6.278  72.872  1.00  0.00    -0.251 OA 
HETATM   14  O   UNL     1     -12.003   8.395  72.459  1.00  0.00    -0.393 OA 
ENDBRANCH   5  11
ENDBRANCH   4   5
ENDBRANCH   2   4
TORSDOF 5
ENDMDL
MODEL      204
REMARK 921   NORMALIZED FREE ENERGY PREDICTED BY IDOCK:   -1.84 KCAL/MOL
REMARK 922        TOTAL FREE ENERGY PREDICTED BY IDOCK:   -2.98 KCAL/MOL
REMARK 923 INTER-LIGAND FREE ENERGY PREDICTED BY IDOCK:   -3.29 KCAL/MOL
REMARK 924 INTRA-LIGAND FREE ENERGY PREDICTED BY IDOCK:    0.31 KCAL/MOL
REMARK 927      BINDING AFFINITY PREDICTED BY RF-SCORE:    0.00 PKD
ROOT
HETATM    1  C   UNL     1     -11.044  15.725  65.372  1.00  0.00    -0.232 C  
HETATM    2  C   UNL     1      -9.710  15.233  65.853  1.00  0.00    -0.355 C  
HETATM    3  O   UNL     1      -9.419  14.063  66.033  1.00  0.00    -0.239 OA 
ENDROOT
BRANCH   2   4
HETATM    4  O   UNL     1      -8.871  16.288  65.992  1.00  0.00    -0.333 OA 
BRANCH   4   5
HETATM    5  C   UNL     1      -8.788  16.925  67.283  1.00  0.00    -0.195 C  
BRANCH   5   6
HETATM    6  C   UNL     1      -7.327  16.886  67.801  1.00  0.00    -0.155 C  
BRANCH   6   7
HETATM    7  N   UNL     1      -6.978  15.663  68.718  1.00  0.00    -0.115 N  
HETATM    8  C   UNL     1      -8.159  15.245  69.563  1.00  0.00    -0.196 C  
HETATM    9  C   UNL     1      -5.831  16.105  69.620  1.00  0.00    -0.163 C  
HETATM   10  C   UNL     1      -6.485  14.492  67.876  1.00  0.00    -0.162 C  
ENDBRANCH   6   7
ENDBRANCH   5   6
BRANCH   5  11
HETATM   11  C   UNL     1      -9.297  18.363  67.205  1.00  0.00    -0.271 C  
HETATM   12  C   UNL     1      -9.262  19.059  68.564  1.00  0.00    -0.367 C  
HETATM   13  O   UNL     1      -8.313  18.724  69.324  1.00  0.00    -0.053 OA 
HETATM   14  O   UNL     1     -10.258  19.791  68.796  1.00  0.00    -0.449 OA 
ENDBRANCH   5  11
ENDBRANCH   4   5
ENDBRANCH   2   4
TORSDOF 5
ENDMDL
MODEL      205
REMARK 921   NORMALIZED FREE ENERGY PREDICTED BY IDOCK:   -1.83 KCAL/MOL
REMARK 922        TOTAL FREE ENERGY PREDICTED BY IDOCK:   -2.97 KCAL/MOL
REMARK 923 INTER-LIGAND FREE ENERGY PREDICTED BY IDOCK:   -3.17 KCAL/MOL
REMARK 924 INTRA-LIGAND FREE ENERGY PREDICTED BY IDOCK:    0.20 KCAL/MOL
REMARK 927      BINDING AFFINITY PREDICTED BY RF-SCORE:    0.00 PKD
ROOT
HETATM    1  C   UNL     1      -6.417   9.946  68.315  1.00  0.00    -0.055 C  
HETATM    2  C   UNL     1      -7.208  11.081  67.731  1.00  0.00    -0.091 C  
HETATM    3  O   UNL     1      -6.906  11.699  66.725  1.00  0.00    -0.137 OA 
ENDROOT
BRANCH   2   4
HETATM    4  O   UNL     1      -8.333  11.261  68.463  1.00  0.00    -0.144 OA 
BRANCH   4   5
HETATM    5  C   UNL     1      -9.390  10.287  68.336  1.00  0.00    -0.143 C  
BRANCH   5   6
HETATM    6  C   UNL     1     -10.341  10.373  69.558  1.00  0.00    -0.237 C  
BRANCH   6   7
HETATM    7  N   UNL     1     -10.327   9.121  70.502  1.00  0.00    -0.217 N  
HETATM    8  C   UNL     1      -8.951   8.872  71.076  1.00  0.00    -0.241 C  
HETATM    9  C   UNL     1     -10.753   7.928  69.652  1.00  0.00    -0.218 C  
HETATM   10  C   UNL     1     -11.349   9.287  71.619  1.00  0.00    -0.397 C  
ENDBRANCH   6   7
ENDBRANCH   5   6
BRANCH   5  11
HETATM   11  C   UNL     1     -10.161  10.499  67.034  1.00  0.00    -0.275 C  
HETATM   12  C   UNL     1     -10.856  11.858  66.995  1.00  0.00    -0.259 C  
HETATM   13  O   UNL     1     -10.250  12.798  67.575  1.00  0.00    -0.213 OA 
HETATM   14  O   UNL     1     -12.007  11.836  66.489  1.00  0.00    -0.545 OA 
ENDBRANCH   5  11
ENDBRANCH   4   5
ENDBRANCH   2   4
TORSDOF 5
ENDMDL
MODEL      206
REMARK 921   NORMALIZED FREE ENERGY PREDICTED BY IDOCK:   -1.82 KCAL/MOL
REMARK 922        TOTAL FREE ENERGY PREDICTED BY IDOCK:   -2.96 KCAL/MOL
REMARK 923 INTER-LIGAND FREE ENERGY PREDICTED BY IDOCK:   -2.39 KCAL/MOL
REMARK 924 INTRA-LIGAND FREE ENERGY PREDICTED BY IDOCK:   -0.57 KCAL/MOL
REMARK 927      BINDING AFFINITY PREDICTED BY RF-SCORE:    0.00 PKD
ROOT
HETATM    1  C   UNL     1     -11.211   6.236  67.107  1.00  0.00    -0.260 C  
HETATM    2  C   UNL     1     -10.739   6.267  68.533  1.00  0.00    -0.292 C  
HETATM    3  O   UNL     1     -11.467   6.284  69.511  1.00  0.00    -0.428 OA 
ENDROOT
BRANCH   2   4
HETATM    4  O   UNL     1      -9.386   6.209  68.554  1.00  0.00    -0.118 OA 
BRANCH   4   5
HETATM    5  C   UNL     1      -8.655   7.443  68.701  1.00  0.00    -0.129 C  
BRANCH   5   6
HETATM    6  C   UNL     1      -7.609   7.308  69.839  1.00  0.00    -0.094 C  
BRANCH   6   7
HETATM    7  N   UNL     1      -7.680   8.420  70.943  1.00  0.00    -0.080 N  
HETATM    8  C   UNL     1      -9.103   8.864  71.195  1.00  0.00    -0.249 C  
HETATM    9  C   UNL     1      -6.857   9.597  70.431  1.00  0.00    -0.120 C  
HETATM   10  C   UNL     1      -7.039   7.927  72.234  1.00  0.00    -0.081 C  
ENDBRANCH   6   7
ENDBRANCH   5   6
BRANCH   5  11
HETATM   11  C   UNL     1      -7.978   7.825  67.386  1.00  0.00    -0.119 C  
HETATM   12  C   UNL     1      -8.654   9.021  66.719  1.00  0.00    -0.123 C  
HETATM   13  O   UNL     1      -9.130   9.885  67.504  1.00  0.00    -0.134 OA 
HETATM   14  O   UNL     1      -8.754   8.928  65.469  1.00  0.00    -0.162 OA 
ENDBRANCH   5  11
ENDBRANCH   4   5
ENDBRANCH   2   4
TORSDOF 5
ENDMDL
MODEL      207
REMARK 921   NORMALIZED FREE ENERGY PREDICTED BY IDOCK:   -1.82 KCAL/MOL
REMARK 922        TOTAL FREE ENERGY PREDICTED BY IDOCK:   -2.95 KCAL/MOL
REMARK 923 INTER-LIGAND FREE ENERGY PREDICTED BY IDOCK:   -2.46 KCAL/MOL
REMARK 924 INTRA-LIGAND FREE ENERGY PREDICTED BY IDOCK:   -0.49 KCAL/MOL
REMARK 927      BINDING AFFINITY PREDICTED BY RF-SCORE:    0.00 PKD
ROOT
HETATM    1  C   UNL     1      -5.760   5.687  71.904  1.00  0.00    -0.022 C  
HETATM    2  C   UNL     1      -6.922   6.304  71.181  1.00  0.00    -0.068 C  
HETATM    3  O   UNL     1      -7.229   6.072  70.024  1.00  0.00    -0.069 OA 
ENDROOT
BRANCH   2   4
HETATM    4  O   UNL     1      -7.604   7.103  72.035  1.00  0.00    -0.088 OA 
BRANCH   4   5
HETATM    5  C   UNL     1      -9.010   6.847  72.232  1.00  0.00    -0.134 C  
BRANCH   5   6
HETATM    6  C   UNL     1      -9.204   5.757  73.318  1.00  0.00    -0.135 C  
BRANCH   6   7
HETATM    7  N   UNL     1      -9.756   4.386  72.795  1.00  0.00    -0.137 N  
HETATM    8  C   UNL     1      -9.972   4.407  71.299  1.00  0.00    -0.175 C  
HETATM    9  C   UNL     1     -11.086   4.151  73.503  1.00  0.00    -0.270 C  
HETATM   10  C   UNL     1      -8.814   3.252  73.182  1.00  0.00    -0.080 C  
ENDBRANCH   6   7
ENDBRANCH   5   6
BRANCH   5  11
HETATM   11  C   UNL     1      -9.740   8.131  72.617  1.00  0.00    -0.360 C  
HETATM   12  C   UNL     1     -10.933   8.408  71.705  1.00  0.00    -0.291 C  
HETATM   13  O   UNL     1     -11.545   7.390  71.283  1.00  0.00    -0.264 OA 
HETATM   14  O   UNL     1     -11.078   9.618  71.395  1.00  0.00    -0.365 OA 
ENDBRANCH   5  11
ENDBRANCH   4   5
ENDBRANCH   2   4
TORSDOF 5
ENDMDL
MODEL      208
REMARK 921   NORMALIZED FREE ENERGY PREDICTED BY IDOCK:   -1.81 KCAL/MOL
REMARK 922        TOTAL FREE ENERGY PREDICTED BY IDOCK:   -2.94 KCAL/MOL
REMARK 923 INTER-LIGAND FREE ENERGY PREDICTED BY IDOCK:   -3.15 KCAL/MOL
REMARK 924 INTRA-LIGAND FREE ENERGY PREDICTED BY IDOCK:    0.21 KCAL/MOL
REMARK 927      BINDING AFFINITY PREDICTED BY RF-SCORE:    0.00 PKD
ROOT
HETATM    1  C   UNL     1     -12.595   7.113  71.331  1.00  0.00    -0.432 C  
HETATM    2  C   UNL     1     -11.577   6.530  72.269  1.00  0.00    -0.292 C  
HETATM    3  O   UNL     1     -11.598   5.391  72.704  1.00  0.00    -0.282 OA 
ENDROOT
BRANCH   2   4
HETATM    4  O   UNL     1     -10.608   7.448  72.499  1.00  0.00    -0.225 OA 
BRANCH   4   5
HETATM    5  C   UNL     1      -9.634   7.683  71.461  1.00  0.00    -0.154 C  
BRANCH   5   6
HETATM    6  C   UNL     1      -9.560   9.198  71.136  1.00  0.00    -0.277 C  
BRANCH   6   7
HETATM    7  N   UNL     1      -9.876   9.575  69.648  1.00  0.00    -0.192 N  
HETATM    8  C   UNL     1      -8.712  10.284  68.994  1.00  0.00    -0.163 C  
HETATM    9  C   UNL     1     -11.089  10.499  69.678  1.00  0.00    -0.283 C  
HETATM   10  C   UNL     1     -10.256   8.331  68.854  1.00  0.00    -0.210 C  
ENDBRANCH   6   7
ENDBRANCH   5   6
BRANCH   5  11
HETATM   11  C   UNL     1      -8.265   7.152  71.881  1.00  0.00    -0.104 C  
HETATM   12  C   UNL     1      -7.641   7.990  72.993  1.00  0.00    -0.132 C  
HETATM   13  O   UNL     1      -8.450   8.486  73.823  1.00  0.00    -0.337 OA 
HETATM   14  O   UNL     1      -6.404   8.178  72.868  1.00  0.00    -0.070 OA 
ENDBRANCH   5  11
ENDBRANCH   4   5
ENDBRANCH   2   4
TORSDOF 5
ENDMDL
MODEL      209
REMARK 921   NORMALIZED FREE ENERGY PREDICTED BY IDOCK:   -1.80 KCAL/MOL
REMARK 922        TOTAL FREE ENERGY PREDICTED BY IDOCK:   -2.93 KCAL/MOL
REMARK 923 INTER-LIGAND FREE ENERGY PREDICTED BY IDOCK:   -3.11 KCAL/MOL
REMARK 924 INTRA-LIGAND FREE ENERGY PREDICTED BY IDOCK:    0.18 KCAL/MOL
REMARK 927      BINDING AFFINITY PREDICTED BY RF-SCORE:    0.00 PKD
ROOT
HETATM    1  C   UNL     1     -10.569  17.707  67.125  1.00  0.00    -0.277 C  
HETATM    2  C   UNL     1      -9.130  17.939  66.767  1.00  0.00    -0.268 C  
HETATM    3  O   UNL     1      -8.625  17.673  65.689  1.00  0.00    -0.410 OA 
ENDROOT
BRANCH   2   4
HETATM    4  O   UNL     1      -8.506  18.545  67.805  1.00  0.00    -0.263 OA 
BRANCH   4   5
HETATM    5  C   UNL     1      -7.521  17.791  68.541  1.00  0.00    -0.272 C  
BRANCH   5   6
HETATM    6  C   UNL     1      -7.255  16.436  67.836  1.00  0.00    -0.137 C  
BRANCH   6   7
HETATM    7  N   UNL     1      -7.623  15.164  68.677  1.00  0.00    -0.120 N  
HETATM    8  C   UNL     1      -8.965  15.314  69.355  1.00  0.00    -0.225 C  
HETATM    9  C   UNL     1      -6.531  15.005  69.730  1.00  0.00    -0.163 C  
HETATM   10  C   UNL     1      -7.606  13.921  67.796  1.00  0.00    -0.169 C  
ENDBRANCH   6   7
ENDBRANCH   5   6
BRANCH   5  11
HETATM   11  C   UNL     1      -6.228  18.591  68.682  1.00  0.00    -0.217 C  
HETATM   12  C   UNL     1      -6.459  19.938  69.363  1.00  0.00    -0.347 C  
HETATM   13  O   UNL     1      -7.357  19.955  70.247  1.00  0.00     0.109 OA 
HETATM   14  O   UNL     1      -5.801  20.888  68.867  1.00  0.00    -0.353 OA 
ENDBRANCH   5  11
ENDBRANCH   4   5
ENDBRANCH   2   4
TORSDOF 5
ENDMDL
MODEL      210
REMARK 921   NORMALIZED FREE ENERGY PREDICTED BY IDOCK:   -1.78 KCAL/MOL
REMARK 922        TOTAL FREE ENERGY PREDICTED BY IDOCK:   -2.91 KCAL/MOL
REMARK 923 INTER-LIGAND FREE ENERGY PREDICTED BY IDOCK:   -2.48 KCAL/MOL
REMARK 924 INTRA-LIGAND FREE ENERGY PREDICTED BY IDOCK:   -0.43 KCAL/MOL
REMARK 927      BINDING AFFINITY PREDICTED BY RF-SCORE:    0.00 PKD
ROOT
HETATM    1  C   UNL     1      -9.239   3.844  71.633  1.00  0.00    -0.188 C  
HETATM    2  C   UNL     1     -10.408   4.627  72.159  1.00  0.00    -0.176 C  
HETATM    3  O   UNL     1     -10.926   4.464  73.251  1.00  0.00    -0.231 OA 
ENDROOT
BRANCH   2   4
HETATM    4  O   UNL     1     -10.748   5.577  71.256  1.00  0.00    -0.251 OA 
BRANCH   4   5
HETATM    5  C   UNL     1      -9.925   6.759  71.169  1.00  0.00    -0.181 C  
BRANCH   5   6
HETATM    6  C   UNL     1     -10.380   7.636  69.974  1.00  0.00    -0.223 C  
BRANCH   6   7
HETATM    7  N   UNL     1      -9.481   7.533  68.693  1.00  0.00    -0.146 N  
HETATM    8  C   UNL     1      -9.766   6.270  67.913  1.00  0.00    -0.122 C  
HETATM    9  C   UNL     1      -8.034   7.525  69.174  1.00  0.00    -0.121 C  
HETATM   10  C   UNL     1      -9.673   8.759  67.810  1.00  0.00    -0.158 C  
ENDBRANCH   6   7
ENDBRANCH   5   6
BRANCH   5  11
HETATM   11  C   UNL     1      -9.984   7.550  72.474  1.00  0.00    -0.248 C  
HETATM   12  C   UNL     1      -8.702   7.406  73.290  1.00  0.00    -0.151 C  
HETATM   13  O   UNL     1      -7.639   7.294  72.622  1.00  0.00    -0.082 OA 
HETATM   14  O   UNL     1      -8.887   7.296  74.529  1.00  0.00    -0.202 OA 
ENDBRANCH   5  11
ENDBRANCH   4   5
ENDBRANCH   2   4
TORSDOF 5
ENDMDL
MODEL      211
REMARK 921   NORMALIZED FREE ENERGY PREDICTED BY IDOCK:   -1.78 KCAL/MOL
REMARK 922        TOTAL FREE ENERGY PREDICTED BY IDOCK:   -2.91 KCAL/MOL
REMARK 923 INTER-LIGAND FREE ENERGY PREDICTED BY IDOCK:   -2.39 KCAL/MOL
REMARK 924 INTRA-LIGAND FREE ENERGY PREDICTED BY IDOCK:   -0.52 KCAL/MOL
REMARK 927      BINDING AFFINITY PREDICTED BY RF-SCORE:    0.00 PKD
ROOT
HETATM    1  C   UNL     1     -12.091   6.753  70.752  1.00  0.00    -0.402 C  
HETATM    2  C   UNL     1     -10.874   6.500  69.910  1.00  0.00    -0.286 C  
HETATM    3  O   UNL     1     -10.688   5.505  69.231  1.00  0.00    -0.277 OA 
ENDROOT
BRANCH   2   4
HETATM    4  O   UNL     1     -10.055   7.577  69.978  1.00  0.00    -0.194 OA 
BRANCH   4   5
HETATM    5  C   UNL     1      -8.631   7.351  69.939  1.00  0.00    -0.140 C  
BRANCH   5   6
HETATM    6  C   UNL     1      -8.082   7.668  68.524  1.00  0.00    -0.124 C  
BRANCH   6   7
HETATM    7  N   UNL     1      -7.283   6.503  67.844  1.00  0.00    -0.085 N  
HETATM    8  C   UNL     1      -7.912   6.087  66.533  1.00  0.00    -0.105 C  
HETATM    9  C   UNL     1      -7.304   5.331  68.819  1.00  0.00    -0.070 C  
HETATM   10  C   UNL     1      -5.830   6.909  67.632  1.00  0.00    -0.021 C  
ENDBRANCH   6   7
ENDBRANCH   5   6
BRANCH   5  11
HETATM   11  C   UNL     1      -7.926   8.198  70.996  1.00  0.00    -0.096 C  
HETATM   12  C   UNL     1      -8.160   7.666  72.407  1.00  0.00    -0.108 C  
HETATM   13  O   UNL     1      -8.258   6.413  72.509  1.00  0.00    -0.106 OA 
HETATM   14  O   UNL     1      -8.345   8.558  73.274  1.00  0.00    -0.372 OA 
ENDBRANCH   5  11
ENDBRANCH   4   5
ENDBRANCH   2   4
TORSDOF 5
ENDMDL
MODEL      212
REMARK 921   NORMALIZED FREE ENERGY PREDICTED BY IDOCK:   -1.73 KCAL/MOL
REMARK 922        TOTAL FREE ENERGY PREDICTED BY IDOCK:   -2.84 KCAL/MOL
REMARK 923 INTER-LIGAND FREE ENERGY PREDICTED BY IDOCK:   -2.96 KCAL/MOL
REMARK 924 INTRA-LIGAND FREE ENERGY PREDICTED BY IDOCK:    0.12 KCAL/MOL
REMARK 927      BINDING AFFINITY PREDICTED BY RF-SCORE:    0.00 PKD
ROOT
HETATM    1  C   UNL     1     -11.856   6.072  72.275  1.00  0.00    -0.305 C  
HETATM    2  C   UNL     1     -11.862   7.370  71.520  1.00  0.00    -0.297 C  
HETATM    3  O   UNL     1     -12.230   8.441  71.972  1.00  0.00    -0.319 OA 
ENDROOT
BRANCH   2   4
HETATM    4  O   UNL     1     -11.337   7.170  70.288  1.00  0.00    -0.281 OA 
BRANCH   4   5
HETATM    5  C   UNL     1     -10.024   7.700  70.014  1.00  0.00    -0.190 C  
BRANCH   5   6
HETATM    6  C   UNL     1     -10.082   9.247  69.934  1.00  0.00    -0.209 C  
BRANCH   6   7
HETATM    7  N   UNL     1     -10.273   9.833  68.492  1.00  0.00    -0.179 N  
HETATM    8  C   UNL     1     -11.448  10.781  68.427  1.00  0.00    -0.288 C  
HETATM    9  C   UNL     1     -10.518   8.646  67.567  1.00  0.00    -0.266 C  
HETATM   10  C   UNL     1      -8.999  10.530  68.029  1.00  0.00    -0.135 C  
ENDBRANCH   6   7
ENDBRANCH   5   6
BRANCH   5  11
HETATM   11  C   UNL     1      -9.030   7.249  71.083  1.00  0.00    -0.147 C  
HETATM   12  C   UNL     1      -8.289   5.978  70.677  1.00  0.00    -0.125 C  
HETATM   13  O   UNL     1      -8.050   5.855  69.445  1.00  0.00    -0.105 OA 
HETATM   14  O   UNL     1      -8.119   5.157  71.614  1.00  0.00    -0.110 OA 
ENDBRANCH   5  11
ENDBRANCH   4   5
ENDBRANCH   2   4
TORSDOF 5
ENDMDL
MODEL      213
REMARK 921   NORMALIZED FREE ENERGY PREDICTED BY IDOCK:   -1.72 KCAL/MOL
REMARK 922        TOTAL FREE ENERGY PREDICTED BY IDOCK:   -2.83 KCAL/MOL
REMARK 923 INTER-LIGAND FREE ENERGY PREDICTED BY IDOCK:   -2.23 KCAL/MOL
REMARK 924 INTRA-LIGAND FREE ENERGY PREDICTED BY IDOCK:   -0.60 KCAL/MOL
REMARK 927      BINDING AFFINITY PREDICTED BY RF-SCORE:    0.00 PKD
ROOT
HETATM    1  C   UNL     1     -11.072   6.341  69.561  1.00  0.00    -0.476 C  
HETATM    2  C   UNL     1     -10.146   7.341  68.930  1.00  0.00    -0.180 C  
HETATM    3  O   UNL     1     -10.500   8.331  68.313  1.00  0.00    -0.205 OA 
ENDROOT
BRANCH   2   4
HETATM    4  O   UNL     1      -8.866   7.000  69.212  1.00  0.00    -0.138 OA 
BRANCH   4   5
HETATM    5  C   UNL     1      -8.562   5.604  69.411  1.00  0.00    -0.106 C  
BRANCH   5   6
HETATM    6  C   UNL     1      -7.939   5.007  68.121  1.00  0.00    -0.087 C  
BRANCH   6   7
HETATM    7  N   UNL     1      -8.789   3.886  67.429  1.00  0.00    -0.114 N  
HETATM    8  C   UNL     1      -9.404   2.948  68.443  1.00  0.00    -0.192 C  
HETATM    9  C   UNL     1      -7.838   3.113  66.523  1.00  0.00    -0.077 C  
HETATM   10  C   UNL     1      -9.870   4.505  66.552  1.00  0.00    -0.227 C  
ENDBRANCH   6   7
ENDBRANCH   5   6
BRANCH   5  11
HETATM   11  C   UNL     1      -7.620   5.425  70.600  1.00  0.00    -0.081 C  
HETATM   12  C   UNL     1      -8.358   4.946  71.848  1.00  0.00    -0.119 C  
HETATM   13  O   UNL     1      -9.333   4.173  71.642  1.00  0.00    -0.126 OA 
HETATM   14  O   UNL     1      -7.969   5.482  72.917  1.00  0.00    -0.101 OA 
ENDBRANCH   5  11
ENDBRANCH   4   5
ENDBRANCH   2   4
TORSDOF 5
ENDMDL
MODEL      214
REMARK 921   NORMALIZED FREE ENERGY PREDICTED BY IDOCK:   -1.71 KCAL/MOL
REMARK 922        TOTAL FREE ENERGY PREDICTED BY IDOCK:   -2.82 KCAL/MOL
REMARK 923 INTER-LIGAND FREE ENERGY PREDICTED BY IDOCK:   -2.74 KCAL/MOL
REMARK 924 INTRA-LIGAND FREE ENERGY PREDICTED BY IDOCK:   -0.08 KCAL/MOL
REMARK 927      BINDING AFFINITY PREDICTED BY RF-SCORE:    0.00 PKD
ROOT
HETATM    1  C   UNL     1      -9.738   4.535  68.870  1.00  0.00    -0.224 C  
HETATM    2  C   UNL     1     -10.623   5.739  69.017  1.00  0.00    -0.281 C  
HETATM    3  O   UNL     1     -11.237   6.037  70.027  1.00  0.00    -0.372 OA 
ENDROOT
BRANCH   2   4
HETATM    4  O   UNL     1     -10.576   6.467  67.876  1.00  0.00    -0.194 OA 
BRANCH   4   5
HETATM    5  C   UNL     1      -9.650   7.572  67.812  1.00  0.00    -0.142 C  
BRANCH   5   6
HETATM    6  C   UNL     1      -8.997   7.799  69.200  1.00  0.00    -0.145 C  
BRANCH   6   7
HETATM    7  N   UNL     1      -9.356   9.161  69.888  1.00  0.00    -0.174 N  
HETATM    8  C   UNL     1      -9.341   9.045  71.395  1.00  0.00    -0.240 C  
HETATM    9  C   UNL     1     -10.757   9.535  69.416  1.00  0.00    -0.225 C  
HETATM   10  C   UNL     1      -8.400  10.256  69.429  1.00  0.00    -0.161 C  
ENDBRANCH   6   7
ENDBRANCH   5   6
BRANCH   5  11
HETATM   11  C   UNL     1      -8.584   7.316  66.748  1.00  0.00    -0.127 C  
HETATM   12  C   UNL     1      -8.572   8.403  65.676  1.00  0.00    -0.174 C  
HETATM   13  O   UNL     1      -8.857   9.565  66.073  1.00  0.00    -0.143 OA 
HETATM   14  O   UNL     1      -8.396   7.975  64.506  1.00  0.00    -0.133 OA 
ENDBRANCH   5  11
ENDBRANCH   4   5
ENDBRANCH   2   4
TORSDOF 5
ENDMDL
MODEL      215
REMARK 921   NORMALIZED FREE ENERGY PREDICTED BY IDOCK:   -1.70 KCAL/MOL
REMARK 922        TOTAL FREE ENERGY PREDICTED BY IDOCK:   -2.80 KCAL/MOL
REMARK 923 INTER-LIGAND FREE ENERGY PREDICTED BY IDOCK:   -2.25 KCAL/MOL
REMARK 924 INTRA-LIGAND FREE ENERGY PREDICTED BY IDOCK:   -0.56 KCAL/MOL
REMARK 927      BINDING AFFINITY PREDICTED BY RF-SCORE:    0.00 PKD
ROOT
HETATM    1  C   UNL     1     -11.205  11.521  68.381  1.00  0.00    -0.314 C  
HETATM    2  C   UNL     1     -10.658  10.311  67.679  1.00  0.00    -0.263 C  
HETATM    3  O   UNL     1     -10.194  10.307  66.551  1.00  0.00    -0.220 OA 
ENDROOT
BRANCH   2   4
HETATM    4  O   UNL     1     -10.707   9.250  68.518  1.00  0.00    -0.209 OA 
BRANCH   4   5
HETATM    5  C   UNL     1      -9.578   8.352  68.546  1.00  0.00    -0.149 C  
BRANCH   5   6
HETATM    6  C   UNL     1      -8.795   8.525  69.874  1.00  0.00    -0.137 C  
BRANCH   6   7
HETATM    7  N   UNL     1      -7.321   9.037  69.715  1.00  0.00    -0.055 N  
HETATM    8  C   UNL     1      -7.259  10.546  69.651  1.00  0.00    -0.148 C  
HETATM    9  C   UNL     1      -6.790   8.445  68.414  1.00  0.00    -0.065 C  
HETATM   10  C   UNL     1      -6.453   8.516  70.854  1.00  0.00    -0.042 C  
ENDBRANCH   6   7
ENDBRANCH   5   6
BRANCH   5  11
HETATM   11  C   UNL     1     -10.039   6.906  68.373  1.00  0.00    -0.177 C  
HETATM   12  C   UNL     1     -10.255   6.545  66.906  1.00  0.00    -0.215 C  
HETATM   13  O   UNL     1      -9.476   7.103  66.086  1.00  0.00    -0.117 OA 
HETATM   14  O   UNL     1     -11.265   5.826  66.693  1.00  0.00    -0.135 OA 
ENDBRANCH   5  11
ENDBRANCH   4   5
ENDBRANCH   2   4
TORSDOF 5
ENDMDL
MODEL      216
REMARK 921   NORMALIZED FREE ENERGY PREDICTED BY IDOCK:   -1.68 KCAL/MOL
REMARK 922        TOTAL FREE ENERGY PREDICTED BY IDOCK:   -2.77 KCAL/MOL
REMARK 923 INTER-LIGAND FREE ENERGY PREDICTED BY IDOCK:   -2.74 KCAL/MOL
REMARK 924 INTRA-LIGAND FREE ENERGY PREDICTED BY IDOCK:   -0.03 KCAL/MOL
REMARK 927      BINDING AFFINITY PREDICTED BY RF-SCORE:    0.00 PKD
ROOT
HETATM    1  C   UNL     1     -10.691   6.034  67.574  1.00  0.00    -0.383 C  
HETATM    2  C   UNL     1     -10.906   6.338  69.029  1.00  0.00    -0.337 C  
HETATM    3  O   UNL     1     -11.992   6.376  69.583  1.00  0.00    -0.197 OA 
ENDROOT
BRANCH   2   4
HETATM    4  O   UNL     1      -9.704   6.498  69.632  1.00  0.00    -0.156 OA 
BRANCH   4   5
HETATM    5  C   UNL     1      -9.359   5.603  70.709  1.00  0.00    -0.163 C  
BRANCH   5   6
HETATM    6  C   UNL     1     -10.301   5.839  71.918  1.00  0.00    -0.214 C  
BRANCH   6   7
HETATM    7  N   UNL     1      -9.724   6.770  73.040  1.00  0.00    -0.157 N  
HETATM    8  C   UNL     1     -10.111   6.286  74.418  1.00  0.00    -0.340 C  
HETATM    9  C   UNL     1     -10.308   8.158  72.800  1.00  0.00    -0.313 C  
HETATM   10  C   UNL     1      -8.209   6.873  72.916  1.00  0.00    -0.107 C  
ENDBRANCH   6   7
ENDBRANCH   5   6
BRANCH   5  11
HETATM   11  C   UNL     1      -9.430   4.150  70.243  1.00  0.00    -0.251 C  
HETATM   12  C   UNL     1      -8.055   3.487  70.221  1.00  0.00    -0.045 C  
HETATM   13  O   UNL     1      -7.253   3.864  71.117  1.00  0.00    -0.032 OA 
HETATM   14  O   UNL     1      -7.860   2.734  69.233  1.00  0.00    -0.046 OA 
ENDBRANCH   5  11
ENDBRANCH   4   5
ENDBRANCH   2   4
TORSDOF 5
ENDMDL
MODEL      217
REMARK 921   NORMALIZED FREE ENERGY PREDICTED BY IDOCK:   -1.67 KCAL/MOL
REMARK 922        TOTAL FREE ENERGY PREDICTED BY IDOCK:   -2.76 KCAL/MOL
REMARK 923 INTER-LIGAND FREE ENERGY PREDICTED BY IDOCK:   -3.00 KCAL/MOL
REMARK 924 INTRA-LIGAND FREE ENERGY PREDICTED BY IDOCK:    0.23 KCAL/MOL
REMARK 927      BINDING AFFINITY PREDICTED BY RF-SCORE:    0.00 PKD
ROOT
HETATM    1  C   UNL     1     -11.007   9.986  69.431  1.00  0.00    -0.280 C  
HETATM    2  C   UNL     1     -11.612  10.964  68.467  1.00  0.00    -0.290 C  
HETATM    3  O   UNL     1     -12.496  11.759  68.739  1.00  0.00    -0.209 OA 
ENDROOT
BRANCH   2   4
HETATM    4  O   UNL     1     -10.976  10.865  67.275  1.00  0.00    -0.274 OA 
BRANCH   4   5
HETATM    5  C   UNL     1      -9.880  11.765  67.012  1.00  0.00    -0.197 C  
BRANCH   5   6
HETATM    6  C   UNL     1      -8.609  10.959  66.640  1.00  0.00    -0.148 C  
BRANCH   6   7
HETATM    7  N   UNL     1      -7.389  11.157  67.605  1.00  0.00    -0.092 N  
HETATM    8  C   UNL     1      -7.479  12.465  68.356  1.00  0.00    -0.123 C  
HETATM    9  C   UNL     1      -6.137  11.149  66.734  1.00  0.00    -0.119 C  
HETATM   10  C   UNL     1      -7.287   9.989  68.578  1.00  0.00    -0.077 C  
ENDBRANCH   6   7
ENDBRANCH   5   6
BRANCH   5  11
HETATM   11  C   UNL     1     -10.246  12.744  65.898  1.00  0.00    -0.300 C  
HETATM   12  C   UNL     1     -10.375  12.051  64.545  1.00  0.00    -0.296 C  
HETATM   13  O   UNL     1     -10.823  10.873  64.576  1.00  0.00    -0.279 OA 
HETATM   14  O   UNL     1      -9.902  12.705  63.581  1.00  0.00    -0.310 OA 
ENDBRANCH   5  11
ENDBRANCH   4   5
ENDBRANCH   2   4
TORSDOF 5
ENDMDL
MODEL      218
REMARK 921   NORMALIZED FREE ENERGY PREDICTED BY IDOCK:   -1.60 KCAL/MOL
REMARK 922        TOTAL FREE ENERGY PREDICTED BY IDOCK:   -2.68 KCAL/MOL
REMARK 923 INTER-LIGAND FREE ENERGY PREDICTED BY IDOCK:   -2.10 KCAL/MOL
REMARK 924 INTRA-LIGAND FREE ENERGY PREDICTED BY IDOCK:   -0.58 KCAL/MOL
REMARK 927      BINDING AFFINITY PREDICTED BY RF-SCORE:    0.00 PKD
ROOT
HETATM    1  C   UNL     1      -7.078   7.569  70.068  1.00  0.00    -0.060 C  
HETATM    2  C   UNL     1      -7.352   6.552  71.138  1.00  0.00    -0.080 C  
HETATM    3  O   UNL     1      -6.783   6.498  72.215  1.00  0.00    -0.065 OA 
ENDROOT
BRANCH   2   4
HETATM    4  O   UNL     1      -8.369   5.751  70.740  1.00  0.00    -0.120 OA 
BRANCH   4   5
HETATM    5  C   UNL     1      -9.335   6.289  69.813  1.00  0.00    -0.145 C  
BRANCH   5   6
HETATM    6  C   UNL     1      -9.547   5.301  68.636  1.00  0.00    -0.136 C  
BRANCH   6   7
HETATM    7  N   UNL     1      -8.930   5.753  67.268  1.00  0.00    -0.113 N  
HETATM    8  C   UNL     1      -9.192   7.217  66.995  1.00  0.00    -0.144 C  
HETATM    9  C   UNL     1      -9.591   4.903  66.188  1.00  0.00    -0.175 C  
HETATM   10  C   UNL     1      -7.434   5.465  67.239  1.00  0.00    -0.084 C  
ENDBRANCH   6   7
ENDBRANCH   5   6
BRANCH   5  11
HETATM   11  C   UNL     1     -10.656   6.578  70.522  1.00  0.00    -0.282 C  
HETATM   12  C   UNL     1     -10.867   8.072  70.754  1.00  0.00    -0.232 C  
HETATM   13  O   UNL     1     -10.405   8.833  69.861  1.00  0.00    -0.195 OA 
HETATM   14  O   UNL     1     -11.372   8.357  71.870  1.00  0.00    -0.273 OA 
ENDBRANCH   5  11
ENDBRANCH   4   5
ENDBRANCH   2   4
TORSDOF 5
ENDMDL
MODEL      219
REMARK 921   NORMALIZED FREE ENERGY PREDICTED BY IDOCK:   -1.59 KCAL/MOL
REMARK 922        TOTAL FREE ENERGY PREDICTED BY IDOCK:   -2.66 KCAL/MOL
REMARK 923 INTER-LIGAND FREE ENERGY PREDICTED BY IDOCK:   -2.04 KCAL/MOL
REMARK 924 INTRA-LIGAND FREE ENERGY PREDICTED BY IDOCK:   -0.62 KCAL/MOL
REMARK 927      BINDING AFFINITY PREDICTED BY RF-SCORE:    0.00 PKD
ROOT
HETATM    1  C   UNL     1     -11.341   6.247  69.252  1.00  0.00    -0.411 C  
HETATM    2  C   UNL     1      -9.880   6.541  69.439  1.00  0.00    -0.146 C  
HETATM    3  O   UNL     1      -9.029   5.713  69.716  1.00  0.00    -0.125 OA 
ENDROOT
BRANCH   2   4
HETATM    4  O   UNL     1      -9.656   7.853  69.190  1.00  0.00    -0.152 OA 
BRANCH   4   5
HETATM    5  C   UNL     1      -8.584   8.200  68.289  1.00  0.00    -0.130 C  
BRANCH   5   6
HETATM    6  C   UNL     1      -9.040   8.002  66.820  1.00  0.00    -0.155 C  
BRANCH   6   7
HETATM    7  N   UNL     1      -8.301   6.860  66.041  1.00  0.00    -0.128 N  
HETATM    8  C   UNL     1      -9.137   5.602  65.971  1.00  0.00    -0.156 C  
HETATM    9  C   UNL     1      -7.010   6.576  66.802  1.00  0.00    -0.067 C  
HETATM   10  C   UNL     1      -7.924   7.328  64.641  1.00  0.00    -0.115 C  
ENDBRANCH   6   7
ENDBRANCH   5   6
BRANCH   5  11
HETATM   11  C   UNL     1      -8.130   9.639  68.525  1.00  0.00    -0.104 C  
HETATM   12  C   UNL     1      -6.987   9.721  69.535  1.00  0.00    -0.064 C  
HETATM   13  O   UNL     1      -6.176   8.755  69.520  1.00  0.00    -0.039 OA 
HETATM   14  O   UNL     1      -7.072  10.686  70.335  1.00  0.00    -0.249 OA 
ENDBRANCH   5  11
ENDBRANCH   4   5
ENDBRANCH   2   4
TORSDOF 5
ENDMDL
MODEL      220
REMARK 921   NORMALIZED FREE ENERGY PREDICTED BY IDOCK:   -1.59 KCAL/MOL
REMARK 922        TOTAL FREE ENERGY PREDICTED BY IDOCK:   -2.66 KCAL/MOL
REMARK 923 INTER-LIGAND FREE ENERGY PREDICTED BY IDOCK:   -2.07 KCAL/MOL
REMARK 924 INTRA-LIGAND FREE ENERGY PREDICTED BY IDOCK:   -0.59 KCAL/MOL
REMARK 927      BINDING AFFINITY PREDICTED BY RF-SCORE:    0.00 PKD
ROOT
HETATM    1  C   UNL     1      -7.144   6.562  67.942  1.00  0.00    -0.085 C  
HETATM    2  C   UNL     1      -7.437   6.016  69.310  1.00  0.00    -0.089 C  
HETATM    3  O   UNL     1      -6.602   5.800  70.171  1.00  0.00    -0.043 OA 
ENDROOT
BRANCH   2   4
HETATM    4  O   UNL     1      -8.776   5.865  69.451  1.00  0.00    -0.115 OA 
BRANCH   4   5
HETATM    5  C   UNL     1      -9.260   5.108  70.579  1.00  0.00    -0.146 C  
BRANCH   5   6
HETATM    6  C   UNL     1     -10.412   5.876  71.279  1.00  0.00    -0.233 C  
BRANCH   6   7
HETATM    7  N   UNL     1     -10.155   6.234  72.783  1.00  0.00    -0.177 N  
HETATM    8  C   UNL     1      -8.684   6.180  73.126  1.00  0.00    -0.120 C  
HETATM    9  C   UNL     1     -10.915   5.206  73.614  1.00  0.00    -0.288 C  
HETATM   10  C   UNL     1     -10.727   7.609  73.106  1.00  0.00    -0.387 C  
ENDBRANCH   6   7
ENDBRANCH   5   6
BRANCH   5  11
HETATM   11  C   UNL     1      -9.724   3.722  70.135  1.00  0.00    -0.217 C  
HETATM   12  C   UNL     1      -8.713   2.637  70.495  1.00  0.00    -0.069 C  
HETATM   13  O   UNL     1      -8.076   2.818  71.569  1.00  0.00    -0.054 OA 
HETATM   14  O   UNL     1      -8.560   1.757  69.610  1.00  0.00    -0.046 OA 
ENDBRANCH   5  11
ENDBRANCH   4   5
ENDBRANCH   2   4
TORSDOF 5
ENDMDL
MODEL      221
REMARK 921   NORMALIZED FREE ENERGY PREDICTED BY IDOCK:   -1.57 KCAL/MOL
REMARK 922        TOTAL FREE ENERGY PREDICTED BY IDOCK:   -2.63 KCAL/MOL
REMARK 923 INTER-LIGAND FREE ENERGY PREDICTED BY IDOCK:   -2.19 KCAL/MOL
REMARK 924 INTRA-LIGAND FREE ENERGY PREDICTED BY IDOCK:   -0.44 KCAL/MOL
REMARK 927      BINDING AFFINITY PREDICTED BY RF-SCORE:    0.00 PKD
ROOT
HETATM    1  C   UNL     1      -9.543   8.348  72.521  1.00  0.00    -0.358 C  
HETATM    2  C   UNL     1      -9.659   7.868  71.103  1.00  0.00    -0.158 C  
HETATM    3  O   UNL     1     -10.700   7.543  70.558  1.00  0.00    -0.225 OA 
ENDROOT
BRANCH   2   4
HETATM    4  O   UNL     1      -8.439   7.916  70.517  1.00  0.00    -0.122 OA 
BRANCH   4   5
HETATM    5  C   UNL     1      -8.362   7.711  69.091  1.00  0.00    -0.131 C  
BRANCH   5   6
HETATM    6  C   UNL     1      -8.661   9.039  68.347  1.00  0.00    -0.130 C  
BRANCH   6   7
HETATM    7  N   UNL     1      -9.568   8.899  67.076  1.00  0.00    -0.164 N  
HETATM    8  C   UNL     1     -10.193   7.526  66.985  1.00  0.00    -0.298 C  
HETATM    9  C   UNL     1      -8.666   9.134  65.868  1.00  0.00    -0.158 C  
HETATM   10  C   UNL     1     -10.645   9.977  67.070  1.00  0.00    -0.212 C  
ENDBRANCH   6   7
ENDBRANCH   5   6
BRANCH   5  11
HETATM   11  C   UNL     1      -6.988   7.170  68.702  1.00  0.00    -0.082 C  
HETATM   12  C   UNL     1      -6.836   5.690  69.045  1.00  0.00    -0.062 C  
HETATM   13  O   UNL     1      -7.884   4.996  68.942  1.00  0.00    -0.076 OA 
HETATM   14  O   UNL     1      -5.707   5.378  69.503  1.00  0.00    -0.014 OA 
ENDBRANCH   5  11
ENDBRANCH   4   5
ENDBRANCH   2   4
TORSDOF 5
ENDMDL
MODEL      222
REMARK 921   NORMALIZED FREE ENERGY PREDICTED BY IDOCK:   -1.51 KCAL/MOL
REMARK 922        TOTAL FREE ENERGY PREDICTED BY IDOCK:   -2.56 KCAL/MOL
REMARK 923 INTER-LIGAND FREE ENERGY PREDICTED BY IDOCK:   -3.69 KCAL/MOL
REMARK 924 INTRA-LIGAND FREE ENERGY PREDICTED BY IDOCK:    1.13 KCAL/MOL
REMARK 927      BINDING AFFINITY PREDICTED BY RF-SCORE:    0.00 PKD
ROOT
HETATM    1  C   UNL     1     -11.732  15.089  64.430  1.00  0.00    -0.320 C  
HETATM    2  C   UNL     1     -11.364  14.344  65.681  1.00  0.00    -0.330 C  
HETATM    3  O   UNL     1     -11.540  13.151  65.862  1.00  0.00    -0.326 OA 
ENDROOT
BRANCH   2   4
HETATM    4  O   UNL     1     -10.754  15.194  66.541  1.00  0.00    -0.299 OA 
BRANCH   4   5
HETATM    5  C   UNL     1      -9.313  15.170  66.613  1.00  0.00    -0.267 C  
BRANCH   5   6
HETATM    6  C   UNL     1      -8.741  16.564  66.246  1.00  0.00    -0.333 C  
BRANCH   6   7
HETATM    7  N   UNL     1      -8.960  17.679  67.326  1.00  0.00    -0.237 N  
HETATM    8  C   UNL     1     -10.312  17.553  67.991  1.00  0.00    -0.368 C  
HETATM    9  C   UNL     1      -8.869  19.017  66.598  1.00  0.00    -0.318 C  
HETATM   10  C   UNL     1      -7.848  17.637  68.366  1.00  0.00    -0.268 C  
ENDBRANCH   6   7
ENDBRANCH   5   6
BRANCH   5  11
HETATM   11  C   UNL     1      -8.853  14.746  68.006  1.00  0.00    -0.169 C  
HETATM   12  C   UNL     1      -7.519  14.005  67.968  1.00  0.00    -0.141 C  
HETATM   13  O   UNL     1      -6.708  14.387  67.082  1.00  0.00    -0.200 OA 
HETATM   14  O   UNL     1      -7.449  13.025  68.753  1.00  0.00    -0.111 OA 
ENDBRANCH   5  11
ENDBRANCH   4   5
ENDBRANCH   2   4
TORSDOF 5
ENDMDL
MODEL      223
REMARK 921   NORMALIZED FREE ENERGY PREDICTED BY IDOCK:   -1.49 KCAL/MOL
REMARK 922        TOTAL FREE ENERGY PREDICTED BY IDOCK:   -2.54 KCAL/MOL
REMARK 923 INTER-LIGAND FREE ENERGY PREDICTED BY IDOCK:   -2.42 KCAL/MOL
REMARK 924 INTRA-LIGAND FREE ENERGY PREDICTED BY IDOCK:   -0.11 KCAL/MOL
REMARK 927      BINDING AFFINITY PREDICTED BY RF-SCORE:    0.00 PKD
ROOT
HETATM    1  C   UNL     1     -10.980   4.997  73.762  1.00  0.00    -0.336 C  
HETATM    2  C   UNL     1     -10.921   5.892  72.557  1.00  0.00    -0.264 C  
HETATM    3  O   UNL     1     -10.773   7.101  72.590  1.00  0.00    -0.232 OA 
ENDROOT
BRANCH   2   4
HETATM    4  O   UNL     1     -10.996   5.134  71.438  1.00  0.00    -0.089 OA 
BRANCH   4   5
HETATM    5  C   UNL     1      -9.911   5.211  70.491  1.00  0.00    -0.215 C  
BRANCH   5   6
HETATM    6  C   UNL     1     -10.168   6.360  69.481  1.00  0.00    -0.189 C  
BRANCH   6   7
HETATM    7  N   UNL     1      -9.894   6.000  67.980  1.00  0.00    -0.119 N  
HETATM    8  C   UNL     1     -11.031   6.438  67.086  1.00  0.00    -0.399 C  
HETATM    9  C   UNL     1      -9.742   4.484  67.914  1.00  0.00    -0.139 C  
HETATM   10  C   UNL     1      -8.582   6.621  67.516  1.00  0.00    -0.120 C  
ENDBRANCH   6   7
ENDBRANCH   5   6
BRANCH   5  11
HETATM   11  C   UNL     1      -8.581   5.413  71.215  1.00  0.00    -0.128 C  
HETATM   12  C   UNL     1      -7.948   4.087  71.630  1.00  0.00    -0.074 C  
HETATM   13  O   UNL     1      -8.144   3.119  70.847  1.00  0.00    -0.053 OA 
HETATM   14  O   UNL     1      -7.410   4.104  72.767  1.00  0.00    -0.068 OA 
ENDBRANCH   5  11
ENDBRANCH   4   5
ENDBRANCH   2   4
TORSDOF 5
ENDMDL
MODEL      224
REMARK 921   NORMALIZED FREE ENERGY PREDICTED BY IDOCK:   -1.49 KCAL/MOL
REMARK 922        TOTAL FREE ENERGY PREDICTED BY IDOCK:   -2.53 KCAL/MOL
REMARK 923 INTER-LIGAND FREE ENERGY PREDICTED BY IDOCK:   -2.00 KCAL/MOL
REMARK 924 INTRA-LIGAND FREE ENERGY PREDICTED BY IDOCK:   -0.53 KCAL/MOL
REMARK 927      BINDING AFFINITY PREDICTED BY RF-SCORE:    0.00 PKD
ROOT
HETATM    1  C   UNL     1     -10.272   4.814  66.210  1.00  0.00    -0.315 C  
HETATM    2  C   UNL     1      -9.431   4.355  67.366  1.00  0.00    -0.171 C  
HETATM    3  O   UNL     1      -8.443   3.646  67.275  1.00  0.00    -0.097 OA 
ENDROOT
BRANCH   2   4
HETATM    4  O   UNL     1      -9.908   4.905  68.508  1.00  0.00    -0.152 OA 
BRANCH   4   5
HETATM    5  C   UNL     1      -9.189   6.017  69.080  1.00  0.00    -0.121 C  
BRANCH   5   6
HETATM    6  C   UNL     1      -9.871   7.351  68.681  1.00  0.00    -0.163 C  
BRANCH   6   7
HETATM    7  N   UNL     1      -8.934   8.394  67.979  1.00  0.00    -0.138 N  
HETATM    8  C   UNL     1      -7.665   7.749  67.471  1.00  0.00    -0.117 C  
HETATM    9  C   UNL     1      -8.591   9.448  69.026  1.00  0.00    -0.135 C  
HETATM   10  C   UNL     1      -9.671   9.089  66.841  1.00  0.00    -0.200 C  
ENDBRANCH   6   7
ENDBRANCH   5   6
BRANCH   5  11
HETATM   11  C   UNL     1      -9.111   5.882  70.599  1.00  0.00    -0.159 C  
HETATM   12  C   UNL     1      -8.105   4.817  71.029  1.00  0.00    -0.088 C  
HETATM   13  O   UNL     1      -7.088   4.698  70.293  1.00  0.00    -0.046 OA 
HETATM   14  O   UNL     1      -8.481   4.111  71.999  1.00  0.00    -0.101 OA 
ENDBRANCH   5  11
ENDBRANCH   4   5
ENDBRANCH   2   4
TORSDOF 5
ENDMDL
MODEL      225
REMARK 921   NORMALIZED FREE ENERGY PREDICTED BY IDOCK:   -1.48 KCAL/MOL
REMARK 922        TOTAL FREE ENERGY PREDICTED BY IDOCK:   -2.52 KCAL/MOL
REMARK 923 INTER-LIGAND FREE ENERGY PREDICTED BY IDOCK:   -2.77 KCAL/MOL
REMARK 924 INTRA-LIGAND FREE ENERGY PREDICTED BY IDOCK:    0.25 KCAL/MOL
REMARK 927      BINDING AFFINITY PREDICTED BY RF-SCORE:    0.00 PKD
ROOT
HETATM    1  C   UNL     1      -8.526   3.974  70.111  1.00  0.00    -0.093 C  
HETATM    2  C   UNL     1      -8.801   4.605  68.776  1.00  0.00    -0.100 C  
HETATM    3  O   UNL     1      -8.960   3.994  67.733  1.00  0.00    -0.109 OA 
ENDROOT
BRANCH   2   4
HETATM    4  O   UNL     1      -8.905   5.946  68.932  1.00  0.00    -0.115 OA 
BRANCH   4   5
HETATM    5  C   UNL     1     -10.219   6.509  69.119  1.00  0.00    -0.180 C  
BRANCH   5   6
HETATM    6  C   UNL     1     -10.191   7.554  70.264  1.00  0.00    -0.204 C  
BRANCH   6   7
HETATM    7  N   UNL     1     -11.088   7.209  71.503  1.00  0.00    -0.236 N  
HETATM    8  C   UNL     1     -12.459   6.733  71.082  1.00  0.00    -0.298 C  
HETATM    9  C   UNL     1     -11.217   8.489  72.321  1.00  0.00    -0.362 C  
HETATM   10  C   UNL     1     -10.405   6.163  72.377  1.00  0.00    -0.192 C  
ENDBRANCH   6   7
ENDBRANCH   5   6
BRANCH   5  11
HETATM   11  C   UNL     1     -10.721   7.140  67.821  1.00  0.00    -0.282 C  
HETATM   12  C   UNL     1      -9.913   8.376  67.435  1.00  0.00    -0.212 C  
HETATM   13  O   UNL     1      -8.688   8.342  67.734  1.00  0.00    -0.136 OA 
HETATM   14  O   UNL     1     -10.601   9.322  66.973  1.00  0.00    -0.246 OA 
ENDBRANCH   5  11
ENDBRANCH   4   5
ENDBRANCH   2   4
TORSDOF 5
ENDMDL
MODEL      226
REMARK 921   NORMALIZED FREE ENERGY PREDICTED BY IDOCK:   -1.47 KCAL/MOL
REMARK 922        TOTAL FREE ENERGY PREDICTED BY IDOCK:   -2.51 KCAL/MOL
REMARK 923 INTER-LIGAND FREE ENERGY PREDICTED BY IDOCK:   -2.71 KCAL/MOL
REMARK 924 INTRA-LIGAND FREE ENERGY PREDICTED BY IDOCK:    0.20 KCAL/MOL
REMARK 927      BINDING AFFINITY PREDICTED BY RF-SCORE:    0.00 PKD
ROOT
HETATM    1  C   UNL     1     -10.175   4.507  65.816  1.00  0.00    -0.289 C  
HETATM    2  C   UNL     1      -9.832   4.237  67.253  1.00  0.00    -0.146 C  
HETATM    3  O   UNL     1      -9.513   3.150  67.704  1.00  0.00    -0.207 OA 
ENDROOT
BRANCH   2   4
HETATM    4  O   UNL     1      -9.873   5.400  67.945  1.00  0.00    -0.130 OA 
BRANCH   4   5
HETATM    5  C   UNL     1     -10.245   5.350  69.338  1.00  0.00    -0.264 C  
BRANCH   5   6
HETATM    6  C   UNL     1      -9.009   5.639  70.228  1.00  0.00    -0.139 C  
BRANCH   6   7
HETATM    7  N   UNL     1      -8.544   4.443  71.129  1.00  0.00    -0.096 N  
HETATM    8  C   UNL     1      -8.152   4.908  72.513  1.00  0.00    -0.115 C  
HETATM    9  C   UNL     1      -7.337   3.817  70.438  1.00  0.00    -0.041 C  
HETATM   10  C   UNL     1      -9.636   3.384  71.212  1.00  0.00    -0.161 C  
ENDBRANCH   6   7
ENDBRANCH   5   6
BRANCH   5  11
HETATM   11  C   UNL     1     -11.367   6.345  69.630  1.00  0.00    -0.479 C  
HETATM   12  C   UNL     1     -10.842   7.769  69.794  1.00  0.00    -0.209 C  
HETATM   13  O   UNL     1      -9.848   8.070  69.078  1.00  0.00    -0.171 OA 
HETATM   14  O   UNL     1     -11.397   8.422  70.714  1.00  0.00    -0.266 OA 
ENDBRANCH   5  11
ENDBRANCH   4   5
ENDBRANCH   2   4
TORSDOF 5
ENDMDL
MODEL      227
REMARK 921   NORMALIZED FREE ENERGY PREDICTED BY IDOCK:   -1.44 KCAL/MOL
REMARK 922        TOTAL FREE ENERGY PREDICTED BY IDOCK:   -2.47 KCAL/MOL
REMARK 923 INTER-LIGAND FREE ENERGY PREDICTED BY IDOCK:   -2.69 KCAL/MOL
REMARK 924 INTRA-LIGAND FREE ENERGY PREDICTED BY IDOCK:    0.22 KCAL/MOL
REMARK 927      BINDING AFFINITY PREDICTED BY RF-SCORE:    0.00 PKD
ROOT
HETATM    1  C   UNL     1     -12.463   7.300  71.367  1.00  0.00    -0.418 C  
HETATM    2  C   UNL     1     -11.483   6.330  71.962  1.00  0.00    -0.310 C  
HETATM    3  O   UNL     1     -11.776   5.397  72.690  1.00  0.00    -0.271 OA 
ENDROOT
BRANCH   2   4
HETATM    4  O   UNL     1     -10.240   6.622  71.511  1.00  0.00    -0.196 OA 
BRANCH   4   5
HETATM    5  C   UNL     1      -9.854   6.127  70.211  1.00  0.00    -0.169 C  
BRANCH   5   6
HETATM    6  C   UNL     1      -9.337   7.294  69.331  1.00  0.00    -0.151 C  
BRANCH   6   7
HETATM    7  N   UNL     1      -9.769   7.234  67.825  1.00  0.00    -0.137 N  
HETATM    8  C   UNL     1      -8.644   6.746  66.942  1.00  0.00    -0.116 C  
HETATM    9  C   UNL     1     -10.157   8.654  67.425  1.00  0.00    -0.229 C  
HETATM   10  C   UNL     1     -10.998   6.350  67.660  1.00  0.00    -0.349 C  
ENDBRANCH   6   7
ENDBRANCH   5   6
BRANCH   5  11
HETATM   11  C   UNL     1      -8.792   5.038  70.346  1.00  0.00    -0.140 C  
HETATM   12  C   UNL     1      -7.445   5.602  70.789  1.00  0.00    -0.089 C  
HETATM   13  O   UNL     1      -7.498   6.588  71.574  1.00  0.00    -0.086 OA 
HETATM   14  O   UNL     1      -6.453   5.084  70.216  1.00  0.00    -0.028 OA 
ENDBRANCH   5  11
ENDBRANCH   4   5
ENDBRANCH   2   4
TORSDOF 5
ENDMDL
MODEL      228
REMARK 921   NORMALIZED FREE ENERGY PREDICTED BY IDOCK:   -1.43 KCAL/MOL
REMARK 922        TOTAL FREE ENERGY PREDICTED BY IDOCK:   -2.46 KCAL/MOL
REMARK 923 INTER-LIGAND FREE ENERGY PREDICTED BY IDOCK:   -3.11 KCAL/MOL
REMARK 924 INTRA-LIGAND FREE ENERGY PREDICTED BY IDOCK:    0.65 KCAL/MOL
REMARK 927      BINDING AFFINITY PREDICTED BY RF-SCORE:    0.00 PKD
ROOT
HETATM    1  C   UNL     1      -9.246  15.281  69.437  1.00  0.00    -0.233 C  
HETATM    2  C   UNL     1     -10.474  14.422  69.337  1.00  0.00    -0.080 C  
HETATM    3  O   UNL     1     -11.563  14.701  69.810  1.00  0.00    -0.265 OA 
ENDROOT
BRANCH   2   4
HETATM    4  O   UNL     1     -10.192  13.330  68.587  1.00  0.00    -0.232 OA 
BRANCH   4   5
HETATM    5  C   UNL     1     -10.047  13.502  67.162  1.00  0.00    -0.245 C  
BRANCH   5   6
HETATM    6  C   UNL     1      -9.102  12.413  66.591  1.00  0.00    -0.204 C  
BRANCH   6   7
HETATM    7  N   UNL     1      -7.700  12.317  67.285  1.00  0.00    -0.162 N  
HETATM    8  C   UNL     1      -7.110  13.686  67.541  1.00  0.00    -0.152 C  
HETATM    9  C   UNL     1      -6.795  11.538  66.337  1.00  0.00     0.061 C  
HETATM   10  C   UNL     1      -7.804  11.530  68.585  1.00  0.00    -0.137 C  
ENDBRANCH   6   7
ENDBRANCH   5   6
BRANCH   5  11
HETATM   11  C   UNL     1     -11.410  13.452  66.474  1.00  0.00    -0.346 C  
HETATM   12  C   UNL     1     -11.362  14.038  65.066  1.00  0.00    -0.342 C  
HETATM   13  O   UNL     1     -10.286  13.856  64.435  1.00  0.00    -0.384 OA 
HETATM   14  O   UNL     1     -12.364  14.734  64.760  1.00  0.00    -0.394 OA 
ENDBRANCH   5  11
ENDBRANCH   4   5
ENDBRANCH   2   4
TORSDOF 5
ENDMDL
MODEL      229
REMARK 921   NORMALIZED FREE ENERGY PREDICTED BY IDOCK:   -1.43 KCAL/MOL
REMARK 922        TOTAL FREE ENERGY PREDICTED BY IDOCK:   -2.46 KCAL/MOL
REMARK 923 INTER-LIGAND FREE ENERGY PREDICTED BY IDOCK:   -2.40 KCAL/MOL
REMARK 924 INTRA-LIGAND FREE ENERGY PREDICTED BY IDOCK:   -0.06 KCAL/MOL
REMARK 927      BINDING AFFINITY PREDICTED BY RF-SCORE:    0.00 PKD
ROOT
HETATM    1  C   UNL     1      -8.471   5.398  64.022  1.00  0.00    -0.077 C  
HETATM    2  C   UNL     1      -7.945   5.995  65.295  1.00  0.00    -0.117 C  
HETATM    3  O   UNL     1      -6.766   6.180  65.546  1.00  0.00    -0.045 OA 
ENDROOT
BRANCH   2   4
HETATM    4  O   UNL     1      -8.987   6.348  66.085  1.00  0.00    -0.154 OA 
BRANCH   4   5
HETATM    5  C   UNL     1      -9.053   7.710  66.556  1.00  0.00    -0.167 C  
BRANCH   5   6
HETATM    6  C   UNL     1      -8.181   7.874  67.828  1.00  0.00    -0.129 C  
BRANCH   6   7
HETATM    7  N   UNL     1      -8.978   8.144  69.151  1.00  0.00    -0.144 N  
HETATM    8  C   UNL     1      -8.483   7.278  70.286  1.00  0.00    -0.137 C  
HETATM    9  C   UNL     1     -10.438   7.820  68.856  1.00  0.00    -0.194 C  
HETATM   10  C   UNL     1      -8.894   9.618  69.529  1.00  0.00    -0.190 C  
ENDBRANCH   6   7
ENDBRANCH   5   6
BRANCH   5  11
HETATM   11  C   UNL     1      -8.604   8.678  65.463  1.00  0.00    -0.200 C  
HETATM   12  C   UNL     1      -9.609   9.807  65.248  1.00  0.00    -0.300 C  
HETATM   13  O   UNL     1     -10.218  10.198  66.280  1.00  0.00    -0.238 OA 
HETATM   14  O   UNL     1      -9.786  10.120  64.044  1.00  0.00    -0.306 OA 
ENDBRANCH   5  11
ENDBRANCH   4   5
ENDBRANCH   2   4
TORSDOF 5
ENDMDL
MODEL      230
REMARK 921   NORMALIZED FREE ENERGY PREDICTED BY IDOCK:   -1.40 KCAL/MOL
REMARK 922        TOTAL FREE ENERGY PREDICTED BY IDOCK:   -2.42 KCAL/MOL
REMARK 923 INTER-LIGAND FREE ENERGY PREDICTED BY IDOCK:   -2.61 KCAL/MOL
REMARK 924 INTRA-LIGAND FREE ENERGY PREDICTED BY IDOCK:    0.19 KCAL/MOL
REMARK 927      BINDING AFFINITY PREDICTED BY RF-SCORE:    0.00 PKD
ROOT
HETATM    1  C   UNL     1     -10.822   5.859  73.311  1.00  0.00    -0.291 C  
HETATM    2  C   UNL     1      -9.856   6.999  73.460  1.00  0.00    -0.259 C  
HETATM    3  O   UNL     1      -9.242   7.268  74.478  1.00  0.00    -0.189 OA 
ENDROOT
BRANCH   2   4
HETATM    4  O   UNL     1      -9.732   7.635  72.270  1.00  0.00    -0.160 OA 
BRANCH   4   5
HETATM    5  C   UNL     1      -9.032   6.956  71.206  1.00  0.00    -0.142 C  
BRANCH   5   6
HETATM    6  C   UNL     1      -9.285   7.681  69.859  1.00  0.00    -0.147 C  
BRANCH   6   7
HETATM    7  N   UNL     1     -10.019   6.825  68.770  1.00  0.00    -0.143 N  
HETATM    8  C   UNL     1     -10.468   7.674  67.603  1.00  0.00    -0.244 C  
HETATM    9  C   UNL     1     -11.233   6.201  69.449  1.00  0.00    -0.396 C  
HETATM   10  C   UNL     1      -9.120   5.692  68.290  1.00  0.00    -0.110 C  
ENDBRANCH   6   7
ENDBRANCH   5   6
BRANCH   5  11
HETATM   11  C   UNL     1      -7.537   6.882  71.510  1.00  0.00    -0.087 C  
HETATM   12  C   UNL     1      -6.887   8.263  71.528  1.00  0.00    -0.066 C  
HETATM   13  O   UNL     1      -7.612   9.202  71.954  1.00  0.00    -0.340 OA 
HETATM   14  O   UNL     1      -5.747   8.305  70.999  1.00  0.00    -0.032 OA 
ENDBRANCH   5  11
ENDBRANCH   4   5
ENDBRANCH   2   4
TORSDOF 5
ENDMDL
MODEL      231
REMARK 921   NORMALIZED FREE ENERGY PREDICTED BY IDOCK:   -1.37 KCAL/MOL
REMARK 922        TOTAL FREE ENERGY PREDICTED BY IDOCK:   -2.38 KCAL/MOL
REMARK 923 INTER-LIGAND FREE ENERGY PREDICTED BY IDOCK:   -2.67 KCAL/MOL
REMARK 924 INTRA-LIGAND FREE ENERGY PREDICTED BY IDOCK:    0.29 KCAL/MOL
REMARK 927      BINDING AFFINITY PREDICTED BY RF-SCORE:    0.00 PKD
ROOT
HETATM    1  C   UNL     1     -11.945   8.077  72.061  1.00  0.00    -0.375 C  
HETATM    2  C   UNL     1     -11.198   7.440  70.925  1.00  0.00    -0.270 C  
HETATM    3  O   UNL     1     -10.896   6.261  70.860  1.00  0.00    -0.245 OA 
ENDROOT
BRANCH   2   4
HETATM    4  O   UNL     1     -10.974   8.368  69.965  1.00  0.00    -0.244 OA 
BRANCH   4   5
HETATM    5  C   UNL     1      -9.705   8.345  69.279  1.00  0.00    -0.177 C  
BRANCH   5   6
HETATM    6  C   UNL     1      -9.915   7.985  67.785  1.00  0.00    -0.175 C  
BRANCH   6   7
HETATM    7  N   UNL     1      -9.021   6.813  67.251  1.00  0.00    -0.116 N  
HETATM    8  C   UNL     1      -8.188   6.200  68.354  1.00  0.00    -0.115 C  
HETATM    9  C   UNL     1      -8.105   7.412  66.189  1.00  0.00    -0.117 C  
HETATM   10  C   UNL     1      -9.882   5.751  66.579  1.00  0.00    -0.161 C  
ENDBRANCH   6   7
ENDBRANCH   5   6
BRANCH   5  11
HETATM   11  C   UNL     1      -8.996   9.691  69.417  1.00  0.00    -0.186 C  
HETATM   12  C   UNL     1      -9.458  10.693  68.362  1.00  0.00    -0.165 C  
HETATM   13  O   UNL     1     -10.668  10.605  68.018  1.00  0.00    -0.197 OA 
HETATM   14  O   UNL     1      -8.536  11.402  67.883  1.00  0.00    -0.131 OA 
ENDBRANCH   5  11
ENDBRANCH   4   5
ENDBRANCH   2   4
TORSDOF 5
ENDMDL
MODEL      232
REMARK 921   NORMALIZED FREE ENERGY PREDICTED BY IDOCK:   -1.36 KCAL/MOL
REMARK 922        TOTAL FREE ENERGY PREDICTED BY IDOCK:   -2.37 KCAL/MOL
REMARK 923 INTER-LIGAND FREE ENERGY PREDICTED BY IDOCK:   -1.78 KCAL/MOL
REMARK 924 INTRA-LIGAND FREE ENERGY PREDICTED BY IDOCK:   -0.59 KCAL/MOL
REMARK 927      BINDING AFFINITY PREDICTED BY RF-SCORE:    0.00 PKD
ROOT
HETATM    1  C   UNL     1      -7.914   6.070  64.081  1.00  0.00    -0.119 C  
HETATM    2  C   UNL     1      -7.482   6.387  65.484  1.00  0.00    -0.083 C  
HETATM    3  O   UNL     1      -7.238   5.559  66.345  1.00  0.00    -0.074 OA 
ENDROOT
BRANCH   2   4
HETATM    4  O   UNL     1      -7.347   7.728  65.615  1.00  0.00    -0.070 OA 
BRANCH   4   5
HETATM    5  C   UNL     1      -7.952   8.364  66.760  1.00  0.00    -0.098 C  
BRANCH   5   6
HETATM    6  C   UNL     1      -7.375   9.791  66.941  1.00  0.00    -0.091 C  
BRANCH   6   7
HETATM    7  N   UNL     1      -6.714  10.070  68.335  1.00  0.00    -0.055 N  
HETATM    8  C   UNL     1      -5.471  10.920  68.202  1.00  0.00    -0.039 C  
HETATM    9  C   UNL     1      -6.348   8.713  68.925  1.00  0.00    -0.045 C  
HETATM   10  C   UNL     1      -7.715  10.733  69.274  1.00  0.00    -0.129 C  
ENDBRANCH   6   7
ENDBRANCH   5   6
BRANCH   5  11
HETATM   11  C   UNL     1      -9.472   8.409  66.607  1.00  0.00    -0.267 C  
HETATM   12  C   UNL     1     -10.176   7.506  67.617  1.00  0.00    -0.213 C  
HETATM   13  O   UNL     1      -9.618   7.408  68.744  1.00  0.00    -0.147 OA 
HETATM   14  O   UNL     1     -11.163   6.880  67.152  1.00  0.00    -0.352 OA 
ENDBRANCH   5  11
ENDBRANCH   4   5
ENDBRANCH   2   4
TORSDOF 5
ENDMDL
MODEL      233
REMARK 921   NORMALIZED FREE ENERGY PREDICTED BY IDOCK:   -1.36 KCAL/MOL
REMARK 922        TOTAL FREE ENERGY PREDICTED BY IDOCK:   -2.36 KCAL/MOL
REMARK 923 INTER-LIGAND FREE ENERGY PREDICTED BY IDOCK:   -1.82 KCAL/MOL
REMARK 924 INTRA-LIGAND FREE ENERGY PREDICTED BY IDOCK:   -0.54 KCAL/MOL
REMARK 927      BINDING AFFINITY PREDICTED BY RF-SCORE:    0.00 PKD
ROOT
HETATM    1  C   UNL     1      -8.604   4.813  64.973  1.00  0.00    -0.143 C  
HETATM    2  C   UNL     1      -8.003   5.417  66.210  1.00  0.00    -0.105 C  
HETATM    3  O   UNL     1      -6.884   5.180  66.632  1.00  0.00    -0.059 OA 
ENDROOT
BRANCH   2   4
HETATM    4  O   UNL     1      -8.877   6.306  66.739  1.00  0.00    -0.120 OA 
BRANCH   4   5
HETATM    5  C   UNL     1      -9.014   6.352  68.174  1.00  0.00    -0.116 C  
BRANCH   5   6
HETATM    6  C   UNL     1      -9.528   7.748  68.613  1.00  0.00    -0.152 C  
BRANCH   6   7
HETATM    7  N   UNL     1      -8.420   8.740  69.108  1.00  0.00    -0.121 N  
HETATM    8  C   UNL     1      -8.267   9.917  68.173  1.00  0.00    -0.109 C  
HETATM    9  C   UNL     1      -7.116   7.950  69.157  1.00  0.00    -0.069 C  
HETATM   10  C   UNL     1      -8.728   9.219  70.522  1.00  0.00    -0.236 C  
ENDBRANCH   6   7
ENDBRANCH   5   6
BRANCH   5  11
HETATM   11  C   UNL     1      -9.956   5.251  68.658  1.00  0.00    -0.234 C  
HETATM   12  C   UNL     1      -9.221   4.180  69.460  1.00  0.00    -0.146 C  
HETATM   13  O   UNL     1      -8.253   4.588  70.157  1.00  0.00    -0.066 OA 
HETATM   14  O   UNL     1      -9.604   3.005  69.227  1.00  0.00    -0.143 OA 
ENDBRANCH   5  11
ENDBRANCH   4   5
ENDBRANCH   2   4
TORSDOF 5
ENDMDL
MODEL      234
REMARK 921   NORMALIZED FREE ENERGY PREDICTED BY IDOCK:   -1.30 KCAL/MOL
REMARK 922        TOTAL FREE ENERGY PREDICTED BY IDOCK:   -2.29 KCAL/MOL
REMARK 923 INTER-LIGAND FREE ENERGY PREDICTED BY IDOCK:   -1.64 KCAL/MOL
REMARK 924 INTRA-LIGAND FREE ENERGY PREDICTED BY IDOCK:   -0.65 KCAL/MOL
REMARK 927      BINDING AFFINITY PREDICTED BY RF-SCORE:    0.00 PKD
ROOT
HETATM    1  C   UNL     1      -8.755   7.274  67.484  1.00  0.00    -0.121 C  
HETATM    2  C   UNL     1     -10.078   6.565  67.444  1.00  0.00    -0.162 C  
HETATM    3  O   UNL     1     -11.092   7.006  66.931  1.00  0.00    -0.359 OA 
ENDROOT
BRANCH   2   4
HETATM    4  O   UNL     1      -9.944   5.342  68.008  1.00  0.00    -0.142 OA 
BRANCH   4   5
HETATM    5  C   UNL     1      -8.986   4.429  67.434  1.00  0.00    -0.117 C  
BRANCH   5   6
HETATM    6  C   UNL     1      -8.508   3.417  68.508  1.00  0.00    -0.083 C  
BRANCH   6   7
HETATM    7  N   UNL     1      -6.953   3.309  68.676  1.00  0.00    -0.048 N  
HETATM    8  C   UNL     1      -6.368   2.246  67.776  1.00  0.00    -0.028 C  
HETATM    9  C   UNL     1      -6.695   2.947  70.135  1.00  0.00    -0.033 C  
HETATM   10  C   UNL     1      -6.295   4.657  68.407  1.00  0.00    -0.036 C  
ENDBRANCH   6   7
ENDBRANCH   5   6
BRANCH   5  11
HETATM   11  C   UNL     1      -9.590   3.702  66.235  1.00  0.00    -0.146 C  
HETATM   12  C   UNL     1      -8.934   4.119  64.921  1.00  0.00    -0.138 C  
HETATM   13  O   UNL     1      -7.706   4.395  64.988  1.00  0.00    -0.080 OA 
HETATM   14  O   UNL     1      -9.735   4.250  63.961  1.00  0.00    -0.149 OA 
ENDBRANCH   5  11
ENDBRANCH   4   5
ENDBRANCH   2   4
TORSDOF 5
ENDMDL
MODEL      235
REMARK 921   NORMALIZED FREE ENERGY PREDICTED BY IDOCK:   -1.28 KCAL/MOL
REMARK 922        TOTAL FREE ENERGY PREDICTED BY IDOCK:   -2.26 KCAL/MOL
REMARK 923 INTER-LIGAND FREE ENERGY PREDICTED BY IDOCK:   -1.58 KCAL/MOL
REMARK 924 INTRA-LIGAND FREE ENERGY PREDICTED BY IDOCK:   -0.68 KCAL/MOL
REMARK 927      BINDING AFFINITY PREDICTED BY RF-SCORE:    0.00 PKD
ROOT
HETATM    1  C   UNL     1      -7.199   7.160  70.701  1.00  0.00    -0.067 C  
HETATM    2  C   UNL     1      -8.360   6.574  71.450  1.00  0.00    -0.125 C  
HETATM    3  O   UNL     1      -8.890   7.078  72.426  1.00  0.00    -0.128 OA 
ENDROOT
BRANCH   2   4
HETATM    4  O   UNL     1      -8.758   5.436  70.833  1.00  0.00    -0.129 OA 
BRANCH   4   5
HETATM    5  C   UNL     1      -8.488   4.178  71.484  1.00  0.00    -0.094 C  
BRANCH   5   6
HETATM    6  C   UNL     1      -9.818   3.447  71.800  1.00  0.00    -0.159 C  
BRANCH   6   7
HETATM    7  N   UNL     1     -10.413   3.735  73.222  1.00  0.00    -0.165 N  
HETATM    8  C   UNL     1      -9.328   4.033  74.231  1.00  0.00    -0.105 C  
HETATM    9  C   UNL     1     -11.174   2.481  73.640  1.00  0.00    -0.218 C  
HETATM   10  C   UNL     1     -11.411   4.886  73.157  1.00  0.00    -0.315 C  
ENDBRANCH   6   7
ENDBRANCH   5   6
BRANCH   5  11
HETATM   11  C   UNL     1      -7.585   3.307  70.612  1.00  0.00    -0.040 C  
HETATM   12  C   UNL     1      -6.105   3.553  70.893  1.00  0.00    -0.018 C  
HETATM   13  O   UNL     1      -5.816   3.832  72.088  1.00  0.00    -0.008 OA 
HETATM   14  O   UNL     1      -5.378   3.564  69.867  1.00  0.00    -0.007 OA 
ENDBRANCH   5  11
ENDBRANCH   4   5
ENDBRANCH   2   4
TORSDOF 5
ENDMDL
MODEL      236
REMARK 921   NORMALIZED FREE ENERGY PREDICTED BY IDOCK:   -1.28 KCAL/MOL
REMARK 922        TOTAL FREE ENERGY PREDICTED BY IDOCK:   -2.26 KCAL/MOL
REMARK 923 INTER-LIGAND FREE ENERGY PREDICTED BY IDOCK:   -3.04 KCAL/MOL
REMARK 924 INTRA-LIGAND FREE ENERGY PREDICTED BY IDOCK:    0.78 KCAL/MOL
REMARK 927      BINDING AFFINITY PREDICTED BY RF-SCORE:    0.00 PKD
ROOT
HETATM    1  C   UNL     1      -6.935   8.736  67.194  1.00  0.00    -0.071 C  
HETATM    2  C   UNL     1      -8.426   8.561  67.165  1.00  0.00    -0.118 C  
HETATM    3  O   UNL     1      -9.036   7.886  66.353  1.00  0.00    -0.162 OA 
ENDROOT
BRANCH   2   4
HETATM    4  O   UNL     1      -8.971   9.218  68.216  1.00  0.00    -0.129 OA 
BRANCH   4   5
HETATM    5  C   UNL     1     -10.270   8.798  68.682  1.00  0.00    -0.194 C  
BRANCH   5   6
HETATM    6  C   UNL     1     -10.128   8.004  70.006  1.00  0.00    -0.196 C  
BRANCH   6   7
HETATM    7  N   UNL     1     -10.866   6.621  70.036  1.00  0.00    -0.257 N  
HETATM    8  C   UNL     1      -9.983   5.530  70.597  1.00  0.00    -0.207 C  
HETATM    9  C   UNL     1     -11.235   6.291  68.593  1.00  0.00    -0.238 C  
HETATM   10  C   UNL     1     -12.158   6.725  70.836  1.00  0.00    -0.367 C  
ENDBRANCH   6   7
ENDBRANCH   5   6
BRANCH   5  11
HETATM   11  C   UNL     1     -11.188  10.004  68.870  1.00  0.00    -0.179 C  
HETATM   12  C   UNL     1     -11.523  10.246  70.340  1.00  0.00    -0.335 C  
HETATM   13  O   UNL     1     -10.608   9.966  71.161  1.00  0.00    -0.250 OA 
HETATM   14  O   UNL     1     -12.716  10.583  70.550  1.00  0.00    -0.338 OA 
ENDBRANCH   5  11
ENDBRANCH   4   5
ENDBRANCH   2   4
TORSDOF 5
ENDMDL
MODEL      237
REMARK 921   NORMALIZED FREE ENERGY PREDICTED BY IDOCK:   -1.27 KCAL/MOL
REMARK 922        TOTAL FREE ENERGY PREDICTED BY IDOCK:   -2.25 KCAL/MOL
REMARK 923 INTER-LIGAND FREE ENERGY PREDICTED BY IDOCK:   -1.56 KCAL/MOL
REMARK 924 INTRA-LIGAND FREE ENERGY PREDICTED BY IDOCK:   -0.70 KCAL/MOL
REMARK 927      BINDING AFFINITY PREDICTED BY RF-SCORE:    0.00 PKD
ROOT
HETATM    1  C   UNL     1      -9.966   5.829  67.386  1.00  0.00    -0.172 C  
HETATM    2  C   UNL     1      -8.841   6.322  66.523  1.00  0.00    -0.138 C  
HETATM    3  O   UNL     1      -8.864   7.345  65.860  1.00  0.00    -0.164 OA 
ENDROOT
BRANCH   2   4
HETATM    4  O   UNL     1      -7.784   5.485  66.649  1.00  0.00    -0.097 OA 
BRANCH   4   5
HETATM    5  C   UNL     1      -7.971   4.096  66.306  1.00  0.00    -0.098 C  
BRANCH   5   6
HETATM    6  C   UNL     1      -7.396   3.818  64.893  1.00  0.00    -0.068 C  
BRANCH   6   7
HETATM    7  N   UNL     1      -8.460   3.746  63.743  1.00  0.00    -0.091 N  
HETATM    8  C   UNL     1      -8.555   5.053  62.990  1.00  0.00    -0.109 C  
HETATM    9  C   UNL     1      -9.798   3.436  64.405  1.00  0.00    -0.174 C  
HETATM   10  C   UNL     1      -8.135   2.604  62.789  1.00  0.00    -0.072 C  
ENDBRANCH   6   7
ENDBRANCH   5   6
BRANCH   5  11
HETATM   11  C   UNL     1      -7.312   3.193  67.347  1.00  0.00    -0.058 C  
HETATM   12  C   UNL     1      -8.329   2.609  68.324  1.00  0.00    -0.069 C  
HETATM   13  O   UNL     1      -9.467   2.357  67.842  1.00  0.00    -0.203 OA 
HETATM   14  O   UNL     1      -7.934   2.565  69.517  1.00  0.00    -0.042 OA 
ENDBRANCH   5  11
ENDBRANCH   4   5
ENDBRANCH   2   4
TORSDOF 5
ENDMDL
MODEL      238
REMARK 921   NORMALIZED FREE ENERGY PREDICTED BY IDOCK:   -1.22 KCAL/MOL
REMARK 922        TOTAL FREE ENERGY PREDICTED BY IDOCK:   -2.18 KCAL/MOL
REMARK 923 INTER-LIGAND FREE ENERGY PREDICTED BY IDOCK:   -3.17 KCAL/MOL
REMARK 924 INTRA-LIGAND FREE ENERGY PREDICTED BY IDOCK:    0.99 KCAL/MOL
REMARK 927      BINDING AFFINITY PREDICTED BY RF-SCORE:    0.00 PKD
ROOT
HETATM    1  C   UNL     1     -11.336   5.428  72.490  1.00  0.00    -0.286 C  
HETATM    2  C   UNL     1     -11.026   6.865  72.799  1.00  0.00    -0.280 C  
HETATM    3  O   UNL     1     -10.893   7.326  73.920  1.00  0.00    -0.284 OA 
ENDROOT
BRANCH   2   4
HETATM    4  O   UNL     1     -10.856   7.542  71.639  1.00  0.00    -0.219 OA 
BRANCH   4   5
HETATM    5  C   UNL     1     -10.475   8.932  71.712  1.00  0.00    -0.360 C  
BRANCH   5   6
HETATM    6  C   UNL     1      -9.571   9.298  70.506  1.00  0.00    -0.262 C  
BRANCH   6   7
HETATM    7  N   UNL     1      -8.073   8.855  70.639  1.00  0.00    -0.127 N  
HETATM    8  C   UNL     1      -7.148   9.788  69.891  1.00  0.00    -0.108 C  
HETATM    9  C   UNL     1      -7.977   7.453  70.047  1.00  0.00    -0.119 C  
HETATM   10  C   UNL     1      -7.672   8.771  72.107  1.00  0.00     0.063 C  
ENDBRANCH   6   7
ENDBRANCH   5   6
BRANCH   5  11
HETATM   11  C   UNL     1     -11.713   9.825  71.753  1.00  0.00    -0.275 C  
HETATM   12  C   UNL     1     -11.874  10.640  70.472  1.00  0.00    -0.357 C  
HETATM   13  O   UNL     1     -11.491  10.073  69.413  1.00  0.00    -0.185 OA 
HETATM   14  O   UNL     1     -12.258  11.823  70.656  1.00  0.00    -0.371 OA 
ENDBRANCH   5  11
ENDBRANCH   4   5
ENDBRANCH   2   4
TORSDOF 5
ENDMDL
MODEL      239
REMARK 921   NORMALIZED FREE ENERGY PREDICTED BY IDOCK:   -1.18 KCAL/MOL
REMARK 922        TOTAL FREE ENERGY PREDICTED BY IDOCK:   -2.14 KCAL/MOL
REMARK 923 INTER-LIGAND FREE ENERGY PREDICTED BY IDOCK:   -2.64 KCAL/MOL
REMARK 924 INTRA-LIGAND FREE ENERGY PREDICTED BY IDOCK:    0.51 KCAL/MOL
REMARK 927      BINDING AFFINITY PREDICTED BY RF-SCORE:    0.00 PKD
ROOT
HETATM    1  C   UNL     1     -11.027   5.772  73.244  1.00  0.00    -0.292 C  
HETATM    2  C   UNL     1     -10.342   7.100  73.098  1.00  0.00    -0.295 C  
HETATM    3  O   UNL     1      -9.495   7.538  73.859  1.00  0.00    -0.270 OA 
ENDROOT
BRANCH   2   4
HETATM    4  O   UNL     1     -10.768   7.697  71.960  1.00  0.00    -0.213 OA 
BRANCH   4   5
HETATM    5  C   UNL     1      -9.830   7.838  70.873  1.00  0.00    -0.175 C  
BRANCH   5   6
HETATM    6  C   UNL     1      -8.912   6.591  70.799  1.00  0.00    -0.144 C  
BRANCH   6   7
HETATM    7  N   UNL     1      -7.412   6.888  70.452  1.00  0.00    -0.084 N  
HETATM    8  C   UNL     1      -6.499   5.789  70.944  1.00  0.00    -0.040 C  
HETATM    9  C   UNL     1      -7.055   8.200  71.142  1.00  0.00    -0.058 C  
HETATM   10  C   UNL     1      -7.244   7.088  68.951  1.00  0.00    -0.091 C  
ENDBRANCH   6   7
ENDBRANCH   5   6
BRANCH   5  11
HETATM   11  C   UNL     1     -10.568   8.047  69.552  1.00  0.00    -0.216 C  
HETATM   12  C   UNL     1     -11.009   6.727  68.927  1.00  0.00    -0.218 C  
HETATM   13  O   UNL     1     -11.335   5.820  69.740  1.00  0.00    -0.287 OA 
HETATM   14  O   UNL     1     -10.876   6.675  67.678  1.00  0.00    -0.261 OA 
ENDBRANCH   5  11
ENDBRANCH   4   5
ENDBRANCH   2   4
TORSDOF 5
ENDMDL
MODEL      240
REMARK 921   NORMALIZED FREE ENERGY PREDICTED BY IDOCK:   -1.18 KCAL/MOL
REMARK 922        TOTAL FREE ENERGY PREDICTED BY IDOCK:   -2.13 KCAL/MOL
REMARK 923 INTER-LIGAND FREE ENERGY PREDICTED BY IDOCK:   -1.96 KCAL/MOL
REMARK 924 INTRA-LIGAND FREE ENERGY PREDICTED BY IDOCK:   -0.17 KCAL/MOL
REMARK 927      BINDING AFFINITY PREDICTED BY RF-SCORE:    0.00 PKD
ROOT
HETATM    1  C   UNL     1      -7.251   4.561  62.999  1.00  0.00    -0.044 C  
HETATM    2  C   UNL     1      -7.418   4.453  64.487  1.00  0.00    -0.072 C  
HETATM    3  O   UNL     1      -6.569   4.038  65.258  1.00  0.00    -0.044 OA 
ENDROOT
BRANCH   2   4
HETATM    4  O   UNL     1      -8.630   4.946  64.836  1.00  0.00    -0.137 OA 
BRANCH   4   5
HETATM    5  C   UNL     1      -8.671   6.108  65.690  1.00  0.00    -0.126 C  
BRANCH   5   6
HETATM    6  C   UNL     1      -8.592   5.676  67.177  1.00  0.00    -0.109 C  
BRANCH   6   7
HETATM    7  N   UNL     1      -9.735   6.234  68.094  1.00  0.00    -0.121 N  
HETATM    8  C   UNL     1     -10.984   6.544  67.301  1.00  0.00    -0.400 C  
HETATM    9  C   UNL     1      -9.200   7.512  68.730  1.00  0.00    -0.145 C  
HETATM   10  C   UNL     1     -10.046   5.249  69.214  1.00  0.00    -0.230 C  
ENDBRANCH   6   7
ENDBRANCH   5   6
BRANCH   5  11
HETATM   11  C   UNL     1      -7.535   7.069  65.344  1.00  0.00    -0.088 C  
HETATM   12  C   UNL     1      -8.055   8.422  64.866  1.00  0.00    -0.149 C  
HETATM   13  O   UNL     1      -9.126   8.816  65.403  1.00  0.00    -0.200 OA 
HETATM   14  O   UNL     1      -7.408   8.916  63.907  1.00  0.00    -0.094 OA 
ENDBRANCH   5  11
ENDBRANCH   4   5
ENDBRANCH   2   4
TORSDOF 5
ENDMDL
MODEL      241
REMARK 921   NORMALIZED FREE ENERGY PREDICTED BY IDOCK:   -1.17 KCAL/MOL
REMARK 922        TOTAL FREE ENERGY PREDICTED BY IDOCK:   -2.12 KCAL/MOL
REMARK 923 INTER-LIGAND FREE ENERGY PREDICTED BY IDOCK:   -2.11 KCAL/MOL
REMARK 924 INTRA-LIGAND FREE ENERGY PREDICTED BY IDOCK:   -0.01 KCAL/MOL
REMARK 927      BINDING AFFINITY PREDICTED BY RF-SCORE:    0.00 PKD
ROOT
HETATM    1  C   UNL     1     -11.586   6.541  70.103  1.00  0.00    -0.466 C  
HETATM    2  C   UNL     1     -10.453   7.391  69.602  1.00  0.00    -0.232 C  
HETATM    3  O   UNL     1     -10.540   8.572  69.310  1.00  0.00    -0.220 OA 
ENDROOT
BRANCH   2   4
HETATM    4  O   UNL     1      -9.318   6.654  69.588  1.00  0.00    -0.144 OA 
BRANCH   4   5
HETATM    5  C   UNL     1      -8.905   6.062  68.339  1.00  0.00    -0.112 C  
BRANCH   5   6
HETATM    6  C   UNL     1      -9.592   4.685  68.151  1.00  0.00    -0.148 C  
BRANCH   6   7
HETATM    7  N   UNL     1      -8.656   3.442  68.347  1.00  0.00    -0.088 N  
HETATM    8  C   UNL     1      -7.226   3.757  67.971  1.00  0.00    -0.058 C  
HETATM    9  C   UNL     1      -9.195   2.341  67.440  1.00  0.00    -0.126 C  
HETATM   10  C   UNL     1      -8.731   2.942  69.784  1.00  0.00    -0.074 C  
ENDBRANCH   6   7
ENDBRANCH   5   6
BRANCH   5  11
HETATM   11  C   UNL     1      -9.231   6.993  67.172  1.00  0.00    -0.153 C  
HETATM   12  C   UNL     1      -8.053   7.896  66.814  1.00  0.00    -0.108 C  
HETATM   13  O   UNL     1      -6.909   7.388  66.966  1.00  0.00    -0.069 OA 
HETATM   14  O   UNL     1      -8.375   9.077  66.525  1.00  0.00    -0.112 OA 
ENDBRANCH   5  11
ENDBRANCH   4   5
ENDBRANCH   2   4
TORSDOF 5
ENDMDL
MODEL      242
REMARK 921   NORMALIZED FREE ENERGY PREDICTED BY IDOCK:   -0.98 KCAL/MOL
REMARK 922        TOTAL FREE ENERGY PREDICTED BY IDOCK:   -1.88 KCAL/MOL
REMARK 923 INTER-LIGAND FREE ENERGY PREDICTED BY IDOCK:   -1.26 KCAL/MOL
REMARK 924 INTRA-LIGAND FREE ENERGY PREDICTED BY IDOCK:   -0.62 KCAL/MOL
REMARK 927      BINDING AFFINITY PREDICTED BY RF-SCORE:    0.00 PKD
ROOT
HETATM    1  C   UNL     1     -10.635   7.626  70.818  1.00  0.00    -0.224 C  
HETATM    2  C   UNL     1      -9.806   6.681  69.997  1.00  0.00    -0.165 C  
HETATM    3  O   UNL     1     -10.124   6.238  68.906  1.00  0.00    -0.151 OA 
ENDROOT
BRANCH   2   4
HETATM    4  O   UNL     1      -8.632   6.453  70.632  1.00  0.00    -0.136 OA 
BRANCH   4   5
HETATM    5  C   UNL     1      -7.409   6.641  69.890  1.00  0.00    -0.086 C  
BRANCH   5   6
HETATM    6  C   UNL     1      -7.064   8.151  69.809  1.00  0.00    -0.060 C  
BRANCH   6   7
HETATM    7  N   UNL     1      -7.041   8.752  68.361  1.00  0.00    -0.076 N  
HETATM    8  C   UNL     1      -5.852   9.661  68.154  1.00  0.00    -0.040 C  
HETATM    9  C   UNL     1      -8.331   9.549  68.198  1.00  0.00    -0.118 C  
HETATM   10  C   UNL     1      -7.047   7.637  67.323  1.00  0.00    -0.085 C  
ENDBRANCH   6   7
ENDBRANCH   5   6
BRANCH   5  11
HETATM   11  C   UNL     1      -6.267   5.858  70.532  1.00  0.00    -0.031 C  
HETATM   12  C   UNL     1      -6.312   4.376  70.168  1.00  0.00    -0.027 C  
HETATM   13  O   UNL     1      -6.740   4.111  69.012  1.00  0.00    -0.043 OA 
HETATM   14  O   UNL     1      -6.028   3.601  71.117  1.00  0.00    -0.013 OA 
ENDBRANCH   5  11
ENDBRANCH   4   5
ENDBRANCH   2   4
TORSDOF 5
ENDMDL
MODEL      243
REMARK 921   NORMALIZED FREE ENERGY PREDICTED BY IDOCK:   -0.82 KCAL/MOL
REMARK 922        TOTAL FREE ENERGY PREDICTED BY IDOCK:   -1.67 KCAL/MOL
REMARK 923 INTER-LIGAND FREE ENERGY PREDICTED BY IDOCK:   -1.63 KCAL/MOL
REMARK 924 INTRA-LIGAND FREE ENERGY PREDICTED BY IDOCK:   -0.04 KCAL/MOL
REMARK 927      BINDING AFFINITY PREDICTED BY RF-SCORE:    0.00 PKD
ROOT
HETATM    1  C   UNL     1     -10.035   7.278  70.429  1.00  0.00    -0.192 C  
HETATM    2  C   UNL     1      -9.512   5.877  70.567  1.00  0.00    -0.167 C  
HETATM    3  O   UNL     1     -10.039   4.995  71.224  1.00  0.00    -0.190 OA 
ENDROOT
BRANCH   2   4
HETATM    4  O   UNL     1      -8.406   5.738  69.798  1.00  0.00    -0.109 OA 
BRANCH   4   5
HETATM    5  C   UNL     1      -8.398   4.698  68.799  1.00  0.00    -0.081 C  
BRANCH   5   6
HETATM    6  C   UNL     1      -7.893   3.370  69.420  1.00  0.00    -0.050 C  
BRANCH   6   7
HETATM    7  N   UNL     1      -6.679   2.708  68.680  1.00  0.00    -0.036 N  
HETATM    8  C   UNL     1      -5.990   1.680  69.548  1.00  0.00    -0.023 C  
HETATM    9  C   UNL     1      -5.706   3.833  68.345  1.00  0.00    -0.022 C  
HETATM   10  C   UNL     1      -7.135   2.080  67.369  1.00  0.00    -0.043 C  
ENDBRANCH   6   7
ENDBRANCH   5   6
BRANCH   5  11
HETATM   11  C   UNL     1      -9.792   4.520  68.200  1.00  0.00    -0.152 C  
HETATM   12  C   UNL     1     -10.089   5.559  67.121  1.00  0.00    -0.188 C  
HETATM   13  O   UNL     1      -9.101   5.921  66.426  1.00  0.00    -0.140 OA 
HETATM   14  O   UNL     1     -11.262   6.009  67.146  1.00  0.00    -0.236 OA 
ENDBRANCH   5  11
ENDBRANCH   4   5
ENDBRANCH   2   4
TORSDOF 5
ENDMDL
MODEL      244
REMARK 921   NORMALIZED FREE ENERGY PREDICTED BY IDOCK:   -0.80 KCAL/MOL
REMARK 922        TOTAL FREE ENERGY PREDICTED BY IDOCK:   -1.64 KCAL/MOL
REMARK 923 INTER-LIGAND FREE ENERGY PREDICTED BY IDOCK:   -1.69 KCAL/MOL
REMARK 924 INTRA-LIGAND FREE ENERGY PREDICTED BY IDOCK:    0.06 KCAL/MOL
REMARK 927      BINDING AFFINITY PREDICTED BY RF-SCORE:    0.00 PKD
ROOT
HETATM    1  C   UNL     1      -9.056   7.474  67.575  1.00  0.00    -0.130 C  
HETATM    2  C   UNL     1      -9.518   6.132  67.085  1.00  0.00    -0.119 C  
HETATM    3  O   UNL     1     -10.654   5.871  66.724  1.00  0.00    -0.259 OA 
ENDROOT
BRANCH   2   4
HETATM    4  O   UNL     1      -8.463   5.284  67.050  1.00  0.00    -0.108 OA 
BRANCH   4   5
HETATM    5  C   UNL     1      -8.536   4.073  67.831  1.00  0.00    -0.097 C  
BRANCH   5   6
HETATM    6  C   UNL     1      -9.460   4.289  69.058  1.00  0.00    -0.172 C  
BRANCH   6   7
HETATM    7  N   UNL     1      -8.724   4.361  70.440  1.00  0.00    -0.083 N  
HETATM    8  C   UNL     1      -9.686   4.656  71.568  1.00  0.00    -0.175 C  
HETATM    9  C   UNL     1      -7.699   5.484  70.332  1.00  0.00    -0.085 C  
HETATM   10  C   UNL     1      -7.970   3.064  70.709  1.00  0.00    -0.046 C  
ENDBRANCH   6   7
ENDBRANCH   5   6
BRANCH   5  11
HETATM   11  C   UNL     1      -9.035   2.912  66.974  1.00  0.00    -0.177 C  
HETATM   12  C   UNL     1      -8.213   2.746  65.698  1.00  0.00    -0.089 C  
HETATM   13  O   UNL     1      -6.988   3.027  65.799  1.00  0.00    -0.051 OA 
HETATM   14  O   UNL     1      -8.891   2.464  64.678  1.00  0.00    -0.104 OA 
ENDBRANCH   5  11
ENDBRANCH   4   5
ENDBRANCH   2   4
TORSDOF 5
ENDMDL
MODEL      245
REMARK 921   NORMALIZED FREE ENERGY PREDICTED BY IDOCK:   -0.68 KCAL/MOL
REMARK 922        TOTAL FREE ENERGY PREDICTED BY IDOCK:   -1.49 KCAL/MOL
REMARK 923 INTER-LIGAND FREE ENERGY PREDICTED BY IDOCK:   -1.65 KCAL/MOL
REMARK 924 INTRA-LIGAND FREE ENERGY PREDICTED BY IDOCK:    0.15 KCAL/MOL
REMARK 927      BINDING AFFINITY PREDICTED BY RF-SCORE:    0.00 PKD
ROOT
HETATM    1  C   UNL     1      -9.301   7.425  67.446  1.00  0.00    -0.154 C  
HETATM    2  C   UNL     1      -9.969   6.160  66.990  1.00  0.00    -0.162 C  
HETATM    3  O   UNL     1     -11.125   6.077  66.609  1.00  0.00    -0.263 OA 
ENDROOT
BRANCH   2   4
HETATM    4  O   UNL     1      -9.068   5.149  67.010  1.00  0.00    -0.112 OA 
BRANCH   4   5
HETATM    5  C   UNL     1      -8.421   4.790  65.771  1.00  0.00    -0.119 C  
BRANCH   5   6
HETATM    6  C   UNL     1      -9.485   4.445  64.697  1.00  0.00    -0.141 C  
BRANCH   6   7
HETATM    7  N   UNL     1      -9.336   3.028  64.043  1.00  0.00    -0.115 N  
HETATM    8  C   UNL     1      -8.225   3.001  63.019  1.00  0.00    -0.074 C  
HETATM    9  C   UNL     1     -10.666   2.715  63.367  1.00  0.00    -0.223 C  
HETATM   10  C   UNL     1      -9.098   1.971  65.115  1.00  0.00    -0.116 C  
ENDBRANCH   6   7
ENDBRANCH   5   6
BRANCH   5  11
HETATM   11  C   UNL     1      -7.515   5.922  65.292  1.00  0.00    -0.082 C  
HETATM   12  C   UNL     1      -6.207   5.980  66.076  1.00  0.00    -0.037 C  
HETATM   13  O   UNL     1      -5.747   4.869  66.455  1.00  0.00    -0.017 OA 
HETATM   14  O   UNL     1      -5.818   7.145  66.348  1.00  0.00    -0.032 OA 
ENDBRANCH   5  11
ENDBRANCH   4   5
ENDBRANCH   2   4
TORSDOF 5
ENDMDL
MODEL      246
REMARK 921   NORMALIZED FREE ENERGY PREDICTED BY IDOCK:   -0.63 KCAL/MOL
REMARK 922        TOTAL FREE ENERGY PREDICTED BY IDOCK:   -1.42 KCAL/MOL
REMARK 923 INTER-LIGAND FREE ENERGY PREDICTED BY IDOCK:   -1.55 KCAL/MOL
REMARK 924 INTRA-LIGAND FREE ENERGY PREDICTED BY IDOCK:    0.13 KCAL/MOL
REMARK 927      BINDING AFFINITY PREDICTED BY RF-SCORE:    0.00 PKD
ROOT
HETATM    1  C   UNL     1      -8.038   8.504  72.671  1.00  0.00    -0.113 C  
HETATM    2  C   UNL     1      -8.671   7.963  71.422  1.00  0.00    -0.127 C  
HETATM    3  O   UNL     1      -9.723   7.348  71.379  1.00  0.00    -0.167 OA 
ENDROOT
BRANCH   2   4
HETATM    4  O   UNL     1      -7.920   8.321  70.353  1.00  0.00    -0.092 OA 
BRANCH   4   5
HETATM    5  C   UNL     1      -8.602   8.761  69.160  1.00  0.00    -0.128 C  
BRANCH   5   6
HETATM    6  C   UNL     1      -8.979   7.538  68.283  1.00  0.00    -0.130 C  
BRANCH   6   7
HETATM    7  N   UNL     1      -8.196   7.423  66.930  1.00  0.00    -0.119 N  
HETATM    8  C   UNL     1      -7.575   6.056  66.759  1.00  0.00    -0.095 C  
HETATM    9  C   UNL     1      -7.101   8.484  66.966  1.00  0.00    -0.075 C  
HETATM   10  C   UNL     1      -9.115   7.741  65.756  1.00  0.00    -0.011 C  
ENDBRANCH   6   7
ENDBRANCH   5   6
BRANCH   5  11
HETATM   11  C   UNL     1      -9.844   9.573  69.520  1.00  0.00    -0.205 C  
HETATM   12  C   UNL     1      -9.926  10.877  68.731  1.00  0.00    -0.195 C  
HETATM   13  O   UNL     1      -9.472  10.832  67.555  1.00  0.00    -0.153 OA 
HETATM   14  O   UNL     1     -10.328  11.863  69.400  1.00  0.00     0.060 OA 
ENDBRANCH   5  11
ENDBRANCH   4   5
ENDBRANCH   2   4
TORSDOF 5
ENDMDL
