MODEL        1
REMARK 921   NORMALIZED FREE ENERGY PREDICTED BY IDOCK:   -5.41 KCAL/MOL
REMARK 922        TOTAL FREE ENERGY PREDICTED BY IDOCK:   -5.90 KCAL/MOL
REMARK 923 INTER-LIGAND FREE ENERGY PREDICTED BY IDOCK:   -5.73 KCAL/MOL
REMARK 924 INTRA-LIGAND FREE ENERGY PREDICTED BY IDOCK:   -0.17 KCAL/MOL
REMARK 927      BINDING AFFINITY PREDICTED BY RF-SCORE:    0.00 PKD
ROOT
HETATM    1  C   UNL     1     -11.923  13.913  67.090  1.00  0.00    -0.455 C  
HETATM    2  C   UNL     1     -11.970  13.857  68.595  1.00  0.00    -0.366 C  
HETATM    3  O   UNL     1     -11.580  12.863  69.198  1.00  0.00    -0.285 OA 
HETATM    4  N   UNL     1     -12.500  15.011  69.146  1.00  0.00    -0.588 N  
HETATM    5  H   UNL     1     -12.771  15.749  68.496  1.00  0.00     0.000 HD 
ENDROOT
BRANCH   4   6
HETATM    6  C   UNL     1     -12.703  15.267  70.519  1.00  0.00    -0.390 A  
HETATM    7  C   UNL     1     -13.911  15.023  71.179  1.00  0.00    -0.468 A  
HETATM    8  C   UNL     1     -14.070  15.359  72.527  1.00  0.00    -0.593 A  
HETATM    9  C   UNL     1     -13.013  15.939  73.216  1.00  0.00    -0.570 A  
HETATM   10  C   UNL     1     -11.791  16.147  72.592  1.00  0.00    -0.609 A  
HETATM   11  O   UNL     1     -13.143  16.328  74.516  1.00  0.00    -0.908 OA 
HETATM   12  H   UNL     1     -12.420  16.724  74.987  1.00  0.00     0.000 HD 
HETATM   13  C   UNL     1     -11.632  15.803  71.246  1.00  0.00    -0.499 A  
ENDBRANCH   4   6
TORSDOF 1
ENDMDL
MODEL        2
REMARK 921   NORMALIZED FREE ENERGY PREDICTED BY IDOCK:   -5.41 KCAL/MOL
REMARK 922        TOTAL FREE ENERGY PREDICTED BY IDOCK:   -5.89 KCAL/MOL
REMARK 923 INTER-LIGAND FREE ENERGY PREDICTED BY IDOCK:   -5.72 KCAL/MOL
REMARK 924 INTRA-LIGAND FREE ENERGY PREDICTED BY IDOCK:   -0.17 KCAL/MOL
REMARK 927      BINDING AFFINITY PREDICTED BY RF-SCORE:    0.00 PKD
ROOT
HETATM    1  C   UNL     1     -11.995  13.780  67.105  1.00  0.00    -0.442 C  
HETATM    2  C   UNL     1     -11.926  13.853  68.608  1.00  0.00    -0.366 C  
HETATM    3  O   UNL     1     -11.419  12.944  69.256  1.00  0.00    -0.268 OA 
HETATM    4  N   UNL     1     -12.501  15.010  69.104  1.00  0.00    -0.588 N  
HETATM    5  H   UNL     1     -12.875  15.668  68.420  1.00  0.00     0.000 HD 
ENDROOT
BRANCH   4   6
HETATM    6  C   UNL     1     -12.620  15.369  70.464  1.00  0.00    -0.423 A  
HETATM    7  C   UNL     1     -11.575  15.918  71.211  1.00  0.00    -0.509 A  
HETATM    8  C   UNL     1     -11.736  16.192  72.574  1.00  0.00    -0.525 A  
HETATM    9  C   UNL     1     -12.952  15.918  73.186  1.00  0.00    -0.549 A  
HETATM   10  C   UNL     1     -14.017  15.416  72.452  1.00  0.00    -0.657 A  
HETATM   11  O   UNL     1     -13.134  16.122  74.521  1.00  0.00    -0.901 OA 
HETATM   12  H   UNL     1     -13.965  15.935  74.940  1.00  0.00     0.000 HD 
HETATM   13  C   UNL     1     -13.855  15.150  71.089  1.00  0.00    -0.495 A  
ENDBRANCH   4   6
TORSDOF 1
ENDMDL
MODEL        3
REMARK 921   NORMALIZED FREE ENERGY PREDICTED BY IDOCK:   -5.01 KCAL/MOL
REMARK 922        TOTAL FREE ENERGY PREDICTED BY IDOCK:   -5.47 KCAL/MOL
REMARK 923 INTER-LIGAND FREE ENERGY PREDICTED BY IDOCK:   -5.30 KCAL/MOL
REMARK 924 INTRA-LIGAND FREE ENERGY PREDICTED BY IDOCK:   -0.17 KCAL/MOL
REMARK 927      BINDING AFFINITY PREDICTED BY RF-SCORE:    0.00 PKD
ROOT
HETATM    1  C   UNL     1     -10.699   9.589  67.671  1.00  0.00    -0.314 C  
HETATM    2  C   UNL     1     -11.236  10.961  67.360  1.00  0.00    -0.273 C  
HETATM    3  O   UNL     1     -12.089  11.476  68.074  1.00  0.00    -0.617 OA 
HETATM    4  N   UNL     1     -10.671  11.499  66.216  1.00  0.00    -0.264 N  
HETATM    5  H   UNL     1      -9.966  10.934  65.742  1.00  0.00     0.000 HD 
ENDROOT
BRANCH   4   6
HETATM    6  C   UNL     1     -10.975  12.752  65.642  1.00  0.00    -0.273 A  
HETATM    7  C   UNL     1     -12.069  12.969  64.800  1.00  0.00    -0.465 A  
HETATM    8  C   UNL     1     -12.280  14.220  64.209  1.00  0.00    -0.451 A  
HETATM    9  C   UNL     1     -11.391  15.255  64.466  1.00  0.00    -0.300 A  
HETATM   10  C   UNL     1     -10.324  15.073  65.334  1.00  0.00    -0.410 A  
HETATM   11  O   UNL     1     -11.531  16.472  63.870  1.00  0.00    -1.608 OA 
HETATM   12  H   UNL     1     -10.923  17.181  64.046  1.00  0.00     0.000 HD 
HETATM   13  C   UNL     1     -10.120  13.824  65.930  1.00  0.00    -0.325 A  
ENDBRANCH   4   6
TORSDOF 1
ENDMDL
MODEL        4
REMARK 921   NORMALIZED FREE ENERGY PREDICTED BY IDOCK:   -4.94 KCAL/MOL
REMARK 922        TOTAL FREE ENERGY PREDICTED BY IDOCK:   -5.40 KCAL/MOL
REMARK 923 INTER-LIGAND FREE ENERGY PREDICTED BY IDOCK:   -5.26 KCAL/MOL
REMARK 924 INTRA-LIGAND FREE ENERGY PREDICTED BY IDOCK:   -0.14 KCAL/MOL
REMARK 927      BINDING AFFINITY PREDICTED BY RF-SCORE:    0.00 PKD
ROOT
HETATM    1  C   UNL     1     -11.822  11.229  69.549  1.00  0.00    -0.427 C  
HETATM    2  C   UNL     1     -11.835  12.542  68.813  1.00  0.00    -0.303 C  
HETATM    3  O   UNL     1     -12.176  13.575  69.379  1.00  0.00    -0.307 OA 
HETATM    4  N   UNL     1     -11.450  12.406  67.490  1.00  0.00    -0.324 N  
HETATM    5  H   UNL     1     -11.191  11.469  67.180  1.00  0.00     0.000 HD 
ENDROOT
BRANCH   4   6
HETATM    6  C   UNL     1     -11.380  13.436  66.528  1.00  0.00    -0.320 A  
HETATM    7  C   UNL     1     -10.419  14.451  66.552  1.00  0.00    -0.289 A  
HETATM    8  C   UNL     1     -10.442  15.482  65.607  1.00  0.00    -0.393 A  
HETATM    9  C   UNL     1     -11.431  15.492  64.632  1.00  0.00    -0.324 A  
HETATM   10  C   UNL     1     -12.367  14.470  64.562  1.00  0.00    -0.434 A  
HETATM   11  O   UNL     1     -11.521  16.505  63.725  1.00  0.00    -1.615 OA 
HETATM   12  H   UNL     1     -12.197  16.512  63.058  1.00  0.00     0.000 HD 
HETATM   13  C   UNL     1     -12.337  13.436  65.504  1.00  0.00    -0.528 A  
ENDBRANCH   4   6
TORSDOF 1
ENDMDL
MODEL        5
REMARK 921   NORMALIZED FREE ENERGY PREDICTED BY IDOCK:   -4.83 KCAL/MOL
REMARK 922        TOTAL FREE ENERGY PREDICTED BY IDOCK:   -5.29 KCAL/MOL
REMARK 923 INTER-LIGAND FREE ENERGY PREDICTED BY IDOCK:   -5.12 KCAL/MOL
REMARK 924 INTRA-LIGAND FREE ENERGY PREDICTED BY IDOCK:   -0.16 KCAL/MOL
REMARK 927      BINDING AFFINITY PREDICTED BY RF-SCORE:    0.00 PKD
ROOT
HETATM    1  C   UNL     1     -10.229  17.300  67.119  1.00  0.00    -0.319 C  
HETATM    2  C   UNL     1     -10.628  16.460  65.934  1.00  0.00    -0.285 C  
HETATM    3  O   UNL     1     -10.776  16.967  64.827  1.00  0.00    -0.760 OA 
HETATM    4  N   UNL     1     -10.805  15.129  66.270  1.00  0.00    -0.330 N  
HETATM    5  H   UNL     1     -10.633  14.874  67.243  1.00  0.00     0.000 HD 
ENDROOT
BRANCH   4   6
HETATM    6  C   UNL     1     -11.201  14.091  65.400  1.00  0.00    -0.319 A  
HETATM    7  C   UNL     1     -10.337  13.477  64.489  1.00  0.00    -0.381 A  
HETATM    8  C   UNL     1     -10.805  12.497  63.607  1.00  0.00    -0.486 A  
HETATM    9  C   UNL     1     -12.144  12.131  63.642  1.00  0.00    -0.551 A  
HETATM   10  C   UNL     1     -13.009  12.696  64.569  1.00  0.00    -0.236 A  
HETATM   11  O   UNL     1     -12.652  11.220  62.766  1.00  0.00    -0.912 OA 
HETATM   12  H   UNL     1     -13.568  10.969  62.789  1.00  0.00     0.000 HD 
HETATM   13  C   UNL     1     -12.536  13.669  65.455  1.00  0.00    -0.544 A  
ENDBRANCH   4   6
TORSDOF 1
ENDMDL
MODEL        6
REMARK 921   NORMALIZED FREE ENERGY PREDICTED BY IDOCK:   -4.77 KCAL/MOL
REMARK 922        TOTAL FREE ENERGY PREDICTED BY IDOCK:   -5.22 KCAL/MOL
REMARK 923 INTER-LIGAND FREE ENERGY PREDICTED BY IDOCK:   -5.07 KCAL/MOL
REMARK 924 INTRA-LIGAND FREE ENERGY PREDICTED BY IDOCK:   -0.15 KCAL/MOL
REMARK 927      BINDING AFFINITY PREDICTED BY RF-SCORE:    0.00 PKD
ROOT
HETATM    1  C   UNL     1      -9.502  11.814  67.579  1.00  0.00    -0.174 C  
HETATM    2  C   UNL     1     -10.744  11.284  68.247  1.00  0.00    -0.194 C  
HETATM    3  O   UNL     1     -11.797  11.188  67.626  1.00  0.00    -0.612 OA 
HETATM    4  N   UNL     1     -10.529  10.963  69.576  1.00  0.00    -0.398 N  
HETATM    5  H   UNL     1      -9.583  11.100  69.935  1.00  0.00     0.000 HD 
ENDROOT
BRANCH   4   6
HETATM    6  C   UNL     1     -11.488  10.467  70.484  1.00  0.00    -0.345 A  
HETATM    7  C   UNL     1     -12.525  11.243  71.011  1.00  0.00    -0.503 A  
HETATM    8  C   UNL     1     -13.406  10.711  71.958  1.00  0.00    -0.409 A  
HETATM    9  C   UNL     1     -13.248   9.396  72.376  1.00  0.00    -0.403 A  
HETATM   10  C   UNL     1     -12.254   8.595  71.831  1.00  0.00    -0.419 A  
HETATM   11  O   UNL     1     -14.053   8.856  73.333  1.00  0.00    -1.256 OA 
HETATM   12  H   UNL     1     -13.945   7.957  73.619  1.00  0.00     0.000 HD 
HETATM   13  C   UNL     1     -11.379   9.127  70.879  1.00  0.00    -0.359 A  
ENDBRANCH   4   6
TORSDOF 1
ENDMDL
MODEL        7
REMARK 921   NORMALIZED FREE ENERGY PREDICTED BY IDOCK:   -4.71 KCAL/MOL
REMARK 922        TOTAL FREE ENERGY PREDICTED BY IDOCK:   -5.16 KCAL/MOL
REMARK 923 INTER-LIGAND FREE ENERGY PREDICTED BY IDOCK:   -5.04 KCAL/MOL
REMARK 924 INTRA-LIGAND FREE ENERGY PREDICTED BY IDOCK:   -0.12 KCAL/MOL
REMARK 927      BINDING AFFINITY PREDICTED BY RF-SCORE:    0.00 PKD
ROOT
HETATM    1  C   UNL     1     -11.312  10.428  68.961  1.00  0.00    -0.279 C  
HETATM    2  C   UNL     1     -11.187  11.198  67.673  1.00  0.00    -0.297 C  
HETATM    3  O   UNL     1     -10.649  10.696  66.692  1.00  0.00    -0.243 OA 
HETATM    4  N   UNL     1     -11.717  12.473  67.771  1.00  0.00    -0.354 N  
HETATM    5  H   UNL     1     -12.135  12.730  68.665  1.00  0.00     0.000 HD 
ENDROOT
BRANCH   4   6
HETATM    6  C   UNL     1     -11.736  13.452  66.755  1.00  0.00    -0.385 A  
HETATM    7  C   UNL     1     -12.480  13.328  65.577  1.00  0.00    -0.531 A  
HETATM    8  C   UNL     1     -12.405  14.304  64.578  1.00  0.00    -0.432 A  
HETATM    9  C   UNL     1     -11.585  15.409  64.762  1.00  0.00    -0.286 A  
HETATM   10  C   UNL     1     -10.874  15.574  65.942  1.00  0.00    -0.317 A  
HETATM   11  O   UNL     1     -11.445  16.356  63.792  1.00  0.00    -1.590 OA 
HETATM   12  H   UNL     1     -10.884  17.112  63.918  1.00  0.00     0.000 HD 
HETATM   13  C   UNL     1     -10.956  14.601  66.943  1.00  0.00    -0.324 A  
ENDBRANCH   4   6
TORSDOF 1
ENDMDL
MODEL        8
REMARK 921   NORMALIZED FREE ENERGY PREDICTED BY IDOCK:   -4.70 KCAL/MOL
REMARK 922        TOTAL FREE ENERGY PREDICTED BY IDOCK:   -5.15 KCAL/MOL
REMARK 923 INTER-LIGAND FREE ENERGY PREDICTED BY IDOCK:   -4.99 KCAL/MOL
REMARK 924 INTRA-LIGAND FREE ENERGY PREDICTED BY IDOCK:   -0.16 KCAL/MOL
REMARK 927      BINDING AFFINITY PREDICTED BY RF-SCORE:    0.00 PKD
ROOT
HETATM    1  C   UNL     1      -9.653  11.828  67.570  1.00  0.00    -0.179 C  
HETATM    2  C   UNL     1     -10.840  11.207  68.257  1.00  0.00    -0.212 C  
HETATM    3  O   UNL     1     -11.891  11.027  67.653  1.00  0.00    -0.599 OA 
HETATM    4  N   UNL     1     -10.582  10.910  69.585  1.00  0.00    -0.412 N  
HETATM    5  H   UNL     1      -9.644  11.120  69.929  1.00  0.00     0.000 HD 
ENDROOT
BRANCH   4   6
HETATM    6  C   UNL     1     -11.487  10.346  70.508  1.00  0.00    -0.345 A  
HETATM    7  C   UNL     1     -11.504   8.988  70.840  1.00  0.00    -0.347 A  
HETATM    8  C   UNL     1     -12.470   8.477  71.714  1.00  0.00    -0.388 A  
HETATM    9  C   UNL     1     -13.419   9.332  72.259  1.00  0.00    -0.482 A  
HETATM   10  C   UNL     1     -13.391  10.691  71.978  1.00  0.00    -0.409 A  
HETATM   11  O   UNL     1     -14.407   8.866  73.073  1.00  0.00    -1.115 OA 
HETATM   12  H   UNL     1     -15.056   9.451  73.446  1.00  0.00     0.000 HD 
HETATM   13  C   UNL     1     -12.420  11.200  71.110  1.00  0.00    -0.498 A  
ENDBRANCH   4   6
TORSDOF 1
ENDMDL
MODEL        9
REMARK 921   NORMALIZED FREE ENERGY PREDICTED BY IDOCK:   -4.70 KCAL/MOL
REMARK 922        TOTAL FREE ENERGY PREDICTED BY IDOCK:   -5.14 KCAL/MOL
REMARK 923 INTER-LIGAND FREE ENERGY PREDICTED BY IDOCK:   -4.97 KCAL/MOL
REMARK 924 INTRA-LIGAND FREE ENERGY PREDICTED BY IDOCK:   -0.17 KCAL/MOL
REMARK 927      BINDING AFFINITY PREDICTED BY RF-SCORE:    0.00 PKD
ROOT
HETATM    1  C   UNL     1     -10.392   9.414  67.203  1.00  0.00    -0.326 C  
HETATM    2  C   UNL     1     -10.427  10.533  66.195  1.00  0.00    -0.168 C  
HETATM    3  O   UNL     1      -9.960  10.380  65.072  1.00  0.00    -0.294 OA 
HETATM    4  N   UNL     1     -11.010  11.681  66.706  1.00  0.00    -0.278 N  
HETATM    5  H   UNL     1     -11.354  11.634  67.665  1.00  0.00     0.000 HD 
ENDROOT
BRANCH   4   6
HETATM    6  C   UNL     1     -11.174  12.909  66.030  1.00  0.00    -0.293 A  
HETATM    7  C   UNL     1     -12.287  13.213  65.242  1.00  0.00    -0.532 A  
HETATM    8  C   UNL     1     -12.361  14.423  64.544  1.00  0.00    -0.440 A  
HETATM    9  C   UNL     1     -11.315  15.331  64.639  1.00  0.00    -0.358 A  
HETATM   10  C   UNL     1     -10.222  15.069  65.452  1.00  0.00    -0.411 A  
HETATM   11  O   UNL     1     -11.324  16.498  63.935  1.00  0.00    -1.557 OA 
HETATM   12  H   UNL     1     -10.609  17.119  64.001  1.00  0.00     0.000 HD 
HETATM   13  C   UNL     1     -10.154  13.862  66.155  1.00  0.00    -0.317 A  
ENDBRANCH   4   6
TORSDOF 1
ENDMDL
MODEL       10
REMARK 921   NORMALIZED FREE ENERGY PREDICTED BY IDOCK:   -4.69 KCAL/MOL
REMARK 922        TOTAL FREE ENERGY PREDICTED BY IDOCK:   -5.13 KCAL/MOL
REMARK 923 INTER-LIGAND FREE ENERGY PREDICTED BY IDOCK:   -4.99 KCAL/MOL
REMARK 924 INTRA-LIGAND FREE ENERGY PREDICTED BY IDOCK:   -0.14 KCAL/MOL
REMARK 927      BINDING AFFINITY PREDICTED BY RF-SCORE:    0.00 PKD
ROOT
HETATM    1  C   UNL     1     -11.233  10.348  68.687  1.00  0.00    -0.305 C  
HETATM    2  C   UNL     1     -11.098  11.133  67.408  1.00  0.00    -0.307 C  
HETATM    3  O   UNL     1     -10.780  10.578  66.363  1.00  0.00    -0.191 OA 
HETATM    4  N   UNL     1     -11.353  12.482  67.591  1.00  0.00    -0.285 N  
HETATM    5  H   UNL     1     -11.613  12.777  68.533  1.00  0.00     0.000 HD 
ENDROOT
BRANCH   4   6
HETATM    6  C   UNL     1     -11.288  13.488  66.604  1.00  0.00    -0.322 A  
HETATM    7  C   UNL     1     -10.240  14.407  66.507  1.00  0.00    -0.276 A  
HETATM    8  C   UNL     1     -10.266  15.423  65.546  1.00  0.00    -0.411 A  
HETATM    9  C   UNL     1     -11.345  15.514  64.677  1.00  0.00    -0.357 A  
HETATM   10  C   UNL     1     -12.373  14.584  64.726  1.00  0.00    -0.403 A  
HETATM   11  O   UNL     1     -11.433  16.519  63.761  1.00  0.00    -1.615 OA 
HETATM   12  H   UNL     1     -12.171  16.581  63.166  1.00  0.00     0.000 HD 
HETATM   13  C   UNL     1     -12.342  13.564  65.683  1.00  0.00    -0.522 A  
ENDBRANCH   4   6
TORSDOF 1
ENDMDL
MODEL       11
REMARK 921   NORMALIZED FREE ENERGY PREDICTED BY IDOCK:   -4.68 KCAL/MOL
REMARK 922        TOTAL FREE ENERGY PREDICTED BY IDOCK:   -5.13 KCAL/MOL
REMARK 923 INTER-LIGAND FREE ENERGY PREDICTED BY IDOCK:   -5.07 KCAL/MOL
REMARK 924 INTRA-LIGAND FREE ENERGY PREDICTED BY IDOCK:   -0.06 KCAL/MOL
REMARK 927      BINDING AFFINITY PREDICTED BY RF-SCORE:    0.00 PKD
ROOT
HETATM    1  C   UNL     1     -11.911  14.581  65.094  1.00  0.00    -0.369 C  
HETATM    2  C   UNL     1     -11.283  15.942  64.945  1.00  0.00    -0.337 C  
HETATM    3  O   UNL     1     -11.454  16.602  63.926  1.00  0.00    -1.186 OA 
HETATM    4  N   UNL     1     -10.525  16.293  66.049  1.00  0.00    -0.336 N  
HETATM    5  H   UNL     1     -10.494  15.624  66.818  1.00  0.00     0.000 HD 
ENDROOT
BRANCH   4   6
HETATM    6  C   UNL     1      -9.789  17.486  66.214  1.00  0.00    -0.285 A  
HETATM    7  C   UNL     1      -8.397  17.524  66.336  1.00  0.00    -0.297 A  
HETATM    8  C   UNL     1      -7.732  18.733  66.564  1.00  0.00    -0.273 A  
HETATM    9  C   UNL     1      -8.465  19.908  66.666  1.00  0.00    -0.335 A  
HETATM   10  C   UNL     1      -9.843  19.899  66.501  1.00  0.00    -0.567 A  
HETATM   11  O   UNL     1      -7.860  21.098  66.938  1.00  0.00    -0.613 OA 
HETATM   12  H   UNL     1      -8.361  21.902  67.007  1.00  0.00     0.000 HD 
HETATM   13  C   UNL     1     -10.505  18.690  66.266  1.00  0.00    -0.468 A  
ENDBRANCH   4   6
TORSDOF 1
ENDMDL
MODEL       12
REMARK 921   NORMALIZED FREE ENERGY PREDICTED BY IDOCK:   -4.58 KCAL/MOL
REMARK 922        TOTAL FREE ENERGY PREDICTED BY IDOCK:   -5.02 KCAL/MOL
REMARK 923 INTER-LIGAND FREE ENERGY PREDICTED BY IDOCK:   -4.86 KCAL/MOL
REMARK 924 INTRA-LIGAND FREE ENERGY PREDICTED BY IDOCK:   -0.16 KCAL/MOL
REMARK 927      BINDING AFFINITY PREDICTED BY RF-SCORE:    0.00 PKD
ROOT
HETATM    1  C   UNL     1     -11.607  13.741  68.235  1.00  0.00    -0.373 C  
HETATM    2  C   UNL     1     -11.847  12.308  68.631  1.00  0.00    -0.305 C  
HETATM    3  O   UNL     1     -12.143  11.466  67.789  1.00  0.00    -0.637 OA 
HETATM    4  N   UNL     1     -11.708  12.110  69.994  1.00  0.00    -0.490 N  
HETATM    5  H   UNL     1     -11.450  12.923  70.553  1.00  0.00     0.000 HD 
ENDROOT
BRANCH   4   6
HETATM    6  C   UNL     1     -11.889  10.894  70.686  1.00  0.00    -0.352 A  
HETATM    7  C   UNL     1     -13.068  10.557  71.359  1.00  0.00    -0.509 A  
HETATM    8  C   UNL     1     -13.163   9.364  72.083  1.00  0.00    -0.541 A  
HETATM    9  C   UNL     1     -12.073   8.504  72.129  1.00  0.00    -0.383 A  
HETATM   10  C   UNL     1     -10.910   8.798  71.431  1.00  0.00    -0.359 A  
HETATM   11  O   UNL     1     -12.107   7.358  72.864  1.00  0.00    -0.542 OA 
HETATM   12  H   UNL     1     -11.361   6.770  72.896  1.00  0.00     0.000 HD 
HETATM   13  C   UNL     1     -10.820   9.988  70.702  1.00  0.00    -0.367 A  
ENDBRANCH   4   6
TORSDOF 1
ENDMDL
MODEL       13
REMARK 921   NORMALIZED FREE ENERGY PREDICTED BY IDOCK:   -4.54 KCAL/MOL
REMARK 922        TOTAL FREE ENERGY PREDICTED BY IDOCK:   -4.97 KCAL/MOL
REMARK 923 INTER-LIGAND FREE ENERGY PREDICTED BY IDOCK:   -4.85 KCAL/MOL
REMARK 924 INTRA-LIGAND FREE ENERGY PREDICTED BY IDOCK:   -0.12 KCAL/MOL
REMARK 927      BINDING AFFINITY PREDICTED BY RF-SCORE:    0.00 PKD
ROOT
HETATM    1  C   UNL     1      -9.047  11.087  67.710  1.00  0.00    -0.147 C  
HETATM    2  C   UNL     1     -10.351  10.685  68.347  1.00  0.00    -0.175 C  
HETATM    3  O   UNL     1     -11.372  10.584  67.676  1.00  0.00    -0.394 OA 
HETATM    4  N   UNL     1     -10.228  10.482  69.711  1.00  0.00    -0.409 N  
HETATM    5  H   UNL     1      -9.298  10.603  70.112  1.00  0.00     0.000 HD 
ENDROOT
BRANCH   4   6
HETATM    6  C   UNL     1     -11.263  10.123  70.601  1.00  0.00    -0.340 A  
HETATM    7  C   UNL     1     -12.334  10.963  70.918  1.00  0.00    -0.501 A  
HETATM    8  C   UNL     1     -13.293  10.576  71.859  1.00  0.00    -0.461 A  
HETATM    9  C   UNL     1     -13.180   9.339  72.481  1.00  0.00    -0.366 A  
HETATM   10  C   UNL     1     -12.150   8.471  72.147  1.00  0.00    -0.449 A  
HETATM   11  O   UNL     1     -14.064   8.945  73.440  1.00  0.00    -1.256 OA 
HETATM   12  H   UNL     1     -13.987   8.100  73.865  1.00  0.00     0.000 HD 
HETATM   13  C   UNL     1     -11.196   8.858  71.200  1.00  0.00    -0.352 A  
ENDBRANCH   4   6
TORSDOF 1
ENDMDL
MODEL       14
REMARK 921   NORMALIZED FREE ENERGY PREDICTED BY IDOCK:   -4.51 KCAL/MOL
REMARK 922        TOTAL FREE ENERGY PREDICTED BY IDOCK:   -4.95 KCAL/MOL
REMARK 923 INTER-LIGAND FREE ENERGY PREDICTED BY IDOCK:   -4.78 KCAL/MOL
REMARK 924 INTRA-LIGAND FREE ENERGY PREDICTED BY IDOCK:   -0.17 KCAL/MOL
REMARK 927      BINDING AFFINITY PREDICTED BY RF-SCORE:    0.00 PKD
ROOT
HETATM    1  C   UNL     1     -11.999  12.265  64.427  1.00  0.00    -0.473 C  
HETATM    2  C   UNL     1     -12.378  13.289  65.464  1.00  0.00    -0.480 C  
HETATM    3  O   UNL     1     -13.380  13.981  65.324  1.00  0.00    -0.741 OA 
HETATM    4  N   UNL     1     -11.474  13.334  66.512  1.00  0.00    -0.323 N  
HETATM    5  H   UNL     1     -10.693  12.679  66.474  1.00  0.00     0.000 HD 
ENDROOT
BRANCH   4   6
HETATM    6  C   UNL     1     -11.528  14.197  67.628  1.00  0.00    -0.338 A  
HETATM    7  C   UNL     1     -11.094  15.525  67.596  1.00  0.00    -0.311 A  
HETATM    8  C   UNL     1     -11.111  16.311  68.754  1.00  0.00    -0.355 A  
HETATM    9  C   UNL     1     -11.569  15.762  69.945  1.00  0.00    -0.351 A  
HETATM   10  C   UNL     1     -12.046  14.460  69.987  1.00  0.00    -0.401 A  
HETATM   11  O   UNL     1     -11.554  16.477  71.105  1.00  0.00    -0.612 OA 
HETATM   12  H   UNL     1     -11.867  16.102  71.919  1.00  0.00     0.000 HD 
HETATM   13  C   UNL     1     -12.035  13.679  68.827  1.00  0.00    -0.394 A  
ENDBRANCH   4   6
TORSDOF 1
ENDMDL
MODEL       15
REMARK 921   NORMALIZED FREE ENERGY PREDICTED BY IDOCK:   -4.48 KCAL/MOL
REMARK 922        TOTAL FREE ENERGY PREDICTED BY IDOCK:   -4.91 KCAL/MOL
REMARK 923 INTER-LIGAND FREE ENERGY PREDICTED BY IDOCK:   -4.75 KCAL/MOL
REMARK 924 INTRA-LIGAND FREE ENERGY PREDICTED BY IDOCK:   -0.16 KCAL/MOL
REMARK 927      BINDING AFFINITY PREDICTED BY RF-SCORE:    0.00 PKD
ROOT
HETATM    1  C   UNL     1     -11.970  15.616  69.452  1.00  0.00    -0.349 C  
HETATM    2  C   UNL     1     -11.338  14.943  68.261  1.00  0.00    -0.310 C  
HETATM    3  O   UNL     1     -10.127  14.997  68.080  1.00  0.00    -0.217 OA 
HETATM    4  N   UNL     1     -12.274  14.319  67.454  1.00  0.00    -0.604 N  
HETATM    5  H   UNL     1     -13.247  14.367  67.756  1.00  0.00     0.000 HD 
ENDROOT
BRANCH   4   6
HETATM    6  C   UNL     1     -12.014  13.624  66.253  1.00  0.00    -0.423 A  
HETATM    7  C   UNL     1     -12.204  14.179  64.984  1.00  0.00    -0.450 A  
HETATM    8  C   UNL     1     -11.991  13.416  63.831  1.00  0.00    -0.520 A  
HETATM    9  C   UNL     1     -11.583  12.094  63.952  1.00  0.00    -0.448 A  
HETATM   10  C   UNL     1     -11.344  11.539  65.201  1.00  0.00    -0.156 A  
HETATM   11  O   UNL     1     -11.414  11.302  62.856  1.00  0.00    -0.829 OA 
HETATM   12  H   UNL     1     -11.134  10.398  62.939  1.00  0.00     0.000 HD 
HETATM   13  C   UNL     1     -11.551  12.306  66.352  1.00  0.00    -0.445 A  
ENDBRANCH   4   6
TORSDOF 1
ENDMDL
MODEL       16
REMARK 921   NORMALIZED FREE ENERGY PREDICTED BY IDOCK:   -4.47 KCAL/MOL
REMARK 922        TOTAL FREE ENERGY PREDICTED BY IDOCK:   -4.90 KCAL/MOL
REMARK 923 INTER-LIGAND FREE ENERGY PREDICTED BY IDOCK:   -5.01 KCAL/MOL
REMARK 924 INTRA-LIGAND FREE ENERGY PREDICTED BY IDOCK:    0.10 KCAL/MOL
REMARK 927      BINDING AFFINITY PREDICTED BY RF-SCORE:    0.00 PKD
ROOT
HETATM    1  C   UNL     1     -10.305  10.138  69.501  1.00  0.00    -0.263 C  
HETATM    2  C   UNL     1     -11.177  10.817  68.477  1.00  0.00    -0.279 C  
HETATM    3  O   UNL     1     -12.374  10.982  68.684  1.00  0.00    -0.539 OA 
HETATM    4  N   UNL     1     -10.469  11.183  67.345  1.00  0.00    -0.209 N  
HETATM    5  H   UNL     1      -9.470  10.975  67.340  1.00  0.00     0.000 HD 
ENDROOT
BRANCH   4   6
HETATM    6  C   UNL     1     -10.993  11.813  66.196  1.00  0.00    -0.307 A  
HETATM    7  C   UNL     1     -10.733  11.381  64.893  1.00  0.00    -0.350 A  
HETATM    8  C   UNL     1     -11.229  12.087  63.792  1.00  0.00    -0.516 A  
HETATM    9  C   UNL     1     -11.992  13.229  64.000  1.00  0.00    -0.465 A  
HETATM   10  C   UNL     1     -12.301  13.648  65.287  1.00  0.00    -0.498 A  
HETATM   11  O   UNL     1     -12.451  13.974  62.956  1.00  0.00    -1.101 OA 
HETATM   12  H   UNL     1     -12.973  14.754  63.099  1.00  0.00     0.000 HD 
HETATM   13  C   UNL     1     -11.809  12.936  66.385  1.00  0.00    -0.478 A  
ENDBRANCH   4   6
TORSDOF 1
ENDMDL
MODEL       17
REMARK 921   NORMALIZED FREE ENERGY PREDICTED BY IDOCK:   -4.41 KCAL/MOL
REMARK 922        TOTAL FREE ENERGY PREDICTED BY IDOCK:   -4.84 KCAL/MOL
REMARK 923 INTER-LIGAND FREE ENERGY PREDICTED BY IDOCK:   -4.72 KCAL/MOL
REMARK 924 INTRA-LIGAND FREE ENERGY PREDICTED BY IDOCK:   -0.12 KCAL/MOL
REMARK 927      BINDING AFFINITY PREDICTED BY RF-SCORE:    0.00 PKD
ROOT
HETATM    1  C   UNL     1     -11.842  15.672  69.580  1.00  0.00    -0.377 C  
HETATM    2  C   UNL     1     -11.243  14.909  68.428  1.00  0.00    -0.292 C  
HETATM    3  O   UNL     1     -10.034  14.929  68.224  1.00  0.00    -0.214 OA 
HETATM    4  N   UNL     1     -12.203  14.248  67.681  1.00  0.00    -0.597 N  
HETATM    5  H   UNL     1     -13.170  14.333  67.995  1.00  0.00     0.000 HD 
ENDROOT
BRANCH   4   6
HETATM    6  C   UNL     1     -11.976  13.468  66.527  1.00  0.00    -0.413 A  
HETATM    7  C   UNL     1     -11.289  12.250  66.542  1.00  0.00    -0.403 A  
HETATM    8  C   UNL     1     -11.038  11.556  65.354  1.00  0.00    -0.250 A  
HETATM    9  C   UNL     1     -11.481  12.083  64.148  1.00  0.00    -0.383 A  
HETATM   10  C   UNL     1     -12.204  13.267  64.116  1.00  0.00    -0.465 A  
HETATM   11  O   UNL     1     -11.213  11.464  62.964  1.00  0.00    -0.821 OA 
HETATM   12  H   UNL     1     -11.516  11.825  62.139  1.00  0.00     0.000 HD 
HETATM   13  C   UNL     1     -12.460  13.956  65.306  1.00  0.00    -0.504 A  
ENDBRANCH   4   6
TORSDOF 1
ENDMDL
MODEL       18
REMARK 921   NORMALIZED FREE ENERGY PREDICTED BY IDOCK:   -4.41 KCAL/MOL
REMARK 922        TOTAL FREE ENERGY PREDICTED BY IDOCK:   -4.83 KCAL/MOL
REMARK 923 INTER-LIGAND FREE ENERGY PREDICTED BY IDOCK:   -4.71 KCAL/MOL
REMARK 924 INTRA-LIGAND FREE ENERGY PREDICTED BY IDOCK:   -0.12 KCAL/MOL
REMARK 927      BINDING AFFINITY PREDICTED BY RF-SCORE:    0.00 PKD
ROOT
HETATM    1  C   UNL     1     -12.152  11.996  63.481  1.00  0.00    -0.628 C  
HETATM    2  C   UNL     1     -12.115  13.372  64.092  1.00  0.00    -0.433 C  
HETATM    3  O   UNL     1     -12.660  14.320  63.537  1.00  0.00    -0.814 OA 
HETATM    4  N   UNL     1     -11.407  13.399  65.282  1.00  0.00    -0.293 N  
HETATM    5  H   UNL     1     -11.021  12.512  65.607  1.00  0.00     0.000 HD 
ENDROOT
BRANCH   4   6
HETATM    6  C   UNL     1     -11.167  14.532  66.088  1.00  0.00    -0.339 A  
HETATM    7  C   UNL     1     -10.363  15.604  65.691  1.00  0.00    -0.408 A  
HETATM    8  C   UNL     1     -10.109  16.669  66.562  1.00  0.00    -0.313 A  
HETATM    9  C   UNL     1     -10.667  16.660  67.833  1.00  0.00    -0.344 A  
HETATM   10  C   UNL     1     -11.505  15.627  68.230  1.00  0.00    -0.353 A  
HETATM   11  O   UNL     1     -10.404  17.652  68.729  1.00  0.00    -0.362 OA 
HETATM   12  H   UNL     1     -10.786  17.645  69.599  1.00  0.00     0.000 HD 
HETATM   13  C   UNL     1     -11.763  14.567  67.355  1.00  0.00    -0.425 A  
ENDBRANCH   4   6
TORSDOF 1
ENDMDL
MODEL       19
REMARK 921   NORMALIZED FREE ENERGY PREDICTED BY IDOCK:   -4.40 KCAL/MOL
REMARK 922        TOTAL FREE ENERGY PREDICTED BY IDOCK:   -4.83 KCAL/MOL
REMARK 923 INTER-LIGAND FREE ENERGY PREDICTED BY IDOCK:   -4.65 KCAL/MOL
REMARK 924 INTRA-LIGAND FREE ENERGY PREDICTED BY IDOCK:   -0.17 KCAL/MOL
REMARK 927      BINDING AFFINITY PREDICTED BY RF-SCORE:    0.00 PKD
ROOT
HETATM    1  C   UNL     1     -13.169  15.131  71.002  1.00  0.00    -0.510 C  
HETATM    2  C   UNL     1     -12.408  14.355  69.958  1.00  0.00    -0.336 C  
HETATM    3  O   UNL     1     -11.938  13.252  70.216  1.00  0.00    -0.333 OA 
HETATM    4  N   UNL     1     -12.315  15.041  68.759  1.00  0.00    -0.598 N  
HETATM    5  H   UNL     1     -12.772  15.952  68.714  1.00  0.00     0.000 HD 
ENDROOT
BRANCH   4   6
HETATM    6  C   UNL     1     -11.649  14.604  67.594  1.00  0.00    -0.361 A  
HETATM    7  C   UNL     1     -10.289  14.819  67.356  1.00  0.00    -0.242 A  
HETATM    8  C   UNL     1      -9.701  14.419  66.152  1.00  0.00    -0.335 A  
HETATM    9  C   UNL     1     -10.480  13.798  65.184  1.00  0.00    -0.384 A  
HETATM   10  C   UNL     1     -11.822  13.534  65.419  1.00  0.00    -0.379 A  
HETATM   11  O   UNL     1      -9.958  13.440  63.978  1.00  0.00    -0.764 OA 
HETATM   12  H   UNL     1     -10.491  13.015  63.316  1.00  0.00     0.000 HD 
HETATM   13  C   UNL     1     -12.406  13.928  66.627  1.00  0.00    -0.411 A  
ENDBRANCH   4   6
TORSDOF 1
ENDMDL
MODEL       20
REMARK 921   NORMALIZED FREE ENERGY PREDICTED BY IDOCK:   -4.39 KCAL/MOL
REMARK 922        TOTAL FREE ENERGY PREDICTED BY IDOCK:   -4.82 KCAL/MOL
REMARK 923 INTER-LIGAND FREE ENERGY PREDICTED BY IDOCK:   -4.69 KCAL/MOL
REMARK 924 INTRA-LIGAND FREE ENERGY PREDICTED BY IDOCK:   -0.13 KCAL/MOL
REMARK 927      BINDING AFFINITY PREDICTED BY RF-SCORE:    0.00 PKD
ROOT
HETATM    1  C   UNL     1     -11.919  12.851  63.363  1.00  0.00    -0.612 C  
HETATM    2  C   UNL     1     -11.993  14.074  64.240  1.00  0.00    -0.435 C  
HETATM    3  O   UNL     1     -12.730  15.010  63.950  1.00  0.00    -0.775 OA 
HETATM    4  N   UNL     1     -11.146  13.988  65.332  1.00  0.00    -0.309 N  
HETATM    5  H   UNL     1     -10.603  13.129  65.426  1.00  0.00     0.000 HD 
ENDROOT
BRANCH   4   6
HETATM    6  C   UNL     1     -10.961  14.970  66.327  1.00  0.00    -0.338 A  
HETATM    7  C   UNL     1     -11.469  14.859  67.625  1.00  0.00    -0.366 A  
HETATM    8  C   UNL     1     -11.307  15.898  68.548  1.00  0.00    -0.374 A  
HETATM    9  C   UNL     1     -10.631  17.050  68.168  1.00  0.00    -0.369 A  
HETATM   10  C   UNL     1     -10.079  17.161  66.900  1.00  0.00    -0.298 A  
HETATM   11  O   UNL     1     -10.497  18.105  69.020  1.00  0.00    -0.438 OA 
HETATM   12  H   UNL     1     -10.034  18.893  68.760  1.00  0.00     0.000 HD 
HETATM   13  C   UNL     1     -10.236  16.118  65.981  1.00  0.00    -0.374 A  
ENDBRANCH   4   6
TORSDOF 1
ENDMDL
MODEL       21
REMARK 921   NORMALIZED FREE ENERGY PREDICTED BY IDOCK:   -4.33 KCAL/MOL
REMARK 922        TOTAL FREE ENERGY PREDICTED BY IDOCK:   -4.76 KCAL/MOL
REMARK 923 INTER-LIGAND FREE ENERGY PREDICTED BY IDOCK:   -4.58 KCAL/MOL
REMARK 924 INTRA-LIGAND FREE ENERGY PREDICTED BY IDOCK:   -0.17 KCAL/MOL
REMARK 927      BINDING AFFINITY PREDICTED BY RF-SCORE:    0.00 PKD
ROOT
HETATM    1  C   UNL     1     -11.778  14.820  68.550  1.00  0.00    -0.347 C  
HETATM    2  C   UNL     1     -10.996  15.895  67.842  1.00  0.00    -0.327 C  
HETATM    3  O   UNL     1     -10.638  15.747  66.679  1.00  0.00    -0.306 OA 
HETATM    4  N   UNL     1     -10.747  16.986  68.658  1.00  0.00    -0.349 N  
HETATM    5  H   UNL     1     -11.125  16.948  69.605  1.00  0.00     0.000 HD 
ENDROOT
BRANCH   4   6
HETATM    6  C   UNL     1     -10.022  18.145  68.308  1.00  0.00    -0.369 A  
HETATM    7  C   UNL     1     -10.597  19.257  67.686  1.00  0.00    -0.553 A  
HETATM    8  C   UNL     1      -9.812  20.350  67.305  1.00  0.00    -0.597 A  
HETATM    9  C   UNL     1      -8.446  20.328  67.552  1.00  0.00    -0.311 A  
HETATM   10  C   UNL     1      -7.862  19.255  68.210  1.00  0.00    -0.354 A  
HETATM   11  O   UNL     1      -7.638  21.349  67.151  1.00  0.00    -0.789 OA 
HETATM   12  H   UNL     1      -6.703  21.335  67.320  1.00  0.00     0.000 HD 
HETATM   13  C   UNL     1      -8.651  18.167  68.597  1.00  0.00    -0.282 A  
ENDBRANCH   4   6
TORSDOF 1
ENDMDL
MODEL       22
REMARK 921   NORMALIZED FREE ENERGY PREDICTED BY IDOCK:   -4.32 KCAL/MOL
REMARK 922        TOTAL FREE ENERGY PREDICTED BY IDOCK:   -4.74 KCAL/MOL
REMARK 923 INTER-LIGAND FREE ENERGY PREDICTED BY IDOCK:   -5.01 KCAL/MOL
REMARK 924 INTRA-LIGAND FREE ENERGY PREDICTED BY IDOCK:    0.28 KCAL/MOL
REMARK 927      BINDING AFFINITY PREDICTED BY RF-SCORE:    0.00 PKD
ROOT
HETATM    1  C   UNL     1     -13.450  15.643  73.150  1.00  0.00    -0.620 C  
HETATM    2  C   UNL     1     -13.441  14.380  72.330  1.00  0.00    -0.462 C  
HETATM    3  O   UNL     1     -14.239  13.478  72.560  1.00  0.00    -0.734 OA 
HETATM    4  N   UNL     1     -12.452  14.389  71.362  1.00  0.00    -0.341 N  
HETATM    5  H   UNL     1     -11.875  15.229  71.302  1.00  0.00     0.000 HD 
ENDROOT
BRANCH   4   6
HETATM    6  C   UNL     1     -12.163  13.353  70.449  1.00  0.00    -0.345 A  
HETATM    7  C   UNL     1     -11.690  13.576  69.153  1.00  0.00    -0.374 A  
HETATM    8  C   UNL     1     -11.484  12.508  68.273  1.00  0.00    -0.355 A  
HETATM    9  C   UNL     1     -11.751  11.213  68.696  1.00  0.00    -0.320 A  
HETATM   10  C   UNL     1     -12.177  10.966  69.994  1.00  0.00    -0.422 A  
HETATM   11  O   UNL     1     -11.613  10.150  67.854  1.00  0.00    -0.658 OA 
HETATM   12  H   UNL     1     -11.795   9.264  68.144  1.00  0.00     0.000 HD 
HETATM   13  C   UNL     1     -12.374  12.034  70.874  1.00  0.00    -0.384 A  
ENDBRANCH   4   6
TORSDOF 1
ENDMDL
MODEL       23
REMARK 921   NORMALIZED FREE ENERGY PREDICTED BY IDOCK:   -4.31 KCAL/MOL
REMARK 922        TOTAL FREE ENERGY PREDICTED BY IDOCK:   -4.73 KCAL/MOL
REMARK 923 INTER-LIGAND FREE ENERGY PREDICTED BY IDOCK:   -4.56 KCAL/MOL
REMARK 924 INTRA-LIGAND FREE ENERGY PREDICTED BY IDOCK:   -0.17 KCAL/MOL
REMARK 927      BINDING AFFINITY PREDICTED BY RF-SCORE:    0.00 PKD
ROOT
HETATM    1  C   UNL     1     -12.017  15.324  69.480  1.00  0.00    -0.356 C  
HETATM    2  C   UNL     1     -11.946  14.177  68.507  1.00  0.00    -0.332 C  
HETATM    3  O   UNL     1     -12.011  13.017  68.899  1.00  0.00    -0.304 OA 
HETATM    4  N   UNL     1     -11.790  14.606  67.200  1.00  0.00    -0.397 N  
HETATM    5  H   UNL     1     -11.761  15.615  67.047  1.00  0.00     0.000 HD 
ENDROOT
BRANCH   4   6
HETATM    6  C   UNL     1     -11.667  13.786  66.058  1.00  0.00    -0.363 A  
HETATM    7  C   UNL     1     -12.760  13.285  65.347  1.00  0.00    -0.460 A  
HETATM    8  C   UNL     1     -12.573  12.422  64.261  1.00  0.00    -0.494 A  
HETATM    9  C   UNL     1     -11.285  12.066  63.886  1.00  0.00    -0.417 A  
HETATM   10  C   UNL     1     -10.184  12.589  64.550  1.00  0.00    -0.332 A  
HETATM   11  O   UNL     1     -11.061  11.189  62.868  1.00  0.00    -0.812 OA 
HETATM   12  H   UNL     1     -10.180  10.945  62.611  1.00  0.00     0.000 HD 
HETATM   13  C   UNL     1     -10.374  13.457  65.630  1.00  0.00    -0.295 A  
ENDBRANCH   4   6
TORSDOF 1
ENDMDL
MODEL       24
REMARK 921   NORMALIZED FREE ENERGY PREDICTED BY IDOCK:   -4.29 KCAL/MOL
REMARK 922        TOTAL FREE ENERGY PREDICTED BY IDOCK:   -4.71 KCAL/MOL
REMARK 923 INTER-LIGAND FREE ENERGY PREDICTED BY IDOCK:   -4.56 KCAL/MOL
REMARK 924 INTRA-LIGAND FREE ENERGY PREDICTED BY IDOCK:   -0.15 KCAL/MOL
REMARK 927      BINDING AFFINITY PREDICTED BY RF-SCORE:    0.00 PKD
ROOT
HETATM    1  C   UNL     1     -11.511  12.455  63.388  1.00  0.00    -0.526 C  
HETATM    2  C   UNL     1     -12.123  12.715  64.740  1.00  0.00    -0.436 C  
HETATM    3  O   UNL     1     -13.337  12.655  64.901  1.00  0.00    -0.741 OA 
HETATM    4  N   UNL     1     -11.171  13.026  65.696  1.00  0.00    -0.280 N  
HETATM    5  H   UNL     1     -10.197  13.025  65.392  1.00  0.00     0.000 HD 
ENDROOT
BRANCH   4   6
HETATM    6  C   UNL     1     -11.415  13.345  67.049  1.00  0.00    -0.337 A  
HETATM    7  C   UNL     1     -11.390  14.649  67.550  1.00  0.00    -0.361 A  
HETATM    8  C   UNL     1     -11.575  14.894  68.915  1.00  0.00    -0.339 A  
HETATM    9  C   UNL     1     -11.790  13.828  69.778  1.00  0.00    -0.331 A  
HETATM   10  C   UNL     1     -11.864  12.529  69.293  1.00  0.00    -0.360 A  
HETATM   11  O   UNL     1     -11.924  14.019  71.120  1.00  0.00    -0.437 OA 
HETATM   12  H   UNL     1     -12.071  13.289  71.710  1.00  0.00     0.000 HD 
HETATM   13  C   UNL     1     -11.686  12.288  67.927  1.00  0.00    -0.410 A  
ENDBRANCH   4   6
TORSDOF 1
ENDMDL
MODEL       25
REMARK 921   NORMALIZED FREE ENERGY PREDICTED BY IDOCK:   -4.28 KCAL/MOL
REMARK 922        TOTAL FREE ENERGY PREDICTED BY IDOCK:   -4.70 KCAL/MOL
REMARK 923 INTER-LIGAND FREE ENERGY PREDICTED BY IDOCK:   -4.63 KCAL/MOL
REMARK 924 INTRA-LIGAND FREE ENERGY PREDICTED BY IDOCK:   -0.07 KCAL/MOL
REMARK 927      BINDING AFFINITY PREDICTED BY RF-SCORE:    0.00 PKD
ROOT
HETATM    1  C   UNL     1     -10.309  19.063  65.991  1.00  0.00    -0.512 C  
HETATM    2  C   UNL     1     -10.650  17.615  65.757  1.00  0.00    -0.177 C  
HETATM    3  O   UNL     1     -11.052  17.235  64.663  1.00  0.00    -1.052 OA 
HETATM    4  N   UNL     1     -10.470  16.844  66.892  1.00  0.00    -0.300 N  
HETATM    5  H   UNL     1     -10.121  17.322  67.723  1.00  0.00     0.000 HD 
ENDROOT
BRANCH   4   6
HETATM    6  C   UNL     1     -10.722  15.460  67.014  1.00  0.00    -0.321 A  
HETATM    7  C   UNL     1     -10.100  14.491  66.222  1.00  0.00    -0.308 A  
HETATM    8  C   UNL     1     -10.442  13.140  66.345  1.00  0.00    -0.287 A  
HETATM    9  C   UNL     1     -11.407  12.761  67.269  1.00  0.00    -0.314 A  
HETATM   10  C   UNL     1     -12.002  13.702  68.097  1.00  0.00    -0.390 A  
HETATM   11  O   UNL     1     -11.805  11.463  67.385  1.00  0.00    -0.609 OA 
HETATM   12  H   UNL     1     -12.465  11.203  68.017  1.00  0.00     0.000 HD 
HETATM   13  C   UNL     1     -11.654  15.051  67.976  1.00  0.00    -0.356 A  
ENDBRANCH   4   6
TORSDOF 1
ENDMDL
MODEL       26
REMARK 921   NORMALIZED FREE ENERGY PREDICTED BY IDOCK:   -4.23 KCAL/MOL
REMARK 922        TOTAL FREE ENERGY PREDICTED BY IDOCK:   -4.64 KCAL/MOL
REMARK 923 INTER-LIGAND FREE ENERGY PREDICTED BY IDOCK:   -4.47 KCAL/MOL
REMARK 924 INTRA-LIGAND FREE ENERGY PREDICTED BY IDOCK:   -0.17 KCAL/MOL
REMARK 927      BINDING AFFINITY PREDICTED BY RF-SCORE:    0.00 PKD
ROOT
HETATM    1  C   UNL     1      -8.524  18.912  67.138  1.00  0.00    -0.290 C  
HETATM    2  C   UNL     1      -9.798  18.139  66.920  1.00  0.00    -0.330 C  
HETATM    3  O   UNL     1     -10.883  18.619  67.230  1.00  0.00    -0.426 OA 
HETATM    4  N   UNL     1      -9.566  16.889  66.373  1.00  0.00    -0.271 N  
HETATM    5  H   UNL     1      -8.596  16.648  66.169  1.00  0.00     0.000 HD 
ENDROOT
BRANCH   4   6
HETATM    6  C   UNL     1     -10.540  15.914  66.070  1.00  0.00    -0.323 A  
HETATM    7  C   UNL     1     -11.058  15.022  67.014  1.00  0.00    -0.334 A  
HETATM    8  C   UNL     1     -11.974  14.034  66.637  1.00  0.00    -0.473 A  
HETATM    9  C   UNL     1     -12.374  13.943  65.310  1.00  0.00    -0.464 A  
HETATM   10  C   UNL     1     -11.907  14.847  64.367  1.00  0.00    -0.372 A  
HETATM   11  O   UNL     1     -13.224  12.964  64.893  1.00  0.00    -0.782 OA 
HETATM   12  H   UNL     1     -13.498  12.902  63.985  1.00  0.00     0.000 HD 
HETATM   13  C   UNL     1     -10.997  15.839  64.747  1.00  0.00    -0.410 A  
ENDBRANCH   4   6
TORSDOF 1
ENDMDL
MODEL       27
REMARK 921   NORMALIZED FREE ENERGY PREDICTED BY IDOCK:   -4.22 KCAL/MOL
REMARK 922        TOTAL FREE ENERGY PREDICTED BY IDOCK:   -4.64 KCAL/MOL
REMARK 923 INTER-LIGAND FREE ENERGY PREDICTED BY IDOCK:   -4.70 KCAL/MOL
REMARK 924 INTRA-LIGAND FREE ENERGY PREDICTED BY IDOCK:    0.06 KCAL/MOL
REMARK 927      BINDING AFFINITY PREDICTED BY RF-SCORE:    0.00 PKD
ROOT
HETATM    1  C   UNL     1     -13.239   8.799  71.517  1.00  0.00    -0.356 C  
HETATM    2  C   UNL     1     -12.537  10.124  71.375  1.00  0.00    -0.422 C  
HETATM    3  O   UNL     1     -11.339  10.176  71.120  1.00  0.00    -0.346 OA 
HETATM    4  N   UNL     1     -13.391  11.195  71.583  1.00  0.00    -0.305 N  
HETATM    5  H   UNL     1     -14.367  10.973  71.781  1.00  0.00     0.000 HD 
ENDROOT
BRANCH   4   6
HETATM    6  C   UNL     1     -13.044  12.562  71.547  1.00  0.00    -0.277 A  
HETATM    7  C   UNL     1     -12.216  13.122  70.570  1.00  0.00    -0.405 A  
HETATM    8  C   UNL     1     -11.855  14.473  70.627  1.00  0.00    -0.367 A  
HETATM    9  C   UNL     1     -12.330  15.264  71.665  1.00  0.00    -0.363 A  
HETATM   10  C   UNL     1     -13.191  14.738  72.619  1.00  0.00    -0.548 A  
HETATM   11  O   UNL     1     -11.962  16.570  71.785  1.00  0.00    -0.651 OA 
HETATM   12  H   UNL     1     -12.287  17.111  72.495  1.00  0.00     0.000 HD 
HETATM   13  C   UNL     1     -13.555  13.390  72.556  1.00  0.00    -0.659 A  
ENDBRANCH   4   6
TORSDOF 1
ENDMDL
MODEL       28
REMARK 921   NORMALIZED FREE ENERGY PREDICTED BY IDOCK:   -4.21 KCAL/MOL
REMARK 922        TOTAL FREE ENERGY PREDICTED BY IDOCK:   -4.63 KCAL/MOL
REMARK 923 INTER-LIGAND FREE ENERGY PREDICTED BY IDOCK:   -4.46 KCAL/MOL
REMARK 924 INTRA-LIGAND FREE ENERGY PREDICTED BY IDOCK:   -0.17 KCAL/MOL
REMARK 927      BINDING AFFINITY PREDICTED BY RF-SCORE:    0.00 PKD
ROOT
HETATM    1  C   UNL     1     -12.534   7.056  71.368  1.00  0.00    -0.426 C  
HETATM    2  C   UNL     1     -12.083   8.475  71.591  1.00  0.00    -0.321 C  
HETATM    3  O   UNL     1     -11.107   8.720  72.291  1.00  0.00    -0.359 OA 
HETATM    4  N   UNL     1     -12.894   9.391  70.943  1.00  0.00    -0.523 N  
HETATM    5  H   UNL     1     -13.667   9.014  70.393  1.00  0.00     0.000 HD 
ENDROOT
BRANCH   4   6
HETATM    6  C   UNL     1     -12.759  10.796  70.970  1.00  0.00    -0.415 A  
HETATM    7  C   UNL     1     -13.342  11.608  71.946  1.00  0.00    -0.403 A  
HETATM    8  C   UNL     1     -13.226  13.001  71.881  1.00  0.00    -0.527 A  
HETATM    9  C   UNL     1     -12.520  13.579  70.834  1.00  0.00    -0.369 A  
HETATM   10  C   UNL     1     -11.895  12.788  69.880  1.00  0.00    -0.371 A  
HETATM   11  O   UNL     1     -12.427  14.932  70.705  1.00  0.00    -0.309 OA 
HETATM   12  H   UNL     1     -11.944  15.328  69.989  1.00  0.00     0.000 HD 
HETATM   13  C   UNL     1     -12.007  11.396  69.952  1.00  0.00    -0.434 A  
ENDBRANCH   4   6
TORSDOF 1
ENDMDL
MODEL       29
REMARK 921   NORMALIZED FREE ENERGY PREDICTED BY IDOCK:   -4.21 KCAL/MOL
REMARK 922        TOTAL FREE ENERGY PREDICTED BY IDOCK:   -4.62 KCAL/MOL
REMARK 923 INTER-LIGAND FREE ENERGY PREDICTED BY IDOCK:   -4.45 KCAL/MOL
REMARK 924 INTRA-LIGAND FREE ENERGY PREDICTED BY IDOCK:   -0.17 KCAL/MOL
REMARK 927      BINDING AFFINITY PREDICTED BY RF-SCORE:    0.00 PKD
ROOT
HETATM    1  C   UNL     1     -12.158   6.930  71.484  1.00  0.00    -0.401 C  
HETATM    2  C   UNL     1     -11.792   8.385  71.607  1.00  0.00    -0.304 C  
HETATM    3  O   UNL     1     -10.807   8.731  72.250  1.00  0.00    -0.352 OA 
HETATM    4  N   UNL     1     -12.687   9.209  70.946  1.00  0.00    -0.508 N  
HETATM    5  H   UNL     1     -13.453   8.753  70.451  1.00  0.00     0.000 HD 
ENDROOT
BRANCH   4   6
HETATM    6  C   UNL     1     -12.642  10.619  70.888  1.00  0.00    -0.407 A  
HETATM    7  C   UNL     1     -12.009  11.329  69.865  1.00  0.00    -0.440 A  
HETATM    8  C   UNL     1     -11.943  12.726  69.899  1.00  0.00    -0.368 A  
HETATM    9  C   UNL     1     -12.517  13.412  70.962  1.00  0.00    -0.353 A  
HETATM   10  C   UNL     1     -13.190  12.728  71.964  1.00  0.00    -0.538 A  
HETATM   11  O   UNL     1     -12.430  14.768  71.059  1.00  0.00    -0.288 OA 
HETATM   12  H   UNL     1     -12.822  15.237  71.786  1.00  0.00     0.000 HD 
HETATM   13  C   UNL     1     -13.261  11.332  71.924  1.00  0.00    -0.491 A  
ENDBRANCH   4   6
TORSDOF 1
ENDMDL
MODEL       30
REMARK 921   NORMALIZED FREE ENERGY PREDICTED BY IDOCK:   -4.18 KCAL/MOL
REMARK 922        TOTAL FREE ENERGY PREDICTED BY IDOCK:   -4.59 KCAL/MOL
REMARK 923 INTER-LIGAND FREE ENERGY PREDICTED BY IDOCK:   -4.43 KCAL/MOL
REMARK 924 INTRA-LIGAND FREE ENERGY PREDICTED BY IDOCK:   -0.16 KCAL/MOL
REMARK 927      BINDING AFFINITY PREDICTED BY RF-SCORE:    0.00 PKD
ROOT
HETATM    1  C   UNL     1     -13.933  15.451  72.320  1.00  0.00    -0.661 C  
HETATM    2  C   UNL     1     -12.672  15.368  71.500  1.00  0.00    -0.411 C  
HETATM    3  O   UNL     1     -11.579  15.593  72.006  1.00  0.00    -0.402 OA 
HETATM    4  N   UNL     1     -12.927  15.042  70.178  1.00  0.00    -0.630 N  
HETATM    5  H   UNL     1     -13.902  14.881  69.924  1.00  0.00     0.000 HD 
ENDROOT
BRANCH   4   6
HETATM    6  C   UNL     1     -11.971  14.910  69.149  1.00  0.00    -0.278 A  
HETATM    7  C   UNL     1     -11.390  15.998  68.492  1.00  0.00    -0.382 A  
HETATM    8  C   UNL     1     -10.497  15.801  67.433  1.00  0.00    -0.297 A  
HETATM    9  C   UNL     1     -10.182  14.508  67.036  1.00  0.00    -0.262 A  
HETATM   10  C   UNL     1     -10.712  13.414  67.706  1.00  0.00    -0.259 A  
HETATM   11  O   UNL     1      -9.357  14.274  65.978  1.00  0.00    -0.488 OA 
HETATM   12  H   UNL     1      -9.141  13.389  65.707  1.00  0.00     0.000 HD 
HETATM   13  C   UNL     1     -11.599  13.614  68.768  1.00  0.00    -0.359 A  
ENDBRANCH   4   6
TORSDOF 1
ENDMDL
MODEL       31
REMARK 921   NORMALIZED FREE ENERGY PREDICTED BY IDOCK:   -4.12 KCAL/MOL
REMARK 922        TOTAL FREE ENERGY PREDICTED BY IDOCK:   -4.53 KCAL/MOL
REMARK 923 INTER-LIGAND FREE ENERGY PREDICTED BY IDOCK:   -4.37 KCAL/MOL
REMARK 924 INTRA-LIGAND FREE ENERGY PREDICTED BY IDOCK:   -0.16 KCAL/MOL
REMARK 927      BINDING AFFINITY PREDICTED BY RF-SCORE:    0.00 PKD
ROOT
HETATM    1  C   UNL     1      -7.561   9.474  68.974  1.00  0.00    -0.075 C  
HETATM    2  C   UNL     1      -8.523   9.435  70.132  1.00  0.00    -0.205 C  
HETATM    3  O   UNL     1      -8.113   9.380  71.286  1.00  0.00    -0.319 OA 
HETATM    4  N   UNL     1      -9.844   9.452  69.718  1.00  0.00    -0.188 N  
HETATM    5  H   UNL     1     -10.011   9.506  68.712  1.00  0.00     0.000 HD 
ENDROOT
BRANCH   4   6
HETATM    6  C   UNL     1     -10.984   9.400  70.549  1.00  0.00    -0.274 A  
HETATM    7  C   UNL     1     -11.723  10.529  70.915  1.00  0.00    -0.431 A  
HETATM    8  C   UNL     1     -12.804  10.421  71.796  1.00  0.00    -0.561 A  
HETATM    9  C   UNL     1     -13.147   9.176  72.308  1.00  0.00    -0.438 A  
HETATM   10  C   UNL     1     -12.455   8.037  71.921  1.00  0.00    -0.364 A  
HETATM   11  O   UNL     1     -14.160   9.035  73.208  1.00  0.00    -1.218 OA 
HETATM   12  H   UNL     1     -14.395   8.184  73.558  1.00  0.00     0.000 HD 
HETATM   13  C   UNL     1     -11.379   8.147  71.035  1.00  0.00    -0.293 A  
ENDBRANCH   4   6
TORSDOF 1
ENDMDL
MODEL       32
REMARK 921   NORMALIZED FREE ENERGY PREDICTED BY IDOCK:   -4.11 KCAL/MOL
REMARK 922        TOTAL FREE ENERGY PREDICTED BY IDOCK:   -4.52 KCAL/MOL
REMARK 923 INTER-LIGAND FREE ENERGY PREDICTED BY IDOCK:   -4.37 KCAL/MOL
REMARK 924 INTRA-LIGAND FREE ENERGY PREDICTED BY IDOCK:   -0.14 KCAL/MOL
REMARK 927      BINDING AFFINITY PREDICTED BY RF-SCORE:    0.00 PKD
ROOT
HETATM    1  C   UNL     1      -9.533  11.256  62.841  1.00  0.00    -0.385 C  
HETATM    2  C   UNL     1     -10.461  12.142  63.630  1.00  0.00    -0.460 C  
HETATM    3  O   UNL     1     -11.590  12.389  63.220  1.00  0.00    -0.449 OA 
HETATM    4  N   UNL     1      -9.876  12.613  64.793  1.00  0.00    -0.505 N  
HETATM    5  H   UNL     1      -8.923  12.303  64.986  1.00  0.00     0.000 HD 
ENDROOT
BRANCH   4   6
HETATM    6  C   UNL     1     -10.466  13.481  65.736  1.00  0.00    -0.291 A  
HETATM    7  C   UNL     1     -10.157  14.841  65.832  1.00  0.00    -0.343 A  
HETATM    8  C   UNL     1     -10.728  15.635  66.832  1.00  0.00    -0.307 A  
HETATM    9  C   UNL     1     -11.615  15.064  67.735  1.00  0.00    -0.319 A  
HETATM   10  C   UNL     1     -11.970  13.727  67.628  1.00  0.00    -0.392 A  
HETATM   11  O   UNL     1     -12.153  15.790  68.754  1.00  0.00    -0.559 OA 
HETATM   12  H   UNL     1     -12.760  15.400  69.372  1.00  0.00     0.000 HD 
HETATM   13  C   UNL     1     -11.404  12.937  66.623  1.00  0.00    -0.361 A  
ENDBRANCH   4   6
TORSDOF 1
ENDMDL
MODEL       33
REMARK 921   NORMALIZED FREE ENERGY PREDICTED BY IDOCK:   -4.08 KCAL/MOL
REMARK 922        TOTAL FREE ENERGY PREDICTED BY IDOCK:   -4.49 KCAL/MOL
REMARK 923 INTER-LIGAND FREE ENERGY PREDICTED BY IDOCK:   -4.31 KCAL/MOL
REMARK 924 INTRA-LIGAND FREE ENERGY PREDICTED BY IDOCK:   -0.17 KCAL/MOL
REMARK 927      BINDING AFFINITY PREDICTED BY RF-SCORE:    0.00 PKD
ROOT
HETATM    1  C   UNL     1      -9.067  10.763  62.350  1.00  0.00    -0.332 C  
HETATM    2  C   UNL     1      -9.675  11.106  63.685  1.00  0.00    -0.317 C  
HETATM    3  O   UNL     1      -9.905  10.230  64.512  1.00  0.00    -0.318 OA 
HETATM    4  N   UNL     1      -9.930  12.460  63.813  1.00  0.00    -0.585 N  
HETATM    5  H   UNL     1      -9.670  13.054  63.026  1.00  0.00     0.000 HD 
ENDROOT
BRANCH   4   6
HETATM    6  C   UNL     1     -10.516  13.101  64.926  1.00  0.00    -0.351 A  
HETATM    7  C   UNL     1      -9.789  13.534  66.038  1.00  0.00    -0.277 A  
HETATM    8  C   UNL     1     -10.436  14.103  67.139  1.00  0.00    -0.270 A  
HETATM    9  C   UNL     1     -11.818  14.241  67.123  1.00  0.00    -0.425 A  
HETATM   10  C   UNL     1     -12.554  13.859  66.011  1.00  0.00    -0.467 A  
HETATM   11  O   UNL     1     -12.492  14.742  68.196  1.00  0.00    -0.574 OA 
HETATM   12  H   UNL     1     -13.437  14.836  68.185  1.00  0.00     0.000 HD 
HETATM   13  C   UNL     1     -11.904  13.297  64.908  1.00  0.00    -0.398 A  
ENDBRANCH   4   6
TORSDOF 1
ENDMDL
MODEL       34
REMARK 921   NORMALIZED FREE ENERGY PREDICTED BY IDOCK:   -4.02 KCAL/MOL
REMARK 922        TOTAL FREE ENERGY PREDICTED BY IDOCK:   -4.42 KCAL/MOL
REMARK 923 INTER-LIGAND FREE ENERGY PREDICTED BY IDOCK:   -4.33 KCAL/MOL
REMARK 924 INTRA-LIGAND FREE ENERGY PREDICTED BY IDOCK:   -0.09 KCAL/MOL
REMARK 927      BINDING AFFINITY PREDICTED BY RF-SCORE:    0.00 PKD
ROOT
HETATM    1  C   UNL     1      -9.636  17.009  68.930  1.00  0.00    -0.248 C  
HETATM    2  C   UNL     1     -10.679  16.184  68.223  1.00  0.00    -0.307 C  
HETATM    3  O   UNL     1     -11.804  16.060  68.694  1.00  0.00    -0.367 OA 
HETATM    4  N   UNL     1     -10.197  15.617  67.056  1.00  0.00    -0.268 N  
HETATM    5  H   UNL     1      -9.231  15.830  66.806  1.00  0.00     0.000 HD 
ENDROOT
BRANCH   4   6
HETATM    6  C   UNL     1     -10.910  14.773  66.178  1.00  0.00    -0.321 A  
HETATM    7  C   UNL     1     -11.283  15.145  64.884  1.00  0.00    -0.424 A  
HETATM    8  C   UNL     1     -12.047  14.287  64.085  1.00  0.00    -0.423 A  
HETATM    9  C   UNL     1     -12.434  13.051  64.586  1.00  0.00    -0.400 A  
HETATM   10  C   UNL     1     -12.034  12.643  65.851  1.00  0.00    -0.497 A  
HETATM   11  O   UNL     1     -13.220  12.207  63.861  1.00  0.00    -0.748 OA 
HETATM   12  H   UNL     1     -13.484  11.362  64.203  1.00  0.00     0.000 HD 
HETATM   13  C   UNL     1     -11.264  13.500  66.645  1.00  0.00    -0.328 A  
ENDBRANCH   4   6
TORSDOF 1
ENDMDL
MODEL       35
REMARK 921   NORMALIZED FREE ENERGY PREDICTED BY IDOCK:   -4.01 KCAL/MOL
REMARK 922        TOTAL FREE ENERGY PREDICTED BY IDOCK:   -4.41 KCAL/MOL
REMARK 923 INTER-LIGAND FREE ENERGY PREDICTED BY IDOCK:   -4.24 KCAL/MOL
REMARK 924 INTRA-LIGAND FREE ENERGY PREDICTED BY IDOCK:   -0.17 KCAL/MOL
REMARK 927      BINDING AFFINITY PREDICTED BY RF-SCORE:    0.00 PKD
ROOT
HETATM    1  C   UNL     1     -12.900  14.832  71.301  1.00  0.00    -0.408 C  
HETATM    2  C   UNL     1     -12.289  14.112  70.128  1.00  0.00    -0.351 C  
HETATM    3  O   UNL     1     -11.973  12.930  70.214  1.00  0.00    -0.341 OA 
HETATM    4  N   UNL     1     -12.136  14.937  69.027  1.00  0.00    -0.533 N  
HETATM    5  H   UNL     1     -12.460  15.899  69.125  1.00  0.00     0.000 HD 
ENDROOT
BRANCH   4   6
HETATM    6  C   UNL     1     -11.576  14.578  67.783  1.00  0.00    -0.365 A  
HETATM    7  C   UNL     1     -12.320  14.043  66.727  1.00  0.00    -0.368 A  
HETATM    8  C   UNL     1     -11.695  13.645  65.541  1.00  0.00    -0.352 A  
HETATM    9  C   UNL     1     -10.319  13.788  65.412  1.00  0.00    -0.333 A  
HETATM   10  C   UNL     1      -9.569  14.359  66.430  1.00  0.00    -0.320 A  
HETATM   11  O   UNL     1      -9.665  13.366  64.294  1.00  0.00    -0.638 OA 
HETATM   12  H   UNL     1      -8.725  13.464  64.205  1.00  0.00     0.000 HD 
HETATM   13  C   UNL     1     -10.197  14.763  67.612  1.00  0.00    -0.232 A  
ENDBRANCH   4   6
TORSDOF 1
ENDMDL
MODEL       36
REMARK 921   NORMALIZED FREE ENERGY PREDICTED BY IDOCK:   -3.95 KCAL/MOL
REMARK 922        TOTAL FREE ENERGY PREDICTED BY IDOCK:   -4.35 KCAL/MOL
REMARK 923 INTER-LIGAND FREE ENERGY PREDICTED BY IDOCK:   -4.19 KCAL/MOL
REMARK 924 INTRA-LIGAND FREE ENERGY PREDICTED BY IDOCK:   -0.16 KCAL/MOL
REMARK 927      BINDING AFFINITY PREDICTED BY RF-SCORE:    0.00 PKD
ROOT
HETATM    1  C   UNL     1     -10.138   4.759  70.010  1.00  0.00    -0.308 C  
HETATM    2  C   UNL     1     -10.931   6.033  69.884  1.00  0.00    -0.388 C  
HETATM    3  O   UNL     1     -11.472   6.333  68.826  1.00  0.00    -0.294 OA 
HETATM    4  N   UNL     1     -10.938   6.765  71.059  1.00  0.00    -0.245 N  
HETATM    5  H   UNL     1     -10.439   6.365  71.854  1.00  0.00     0.000 HD 
ENDROOT
BRANCH   4   6
HETATM    6  C   UNL     1     -11.566   8.012  71.266  1.00  0.00    -0.276 A  
HETATM    7  C   UNL     1     -11.067   9.219  70.766  1.00  0.00    -0.349 A  
HETATM    8  C   UNL     1     -11.700  10.431  71.061  1.00  0.00    -0.430 A  
HETATM    9  C   UNL     1     -12.839  10.432  71.856  1.00  0.00    -0.415 A  
HETATM   10  C   UNL     1     -13.376   9.241  72.324  1.00  0.00    -0.547 A  
HETATM   11  O   UNL     1     -13.455  11.594  72.209  1.00  0.00    -0.610 OA 
HETATM   12  H   UNL     1     -14.234  11.595  72.752  1.00  0.00     0.000 HD 
HETATM   13  C   UNL     1     -12.745   8.029  72.022  1.00  0.00    -0.331 A  
ENDBRANCH   4   6
TORSDOF 1
ENDMDL
MODEL       37
REMARK 921   NORMALIZED FREE ENERGY PREDICTED BY IDOCK:   -3.94 KCAL/MOL
REMARK 922        TOTAL FREE ENERGY PREDICTED BY IDOCK:   -4.34 KCAL/MOL
REMARK 923 INTER-LIGAND FREE ENERGY PREDICTED BY IDOCK:   -4.20 KCAL/MOL
REMARK 924 INTRA-LIGAND FREE ENERGY PREDICTED BY IDOCK:   -0.14 KCAL/MOL
REMARK 927      BINDING AFFINITY PREDICTED BY RF-SCORE:    0.00 PKD
ROOT
HETATM    1  C   UNL     1     -11.192   4.813  73.224  1.00  0.00    -0.421 C  
HETATM    2  C   UNL     1     -11.063   6.311  73.128  1.00  0.00    -0.171 C  
HETATM    3  O   UNL     1     -10.277   6.920  73.845  1.00  0.00    -0.320 OA 
HETATM    4  N   UNL     1     -11.922   6.852  72.186  1.00  0.00    -0.401 N  
HETATM    5  H   UNL     1     -12.509   6.197  71.669  1.00  0.00     0.000 HD 
ENDROOT
BRANCH   4   6
HETATM    6  C   UNL     1     -12.065   8.220  71.871  1.00  0.00    -0.332 A  
HETATM    7  C   UNL     1     -13.143   9.000  72.297  1.00  0.00    -0.508 A  
HETATM    8  C   UNL     1     -13.263  10.335  71.896  1.00  0.00    -0.550 A  
HETATM    9  C   UNL     1     -12.295  10.889  71.069  1.00  0.00    -0.393 A  
HETATM   10  C   UNL     1     -11.193  10.145  70.672  1.00  0.00    -0.418 A  
HETATM   11  O   UNL     1     -12.400  12.169  70.614  1.00  0.00    -0.357 OA 
HETATM   12  H   UNL     1     -11.739  12.549  70.048  1.00  0.00     0.000 HD 
HETATM   13  C   UNL     1     -11.072   8.813  71.079  1.00  0.00    -0.328 A  
ENDBRANCH   4   6
TORSDOF 1
ENDMDL
MODEL       38
REMARK 921   NORMALIZED FREE ENERGY PREDICTED BY IDOCK:   -3.93 KCAL/MOL
REMARK 922        TOTAL FREE ENERGY PREDICTED BY IDOCK:   -4.33 KCAL/MOL
REMARK 923 INTER-LIGAND FREE ENERGY PREDICTED BY IDOCK:   -4.19 KCAL/MOL
REMARK 924 INTRA-LIGAND FREE ENERGY PREDICTED BY IDOCK:   -0.15 KCAL/MOL
REMARK 927      BINDING AFFINITY PREDICTED BY RF-SCORE:    0.00 PKD
ROOT
HETATM    1  C   UNL     1     -11.290   8.609  72.182  1.00  0.00    -0.434 C  
HETATM    2  C   UNL     1     -12.021   9.599  71.313  1.00  0.00    -0.380 C  
HETATM    3  O   UNL     1     -13.247   9.629  71.292  1.00  0.00    -0.366 OA 
HETATM    4  N   UNL     1     -11.156  10.396  70.583  1.00  0.00    -0.406 N  
HETATM    5  H   UNL     1     -10.157  10.242  70.726  1.00  0.00     0.000 HD 
ENDROOT
BRANCH   4   6
HETATM    6  C   UNL     1     -11.519  11.401  69.661  1.00  0.00    -0.309 A  
HETATM    7  C   UNL     1     -11.475  11.228  68.275  1.00  0.00    -0.378 A  
HETATM    8  C   UNL     1     -11.785  12.284  67.412  1.00  0.00    -0.405 A  
HETATM    9  C   UNL     1     -12.143  13.517  67.942  1.00  0.00    -0.269 A  
HETATM   10  C   UNL     1     -12.237  13.696  69.315  1.00  0.00    -0.283 A  
HETATM   11  O   UNL     1     -12.403  14.585  67.137  1.00  0.00    -0.582 OA 
HETATM   12  H   UNL     1     -12.648  15.428  67.499  1.00  0.00     0.000 HD 
HETATM   13  C   UNL     1     -11.934  12.637  70.175  1.00  0.00    -0.375 A  
ENDBRANCH   4   6
TORSDOF 1
ENDMDL
MODEL       39
REMARK 921   NORMALIZED FREE ENERGY PREDICTED BY IDOCK:   -3.93 KCAL/MOL
REMARK 922        TOTAL FREE ENERGY PREDICTED BY IDOCK:   -4.33 KCAL/MOL
REMARK 923 INTER-LIGAND FREE ENERGY PREDICTED BY IDOCK:   -4.29 KCAL/MOL
REMARK 924 INTRA-LIGAND FREE ENERGY PREDICTED BY IDOCK:   -0.04 KCAL/MOL
REMARK 927      BINDING AFFINITY PREDICTED BY RF-SCORE:    0.00 PKD
ROOT
HETATM    1  C   UNL     1      -7.735   8.374  64.420  1.00  0.00    -0.133 C  
HETATM    2  C   UNL     1      -8.339   9.673  64.883  1.00  0.00    -0.148 C  
HETATM    3  O   UNL     1      -7.702  10.443  65.593  1.00  0.00    -0.143 OA 
HETATM    4  N   UNL     1      -9.637   9.840  64.428  1.00  0.00    -0.424 N  
HETATM    5  H   UNL     1     -10.016   9.099  63.837  1.00  0.00     0.000 HD 
ENDROOT
BRANCH   4   6
HETATM    6  C   UNL     1     -10.486  10.932  64.703  1.00  0.00    -0.314 A  
HETATM    7  C   UNL     1     -10.804  11.356  65.996  1.00  0.00    -0.306 A  
HETATM    8  C   UNL     1     -11.706  12.406  66.204  1.00  0.00    -0.460 A  
HETATM    9  C   UNL     1     -12.287  13.034  65.110  1.00  0.00    -0.484 A  
HETATM   10  C   UNL     1     -11.950  12.658  63.817  1.00  0.00    -0.588 A  
HETATM   11  O   UNL     1     -13.208  14.025  65.270  1.00  0.00    -0.782 OA 
HETATM   12  H   UNL     1     -13.605  14.455  64.522  1.00  0.00     0.000 HD 
HETATM   13  C   UNL     1     -11.043  11.614  63.612  1.00  0.00    -0.506 A  
ENDBRANCH   4   6
TORSDOF 1
ENDMDL
MODEL       40
REMARK 921   NORMALIZED FREE ENERGY PREDICTED BY IDOCK:   -3.92 KCAL/MOL
REMARK 922        TOTAL FREE ENERGY PREDICTED BY IDOCK:   -4.32 KCAL/MOL
REMARK 923 INTER-LIGAND FREE ENERGY PREDICTED BY IDOCK:   -4.22 KCAL/MOL
REMARK 924 INTRA-LIGAND FREE ENERGY PREDICTED BY IDOCK:   -0.11 KCAL/MOL
REMARK 927      BINDING AFFINITY PREDICTED BY RF-SCORE:    0.00 PKD
ROOT
HETATM    1  C   UNL     1      -7.854  11.341  68.517  1.00  0.00    -0.138 C  
HETATM    2  C   UNL     1      -8.499  11.932  67.291  1.00  0.00    -0.172 C  
HETATM    3  O   UNL     1      -8.367  11.400  66.194  1.00  0.00    -0.155 OA 
HETATM    4  N   UNL     1      -9.197  13.094  67.574  1.00  0.00    -0.197 N  
HETATM    5  H   UNL     1      -9.211  13.396  68.548  1.00  0.00     0.000 HD 
ENDROOT
BRANCH   4   6
HETATM    6  C   UNL     1      -9.891  13.902  66.648  1.00  0.00    -0.284 A  
HETATM    7  C   UNL     1     -11.006  13.465  65.927  1.00  0.00    -0.284 A  
HETATM    8  C   UNL     1     -11.611  14.291  64.974  1.00  0.00    -0.367 A  
HETATM    9  C   UNL     1     -11.096  15.561  64.745  1.00  0.00    -0.407 A  
HETATM   10  C   UNL     1     -10.018  16.030  65.482  1.00  0.00    -0.282 A  
HETATM   11  O   UNL     1     -11.623  16.377  63.791  1.00  0.00    -1.605 OA 
HETATM   12  H   UNL     1     -11.272  17.245  63.634  1.00  0.00     0.000 HD 
HETATM   13  C   UNL     1      -9.420  15.205  66.440  1.00  0.00    -0.325 A  
ENDBRANCH   4   6
TORSDOF 1
ENDMDL
MODEL       41
REMARK 921   NORMALIZED FREE ENERGY PREDICTED BY IDOCK:   -3.88 KCAL/MOL
REMARK 922        TOTAL FREE ENERGY PREDICTED BY IDOCK:   -4.27 KCAL/MOL
REMARK 923 INTER-LIGAND FREE ENERGY PREDICTED BY IDOCK:   -4.10 KCAL/MOL
REMARK 924 INTRA-LIGAND FREE ENERGY PREDICTED BY IDOCK:   -0.17 KCAL/MOL
REMARK 927      BINDING AFFINITY PREDICTED BY RF-SCORE:    0.00 PKD
ROOT
HETATM    1  C   UNL     1      -9.021  17.107  67.932  1.00  0.00    -0.230 C  
HETATM    2  C   UNL     1      -9.470  16.222  69.065  1.00  0.00    -0.258 C  
HETATM    3  O   UNL     1      -8.670  15.505  69.656  1.00  0.00    -0.251 OA 
HETATM    4  N   UNL     1     -10.830  16.325  69.303  1.00  0.00    -0.296 N  
HETATM    5  H   UNL     1     -11.351  16.979  68.718  1.00  0.00     0.000 HD 
ENDROOT
BRANCH   4   6
HETATM    6  C   UNL     1     -11.567  15.615  70.274  1.00  0.00    -0.356 A  
HETATM    7  C   UNL     1     -11.812  16.098  71.563  1.00  0.00    -0.528 A  
HETATM    8  C   UNL     1     -12.492  15.318  72.503  1.00  0.00    -0.449 A  
HETATM    9  C   UNL     1     -12.932  14.049  72.147  1.00  0.00    -0.369 A  
HETATM   10  C   UNL     1     -12.740  13.569  70.860  1.00  0.00    -0.366 A  
HETATM   11  O   UNL     1     -13.553  13.237  73.048  1.00  0.00    -0.600 OA 
HETATM   12  H   UNL     1     -13.854  12.370  72.805  1.00  0.00     0.000 HD 
HETATM   13  C   UNL     1     -12.065  14.354  69.920  1.00  0.00    -0.398 A  
ENDBRANCH   4   6
TORSDOF 1
ENDMDL
MODEL       42
REMARK 921   NORMALIZED FREE ENERGY PREDICTED BY IDOCK:   -3.87 KCAL/MOL
REMARK 922        TOTAL FREE ENERGY PREDICTED BY IDOCK:   -4.27 KCAL/MOL
REMARK 923 INTER-LIGAND FREE ENERGY PREDICTED BY IDOCK:   -4.27 KCAL/MOL
REMARK 924 INTRA-LIGAND FREE ENERGY PREDICTED BY IDOCK:   -0.00 KCAL/MOL
REMARK 927      BINDING AFFINITY PREDICTED BY RF-SCORE:    0.00 PKD
ROOT
HETATM    1  C   UNL     1     -11.452   5.055  73.218  1.00  0.00    -0.339 C  
HETATM    2  C   UNL     1     -11.537   6.148  72.186  1.00  0.00    -0.317 C  
HETATM    3  O   UNL     1     -11.384   5.899  70.995  1.00  0.00    -0.263 OA 
HETATM    4  N   UNL     1     -11.779   7.388  72.753  1.00  0.00    -0.560 N  
HETATM    5  H   UNL     1     -11.887   7.416  73.767  1.00  0.00     0.000 HD 
ENDROOT
BRANCH   4   6
HETATM    6  C   UNL     1     -11.890   8.615  72.066  1.00  0.00    -0.372 A  
HETATM    7  C   UNL     1     -10.951   9.065  71.133  1.00  0.00    -0.371 A  
HETATM    8  C   UNL     1     -11.083  10.322  70.534  1.00  0.00    -0.381 A  
HETATM    9  C   UNL     1     -12.161  11.129  70.869  1.00  0.00    -0.364 A  
HETATM   10  C   UNL     1     -13.129  10.683  71.759  1.00  0.00    -0.571 A  
HETATM   11  O   UNL     1     -12.299  12.380  70.348  1.00  0.00    -0.303 OA 
HETATM   12  H   UNL     1     -13.037  12.932  70.577  1.00  0.00     0.000 HD 
HETATM   13  C   UNL     1     -12.999   9.423  72.351  1.00  0.00    -0.427 A  
ENDBRANCH   4   6
TORSDOF 1
ENDMDL
MODEL       43
REMARK 921   NORMALIZED FREE ENERGY PREDICTED BY IDOCK:   -3.85 KCAL/MOL
REMARK 922        TOTAL FREE ENERGY PREDICTED BY IDOCK:   -4.25 KCAL/MOL
REMARK 923 INTER-LIGAND FREE ENERGY PREDICTED BY IDOCK:   -4.18 KCAL/MOL
REMARK 924 INTRA-LIGAND FREE ENERGY PREDICTED BY IDOCK:   -0.07 KCAL/MOL
REMARK 927      BINDING AFFINITY PREDICTED BY RF-SCORE:    0.00 PKD
ROOT
HETATM    1  C   UNL     1      -8.938   8.634  66.583  1.00  0.00    -0.174 C  
HETATM    2  C   UNL     1      -9.848   9.833  66.521  1.00  0.00    -0.225 C  
HETATM    3  O   UNL     1     -10.639  10.068  67.429  1.00  0.00    -0.242 OA 
HETATM    4  N   UNL     1      -9.676  10.562  65.357  1.00  0.00    -0.237 N  
HETATM    5  H   UNL     1      -8.966  10.228  64.706  1.00  0.00     0.000 HD 
ENDROOT
BRANCH   4   6
HETATM    6  C   UNL     1     -10.388  11.722  64.982  1.00  0.00    -0.281 A  
HETATM    7  C   UNL     1     -10.412  12.893  65.746  1.00  0.00    -0.293 A  
HETATM    8  C   UNL     1     -11.190  13.987  65.353  1.00  0.00    -0.319 A  
HETATM    9  C   UNL     1     -11.944  13.907  64.190  1.00  0.00    -0.428 A  
HETATM   10  C   UNL     1     -11.899  12.771  63.394  1.00  0.00    -0.591 A  
HETATM   11  O   UNL     1     -12.755  14.930  63.800  1.00  0.00    -0.889 OA 
HETATM   12  H   UNL     1     -13.270  14.876  63.004  1.00  0.00     0.000 HD 
HETATM   13  C   UNL     1     -11.114  11.681  63.784  1.00  0.00    -0.499 A  
ENDBRANCH   4   6
TORSDOF 1
ENDMDL
MODEL       44
REMARK 921   NORMALIZED FREE ENERGY PREDICTED BY IDOCK:   -3.84 KCAL/MOL
REMARK 922        TOTAL FREE ENERGY PREDICTED BY IDOCK:   -4.24 KCAL/MOL
REMARK 923 INTER-LIGAND FREE ENERGY PREDICTED BY IDOCK:   -4.08 KCAL/MOL
REMARK 924 INTRA-LIGAND FREE ENERGY PREDICTED BY IDOCK:   -0.16 KCAL/MOL
REMARK 927      BINDING AFFINITY PREDICTED BY RF-SCORE:    0.00 PKD
ROOT
HETATM    1  C   UNL     1     -10.809   9.397  71.464  1.00  0.00    -0.398 C  
HETATM    2  C   UNL     1     -11.523  10.392  70.587  1.00  0.00    -0.349 C  
HETATM    3  O   UNL     1     -12.714  10.630  70.750  1.00  0.00    -0.349 OA 
HETATM    4  N   UNL     1     -10.688  10.940  69.628  1.00  0.00    -0.397 N  
HETATM    5  H   UNL     1      -9.715  10.633  69.636  1.00  0.00     0.000 HD 
ENDROOT
BRANCH   4   6
HETATM    6  C   UNL     1     -11.050  11.880  68.640  1.00  0.00    -0.246 A  
HETATM    7  C   UNL     1     -11.272  13.234  68.908  1.00  0.00    -0.322 A  
HETATM    8  C   UNL     1     -11.694  14.104  67.897  1.00  0.00    -0.402 A  
HETATM    9  C   UNL     1     -11.891  13.614  66.613  1.00  0.00    -0.409 A  
HETATM   10  C   UNL     1     -11.632  12.283  66.316  1.00  0.00    -0.446 A  
HETATM   11  O   UNL     1     -12.350  14.416  65.612  1.00  0.00    -0.390 OA 
HETATM   12  H   UNL     1     -12.485  14.081  64.733  1.00  0.00     0.000 HD 
HETATM   13  C   UNL     1     -11.204  11.417  67.327  1.00  0.00    -0.370 A  
ENDBRANCH   4   6
TORSDOF 1
ENDMDL
MODEL       45
REMARK 921   NORMALIZED FREE ENERGY PREDICTED BY IDOCK:   -3.83 KCAL/MOL
REMARK 922        TOTAL FREE ENERGY PREDICTED BY IDOCK:   -4.22 KCAL/MOL
REMARK 923 INTER-LIGAND FREE ENERGY PREDICTED BY IDOCK:   -4.09 KCAL/MOL
REMARK 924 INTRA-LIGAND FREE ENERGY PREDICTED BY IDOCK:   -0.13 KCAL/MOL
REMARK 927      BINDING AFFINITY PREDICTED BY RF-SCORE:    0.00 PKD
ROOT
HETATM    1  C   UNL     1      -9.691  18.962  68.422  1.00  0.00    -0.432 C  
HETATM    2  C   UNL     1      -9.690  17.464  68.576  1.00  0.00    -0.304 C  
HETATM    3  O   UNL     1      -8.670  16.869  68.907  1.00  0.00    -0.259 OA 
HETATM    4  N   UNL     1     -10.924  16.906  68.290  1.00  0.00    -0.349 N  
HETATM    5  H   UNL     1     -11.672  17.552  68.035  1.00  0.00     0.000 HD 
ENDROOT
BRANCH   4   6
HETATM    6  C   UNL     1     -11.249  15.533  68.315  1.00  0.00    -0.343 A  
HETATM    7  C   UNL     1     -11.291  14.772  69.486  1.00  0.00    -0.312 A  
HETATM    8  C   UNL     1     -11.555  13.399  69.438  1.00  0.00    -0.365 A  
HETATM    9  C   UNL     1     -11.782  12.790  68.211  1.00  0.00    -0.344 A  
HETATM   10  C   UNL     1     -11.791  13.536  67.041  1.00  0.00    -0.447 A  
HETATM   11  O   UNL     1     -11.993  11.447  68.116  1.00  0.00    -0.594 OA 
HETATM   12  H   UNL     1     -12.148  11.030  67.277  1.00  0.00     0.000 HD 
HETATM   13  C   UNL     1     -11.534  14.910  67.093  1.00  0.00    -0.344 A  
ENDBRANCH   4   6
TORSDOF 1
ENDMDL
MODEL       46
REMARK 921   NORMALIZED FREE ENERGY PREDICTED BY IDOCK:   -3.82 KCAL/MOL
REMARK 922        TOTAL FREE ENERGY PREDICTED BY IDOCK:   -4.21 KCAL/MOL
REMARK 923 INTER-LIGAND FREE ENERGY PREDICTED BY IDOCK:   -4.04 KCAL/MOL
REMARK 924 INTRA-LIGAND FREE ENERGY PREDICTED BY IDOCK:   -0.17 KCAL/MOL
REMARK 927      BINDING AFFINITY PREDICTED BY RF-SCORE:    0.00 PKD
ROOT
HETATM    1  C   UNL     1     -10.037  19.896  66.006  1.00  0.00    -0.589 C  
HETATM    2  C   UNL     1     -10.366  18.432  66.126  1.00  0.00    -0.407 C  
HETATM    3  O   UNL     1     -10.861  17.822  65.185  1.00  0.00    -0.671 OA 
HETATM    4  N   UNL     1     -10.061  17.926  67.378  1.00  0.00    -0.326 N  
HETATM    5  H   UNL     1      -9.646  18.574  68.047  1.00  0.00     0.000 HD 
ENDROOT
BRANCH   4   6
HETATM    6  C   UNL     1     -10.270  16.602  67.820  1.00  0.00    -0.292 A  
HETATM    7  C   UNL     1     -11.389  16.202  68.556  1.00  0.00    -0.359 A  
HETATM    8  C   UNL     1     -11.506  14.888  69.022  1.00  0.00    -0.322 A  
HETATM    9  C   UNL     1     -10.499  13.973  68.746  1.00  0.00    -0.233 A  
HETATM   10  C   UNL     1      -9.402  14.338  67.978  1.00  0.00    -0.200 A  
HETATM   11  O   UNL     1     -10.550  12.698  69.225  1.00  0.00    -0.438 OA 
HETATM   12  H   UNL     1      -9.862  12.072  69.036  1.00  0.00     0.000 HD 
HETATM   13  C   UNL     1      -9.291  15.650  67.507  1.00  0.00    -0.206 A  
ENDBRANCH   4   6
TORSDOF 1
ENDMDL
MODEL       47
REMARK 921   NORMALIZED FREE ENERGY PREDICTED BY IDOCK:   -3.80 KCAL/MOL
REMARK 922        TOTAL FREE ENERGY PREDICTED BY IDOCK:   -4.20 KCAL/MOL
REMARK 923 INTER-LIGAND FREE ENERGY PREDICTED BY IDOCK:   -4.37 KCAL/MOL
REMARK 924 INTRA-LIGAND FREE ENERGY PREDICTED BY IDOCK:    0.17 KCAL/MOL
REMARK 927      BINDING AFFINITY PREDICTED BY RF-SCORE:    0.00 PKD
ROOT
HETATM    1  C   UNL     1     -13.541  13.959  71.971  1.00  0.00    -0.566 C  
HETATM    2  C   UNL     1     -12.983  12.702  71.356  1.00  0.00    -0.258 C  
HETATM    3  O   UNL     1     -12.395  12.738  70.281  1.00  0.00    -0.287 OA 
HETATM    4  N   UNL     1     -13.237  11.583  72.130  1.00  0.00    -0.559 N  
HETATM    5  H   UNL     1     -13.738  11.733  73.006  1.00  0.00     0.000 HD 
ENDROOT
BRANCH   4   6
HETATM    6  C   UNL     1     -12.873  10.254  71.826  1.00  0.00    -0.460 A  
HETATM    7  C   UNL     1     -13.715   9.157  72.029  1.00  0.00    -0.508 A  
HETATM    8  C   UNL     1     -13.271   7.856  71.769  1.00  0.00    -0.360 A  
HETATM    9  C   UNL     1     -11.979   7.656  71.300  1.00  0.00    -0.306 A  
HETATM   10  C   UNL     1     -11.143   8.735  71.048  1.00  0.00    -0.328 A  
HETATM   11  O   UNL     1     -11.491   6.403  71.083  1.00  0.00    -0.304 OA 
HETATM   12  H   UNL     1     -10.607   6.266  70.762  1.00  0.00     0.000 HD 
HETATM   13  C   UNL     1     -11.591  10.035  71.302  1.00  0.00    -0.430 A  
ENDBRANCH   4   6
TORSDOF 1
ENDMDL
MODEL       48
REMARK 921   NORMALIZED FREE ENERGY PREDICTED BY IDOCK:   -3.80 KCAL/MOL
REMARK 922        TOTAL FREE ENERGY PREDICTED BY IDOCK:   -4.19 KCAL/MOL
REMARK 923 INTER-LIGAND FREE ENERGY PREDICTED BY IDOCK:   -4.02 KCAL/MOL
REMARK 924 INTRA-LIGAND FREE ENERGY PREDICTED BY IDOCK:   -0.17 KCAL/MOL
REMARK 927      BINDING AFFINITY PREDICTED BY RF-SCORE:    0.00 PKD
ROOT
HETATM    1  C   UNL     1     -12.232  13.122  63.553  1.00  0.00    -0.552 C  
HETATM    2  C   UNL     1     -11.895  13.923  64.784  1.00  0.00    -0.397 C  
HETATM    3  O   UNL     1     -12.538  13.784  65.818  1.00  0.00    -0.484 OA 
HETATM    4  N   UNL     1     -10.835  14.789  64.572  1.00  0.00    -0.625 N  
HETATM    5  H   UNL     1     -10.406  14.774  63.646  1.00  0.00     0.000 HD 
ENDROOT
BRANCH   4   6
HETATM    6  C   UNL     1     -10.291  15.692  65.510  1.00  0.00    -0.396 A  
HETATM    7  C   UNL     1     -10.698  17.024  65.625  1.00  0.00    -0.150 A  
HETATM    8  C   UNL     1     -10.074  17.888  66.531  1.00  0.00    -0.370 A  
HETATM    9  C   UNL     1      -9.040  17.412  67.327  1.00  0.00    -0.237 A  
HETATM   10  C   UNL     1      -8.652  16.081  67.262  1.00  0.00    -0.205 A  
HETATM   11  O   UNL     1      -8.372  18.233  68.185  1.00  0.00    -0.268 OA 
HETATM   12  H   UNL     1      -7.666  17.907  68.730  1.00  0.00     0.000 HD 
HETATM   13  C   UNL     1      -9.283  15.218  66.360  1.00  0.00    -0.342 A  
ENDBRANCH   4   6
TORSDOF 1
ENDMDL
MODEL       49
REMARK 921   NORMALIZED FREE ENERGY PREDICTED BY IDOCK:   -3.78 KCAL/MOL
REMARK 922        TOTAL FREE ENERGY PREDICTED BY IDOCK:   -4.17 KCAL/MOL
REMARK 923 INTER-LIGAND FREE ENERGY PREDICTED BY IDOCK:   -4.08 KCAL/MOL
REMARK 924 INTRA-LIGAND FREE ENERGY PREDICTED BY IDOCK:   -0.09 KCAL/MOL
REMARK 927      BINDING AFFINITY PREDICTED BY RF-SCORE:    0.00 PKD
ROOT
HETATM    1  C   UNL     1      -7.168  15.845  67.975  1.00  0.00    -0.142 C  
HETATM    2  C   UNL     1      -8.550  15.301  67.725  1.00  0.00    -0.158 C  
HETATM    3  O   UNL     1      -9.383  15.268  68.624  1.00  0.00    -0.185 OA 
HETATM    4  N   UNL     1      -8.712  14.860  66.422  1.00  0.00    -0.467 N  
HETATM    5  H   UNL     1      -7.913  14.968  65.797  1.00  0.00     0.000 HD 
ENDROOT
BRANCH   4   6
HETATM    6  C   UNL     1      -9.874  14.277  65.874  1.00  0.00    -0.298 A  
HETATM    7  C   UNL     1     -10.667  14.900  64.906  1.00  0.00    -0.426 A  
HETATM    8  C   UNL     1     -11.845  14.298  64.450  1.00  0.00    -0.444 A  
HETATM    9  C   UNL     1     -12.225  13.065  64.964  1.00  0.00    -0.453 A  
HETATM   10  C   UNL     1     -11.428  12.409  65.891  1.00  0.00    -0.422 A  
HETATM   11  O   UNL     1     -13.390  12.469  64.584  1.00  0.00    -0.804 OA 
HETATM   12  H   UNL     1     -13.650  11.625  64.935  1.00  0.00     0.000 HD 
HETATM   13  C   UNL     1     -10.248  13.009  66.340  1.00  0.00    -0.283 A  
ENDBRANCH   4   6
TORSDOF 1
ENDMDL
MODEL       50
REMARK 921   NORMALIZED FREE ENERGY PREDICTED BY IDOCK:   -3.76 KCAL/MOL
REMARK 922        TOTAL FREE ENERGY PREDICTED BY IDOCK:   -4.15 KCAL/MOL
REMARK 923 INTER-LIGAND FREE ENERGY PREDICTED BY IDOCK:   -3.98 KCAL/MOL
REMARK 924 INTRA-LIGAND FREE ENERGY PREDICTED BY IDOCK:   -0.17 KCAL/MOL
REMARK 927      BINDING AFFINITY PREDICTED BY RF-SCORE:    0.00 PKD
ROOT
HETATM    1  C   UNL     1     -11.646  15.932  64.336  1.00  0.00    -0.234 C  
HETATM    2  C   UNL     1     -11.837  14.488  64.718  1.00  0.00    -0.441 C  
HETATM    3  O   UNL     1     -12.653  13.787  64.129  1.00  0.00    -0.669 OA 
HETATM    4  N   UNL     1     -11.022  14.112  65.771  1.00  0.00    -0.296 N  
HETATM    5  H   UNL     1     -10.392  14.824  66.143  1.00  0.00     0.000 HD 
ENDROOT
BRANCH   4   6
HETATM    6  C   UNL     1     -10.975  12.840  66.382  1.00  0.00    -0.276 A  
HETATM    7  C   UNL     1     -10.229  11.770  65.880  1.00  0.00    -0.272 A  
HETATM    8  C   UNL     1     -10.276  10.515  66.494  1.00  0.00    -0.288 A  
HETATM    9  C   UNL     1     -11.072  10.333  67.617  1.00  0.00    -0.251 A  
HETATM   10  C   UNL     1     -11.785  11.393  68.158  1.00  0.00    -0.355 A  
HETATM   11  O   UNL     1     -11.186   9.114  68.215  1.00  0.00    -0.471 OA 
HETATM   12  H   UNL     1     -11.730   8.989  68.983  1.00  0.00     0.000 HD 
HETATM   13  C   UNL     1     -11.730  12.650  67.547  1.00  0.00    -0.429 A  
ENDBRANCH   4   6
TORSDOF 1
ENDMDL
MODEL       51
REMARK 921   NORMALIZED FREE ENERGY PREDICTED BY IDOCK:   -3.75 KCAL/MOL
REMARK 922        TOTAL FREE ENERGY PREDICTED BY IDOCK:   -4.14 KCAL/MOL
REMARK 923 INTER-LIGAND FREE ENERGY PREDICTED BY IDOCK:   -4.03 KCAL/MOL
REMARK 924 INTRA-LIGAND FREE ENERGY PREDICTED BY IDOCK:   -0.11 KCAL/MOL
REMARK 927      BINDING AFFINITY PREDICTED BY RF-SCORE:    0.00 PKD
ROOT
HETATM    1  C   UNL     1     -10.374   5.259  69.822  1.00  0.00    -0.369 C  
HETATM    2  C   UNL     1     -10.719   6.374  70.775  1.00  0.00    -0.250 C  
HETATM    3  O   UNL     1     -10.295   6.369  71.925  1.00  0.00    -0.199 OA 
HETATM    4  N   UNL     1     -11.543   7.323  70.195  1.00  0.00    -0.499 N  
HETATM    5  H   UNL     1     -11.798   7.176  69.218  1.00  0.00     0.000 HD 
ENDROOT
BRANCH   4   6
HETATM    6  C   UNL     1     -12.065   8.475  70.822  1.00  0.00    -0.061 A  
HETATM    7  C   UNL     1     -12.970   8.430  71.887  1.00  0.00    -0.381 A  
HETATM    8  C   UNL     1     -13.502   9.607  72.423  1.00  0.00    -0.421 A  
HETATM    9  C   UNL     1     -13.122  10.833  71.892  1.00  0.00    -0.451 A  
HETATM   10  C   UNL     1     -12.190  10.901  70.866  1.00  0.00    -0.485 A  
HETATM   11  O   UNL     1     -13.655  11.999  72.352  1.00  0.00    -0.587 OA 
HETATM   12  H   UNL     1     -13.395  12.838  71.989  1.00  0.00     0.000 HD 
HETATM   13  C   UNL     1     -11.654   9.723  70.337  1.00  0.00    -0.327 A  
ENDBRANCH   4   6
TORSDOF 1
ENDMDL
MODEL       52
REMARK 921   NORMALIZED FREE ENERGY PREDICTED BY IDOCK:   -3.75 KCAL/MOL
REMARK 922        TOTAL FREE ENERGY PREDICTED BY IDOCK:   -4.14 KCAL/MOL
REMARK 923 INTER-LIGAND FREE ENERGY PREDICTED BY IDOCK:   -4.37 KCAL/MOL
REMARK 924 INTRA-LIGAND FREE ENERGY PREDICTED BY IDOCK:    0.24 KCAL/MOL
REMARK 927      BINDING AFFINITY PREDICTED BY RF-SCORE:    0.00 PKD
ROOT
HETATM    1  C   UNL     1     -13.724  15.166  72.421  1.00  0.00    -0.600 C  
HETATM    2  C   UNL     1     -12.856  14.106  71.796  1.00  0.00    -0.347 C  
HETATM    3  O   UNL     1     -11.822  14.407  71.210  1.00  0.00    -0.326 OA 
HETATM    4  N   UNL     1     -13.380  12.835  71.959  1.00  0.00    -0.501 N  
HETATM    5  H   UNL     1     -14.253  12.761  72.482  1.00  0.00     0.000 HD 
ENDROOT
BRANCH   4   6
HETATM    6  C   UNL     1     -12.826  11.631  71.473  1.00  0.00    -0.364 A  
HETATM    7  C   UNL     1     -11.918  11.574  70.412  1.00  0.00    -0.459 A  
HETATM    8  C   UNL     1     -11.454  10.344  69.933  1.00  0.00    -0.368 A  
HETATM    9  C   UNL     1     -11.901   9.169  70.523  1.00  0.00    -0.095 A  
HETATM   10  C   UNL     1     -12.766   9.206  71.607  1.00  0.00    -0.429 A  
HETATM   11  O   UNL     1     -11.514   7.950  70.054  1.00  0.00    -0.466 OA 
HETATM   12  H   UNL     1     -11.819   7.146  70.458  1.00  0.00     0.000 HD 
HETATM   13  C   UNL     1     -13.222  10.437  72.089  1.00  0.00    -0.418 A  
ENDBRANCH   4   6
TORSDOF 1
ENDMDL
MODEL       53
REMARK 921   NORMALIZED FREE ENERGY PREDICTED BY IDOCK:   -3.75 KCAL/MOL
REMARK 922        TOTAL FREE ENERGY PREDICTED BY IDOCK:   -4.13 KCAL/MOL
REMARK 923 INTER-LIGAND FREE ENERGY PREDICTED BY IDOCK:   -4.05 KCAL/MOL
REMARK 924 INTRA-LIGAND FREE ENERGY PREDICTED BY IDOCK:   -0.09 KCAL/MOL
REMARK 927      BINDING AFFINITY PREDICTED BY RF-SCORE:    0.00 PKD
ROOT
HETATM    1  C   UNL     1     -12.520  10.333  70.895  1.00  0.00    -0.466 C  
HETATM    2  C   UNL     1     -11.990  11.327  69.896  1.00  0.00    -0.365 C  
HETATM    3  O   UNL     1     -11.813  12.499  70.211  1.00  0.00    -0.317 OA 
HETATM    4  N   UNL     1     -11.770  10.756  68.654  1.00  0.00    -0.452 N  
HETATM    5  H   UNL     1     -11.966   9.759  68.565  1.00  0.00     0.000 HD 
ENDROOT
BRANCH   4   6
HETATM    6  C   UNL     1     -11.302  11.418  67.499  1.00  0.00    -0.292 A  
HETATM    7  C   UNL     1     -11.983  12.473  66.885  1.00  0.00    -0.306 A  
HETATM    8  C   UNL     1     -11.501  13.045  65.703  1.00  0.00    -0.365 A  
HETATM    9  C   UNL     1     -10.328  12.560  65.138  1.00  0.00    -0.289 A  
HETATM   10  C   UNL     1      -9.612  11.545  65.757  1.00  0.00    -0.259 A  
HETATM   11  O   UNL     1      -9.852  13.055  63.962  1.00  0.00    -0.687 OA 
HETATM   12  H   UNL     1      -9.050  12.723  63.576  1.00  0.00     0.000 HD 
HETATM   13  C   UNL     1     -10.093  10.980  66.942  1.00  0.00    -0.248 A  
ENDBRANCH   4   6
TORSDOF 1
ENDMDL
MODEL       54
REMARK 921   NORMALIZED FREE ENERGY PREDICTED BY IDOCK:   -3.75 KCAL/MOL
REMARK 922        TOTAL FREE ENERGY PREDICTED BY IDOCK:   -4.13 KCAL/MOL
REMARK 923 INTER-LIGAND FREE ENERGY PREDICTED BY IDOCK:   -3.96 KCAL/MOL
REMARK 924 INTRA-LIGAND FREE ENERGY PREDICTED BY IDOCK:   -0.17 KCAL/MOL
REMARK 927      BINDING AFFINITY PREDICTED BY RF-SCORE:    0.00 PKD
ROOT
HETATM    1  C   UNL     1      -7.191   9.707  64.939  1.00  0.00    -0.118 C  
HETATM    2  C   UNL     1      -8.637  10.080  65.136  1.00  0.00    -0.158 C  
HETATM    3  O   UNL     1      -9.474   9.226  65.409  1.00  0.00    -0.254 OA 
HETATM    4  N   UNL     1      -8.859  11.435  64.956  1.00  0.00    -0.389 N  
HETATM    5  H   UNL     1      -8.044  12.009  64.737  1.00  0.00     0.000 HD 
ENDROOT
BRANCH   4   6
HETATM    6  C   UNL     1     -10.100  12.099  65.044  1.00  0.00    -0.263 A  
HETATM    7  C   UNL     1     -10.949  12.296  63.951  1.00  0.00    -0.464 A  
HETATM    8  C   UNL     1     -12.138  13.021  64.090  1.00  0.00    -0.497 A  
HETATM    9  C   UNL     1     -12.476  13.547  65.329  1.00  0.00    -0.482 A  
HETATM   10  C   UNL     1     -11.670  13.324  66.437  1.00  0.00    -0.418 A  
HETATM   11  O   UNL     1     -13.598  14.302  65.495  1.00  0.00    -0.650 OA 
HETATM   12  H   UNL     1     -13.830  14.662  66.343  1.00  0.00     0.000 HD 
HETATM   13  C   UNL     1     -10.487  12.593  66.297  1.00  0.00    -0.270 A  
ENDBRANCH   4   6
TORSDOF 1
ENDMDL
MODEL       55
REMARK 921   NORMALIZED FREE ENERGY PREDICTED BY IDOCK:   -3.70 KCAL/MOL
REMARK 922        TOTAL FREE ENERGY PREDICTED BY IDOCK:   -4.08 KCAL/MOL
REMARK 923 INTER-LIGAND FREE ENERGY PREDICTED BY IDOCK:   -3.91 KCAL/MOL
REMARK 924 INTRA-LIGAND FREE ENERGY PREDICTED BY IDOCK:   -0.17 KCAL/MOL
REMARK 927      BINDING AFFINITY PREDICTED BY RF-SCORE:    0.00 PKD
ROOT
HETATM    1  C   UNL     1     -10.134  20.167  67.057  1.00  0.00    -0.599 C  
HETATM    2  C   UNL     1      -9.661  18.841  66.523  1.00  0.00    -0.348 C  
HETATM    3  O   UNL     1      -8.615  18.758  65.890  1.00  0.00    -0.478 OA 
HETATM    4  N   UNL     1     -10.538  17.812  66.822  1.00  0.00    -0.284 N  
HETATM    5  H   UNL     1     -11.365  18.057  67.367  1.00  0.00     0.000 HD 
ENDROOT
BRANCH   4   6
HETATM    6  C   UNL     1     -10.400  16.459  66.447  1.00  0.00    -0.313 A  
HETATM    7  C   UNL     1      -9.680  15.521  67.193  1.00  0.00    -0.226 A  
HETATM    8  C   UNL     1      -9.525  14.209  66.734  1.00  0.00    -0.290 A  
HETATM    9  C   UNL     1     -10.097  13.836  65.525  1.00  0.00    -0.284 A  
HETATM   10  C   UNL     1     -10.855  14.739  64.792  1.00  0.00    -0.395 A  
HETATM   11  O   UNL     1      -9.927  12.583  65.017  1.00  0.00    -0.385 OA 
HETATM   12  H   UNL     1     -10.319  12.327  64.191  1.00  0.00     0.000 HD 
HETATM   13  C   UNL     1     -11.014  16.048  65.256  1.00  0.00    -0.309 A  
ENDBRANCH   4   6
TORSDOF 1
ENDMDL
MODEL       56
REMARK 921   NORMALIZED FREE ENERGY PREDICTED BY IDOCK:   -3.66 KCAL/MOL
REMARK 922        TOTAL FREE ENERGY PREDICTED BY IDOCK:   -4.05 KCAL/MOL
REMARK 923 INTER-LIGAND FREE ENERGY PREDICTED BY IDOCK:   -3.88 KCAL/MOL
REMARK 924 INTRA-LIGAND FREE ENERGY PREDICTED BY IDOCK:   -0.17 KCAL/MOL
REMARK 927      BINDING AFFINITY PREDICTED BY RF-SCORE:    0.00 PKD
ROOT
HETATM    1  C   UNL     1     -11.786  11.142  69.852  1.00  0.00    -0.433 C  
HETATM    2  C   UNL     1     -11.597  12.136  68.736  1.00  0.00    -0.327 C  
HETATM    3  O   UNL     1     -12.143  11.971  67.651  1.00  0.00    -0.547 OA 
HETATM    4  N   UNL     1     -10.757  13.176  69.096  1.00  0.00    -0.436 N  
HETATM    5  H   UNL     1     -10.391  13.162  70.048  1.00  0.00     0.000 HD 
ENDROOT
BRANCH   4   6
HETATM    6  C   UNL     1     -10.359  14.253  68.277  1.00  0.00    -0.242 A  
HETATM    7  C   UNL     1     -11.040  15.473  68.220  1.00  0.00    -0.322 A  
HETATM    8  C   UNL     1     -10.633  16.479  67.337  1.00  0.00    -0.300 A  
HETATM    9  C   UNL     1      -9.538  16.262  66.512  1.00  0.00    -0.264 A  
HETATM   10  C   UNL     1      -8.820  15.077  66.586  1.00  0.00    -0.307 A  
HETATM   11  O   UNL     1      -9.140  17.196  65.603  1.00  0.00    -0.500 OA 
HETATM   12  H   UNL     1      -8.391  17.048  65.039  1.00  0.00     0.000 HD 
HETATM   13  C   UNL     1      -9.224  14.075  67.474  1.00  0.00    -0.197 A  
ENDBRANCH   4   6
TORSDOF 1
ENDMDL
MODEL       57
REMARK 921   NORMALIZED FREE ENERGY PREDICTED BY IDOCK:   -3.66 KCAL/MOL
REMARK 922        TOTAL FREE ENERGY PREDICTED BY IDOCK:   -4.04 KCAL/MOL
REMARK 923 INTER-LIGAND FREE ENERGY PREDICTED BY IDOCK:   -3.97 KCAL/MOL
REMARK 924 INTRA-LIGAND FREE ENERGY PREDICTED BY IDOCK:   -0.07 KCAL/MOL
REMARK 927      BINDING AFFINITY PREDICTED BY RF-SCORE:    0.00 PKD
ROOT
HETATM    1  C   UNL     1      -9.792  20.333  67.091  1.00  0.00    -0.606 C  
HETATM    2  C   UNL     1      -9.557  19.002  67.757  1.00  0.00    -0.311 C  
HETATM    3  O   UNL     1      -8.500  18.767  68.333  1.00  0.00    -0.321 OA 
HETATM    4  N   UNL     1     -10.634  18.144  67.609  1.00  0.00    -0.420 N  
HETATM    5  H   UNL     1     -11.442  18.504  67.101  1.00  0.00     0.000 HD 
ENDROOT
BRANCH   4   6
HETATM    6  C   UNL     1     -10.722  16.821  68.090  1.00  0.00    -0.361 A  
HETATM    7  C   UNL     1     -10.810  15.701  67.258  1.00  0.00    -0.298 A  
HETATM    8  C   UNL     1     -10.963  14.419  67.796  1.00  0.00    -0.283 A  
HETATM    9  C   UNL     1     -11.023  14.260  69.175  1.00  0.00    -0.261 A  
HETATM   10  C   UNL     1     -10.892  15.353  70.020  1.00  0.00    -0.320 A  
HETATM   11  O   UNL     1     -11.222  13.036  69.738  1.00  0.00    -0.482 OA 
HETATM   12  H   UNL     1     -11.264  12.926  70.680  1.00  0.00     0.000 HD 
HETATM   13  C   UNL     1     -10.732  16.633  69.479  1.00  0.00    -0.306 A  
ENDBRANCH   4   6
TORSDOF 1
ENDMDL
MODEL       58
REMARK 921   NORMALIZED FREE ENERGY PREDICTED BY IDOCK:   -3.65 KCAL/MOL
REMARK 922        TOTAL FREE ENERGY PREDICTED BY IDOCK:   -4.04 KCAL/MOL
REMARK 923 INTER-LIGAND FREE ENERGY PREDICTED BY IDOCK:   -4.11 KCAL/MOL
REMARK 924 INTRA-LIGAND FREE ENERGY PREDICTED BY IDOCK:    0.08 KCAL/MOL
REMARK 927      BINDING AFFINITY PREDICTED BY RF-SCORE:    0.00 PKD
ROOT
HETATM    1  C   UNL     1     -12.293  10.297  70.824  1.00  0.00    -0.445 C  
HETATM    2  C   UNL     1     -11.891  11.278  69.754  1.00  0.00    -0.364 C  
HETATM    3  O   UNL     1     -11.847  12.480  69.990  1.00  0.00    -0.331 OA 
HETATM    4  N   UNL     1     -11.618  10.656  68.548  1.00  0.00    -0.462 N  
HETATM    5  H   UNL     1     -11.699   9.639  68.526  1.00  0.00     0.000 HD 
ENDROOT
BRANCH   4   6
HETATM    6  C   UNL     1     -11.240  11.290  67.345  1.00  0.00    -0.303 A  
HETATM    7  C   UNL     1     -10.133  10.903  66.584  1.00  0.00    -0.264 A  
HETATM    8  C   UNL     1      -9.771  11.614  65.435  1.00  0.00    -0.255 A  
HETATM    9  C   UNL     1     -10.526  12.713  65.046  1.00  0.00    -0.308 A  
HETATM   10  C   UNL     1     -11.655  13.085  65.761  1.00  0.00    -0.396 A  
HETATM   11  O   UNL     1     -10.178  13.463  63.963  1.00  0.00    -0.718 OA 
HETATM   12  H   UNL     1     -10.694  14.214  63.696  1.00  0.00     0.000 HD 
HETATM   13  C   UNL     1     -12.019  12.369  66.905  1.00  0.00    -0.266 A  
ENDBRANCH   4   6
TORSDOF 1
ENDMDL
MODEL       59
REMARK 921   NORMALIZED FREE ENERGY PREDICTED BY IDOCK:   -3.63 KCAL/MOL
REMARK 922        TOTAL FREE ENERGY PREDICTED BY IDOCK:   -4.01 KCAL/MOL
REMARK 923 INTER-LIGAND FREE ENERGY PREDICTED BY IDOCK:   -3.93 KCAL/MOL
REMARK 924 INTRA-LIGAND FREE ENERGY PREDICTED BY IDOCK:   -0.08 KCAL/MOL
REMARK 927      BINDING AFFINITY PREDICTED BY RF-SCORE:    0.00 PKD
ROOT
HETATM    1  C   UNL     1     -11.584  12.183  66.893  1.00  0.00    -0.408 C  
HETATM    2  C   UNL     1     -11.766  13.666  66.703  1.00  0.00    -0.388 C  
HETATM    3  O   UNL     1     -12.754  14.107  66.127  1.00  0.00    -0.442 OA 
HETATM    4  N   UNL     1     -10.712  14.395  67.226  1.00  0.00    -0.282 N  
HETATM    5  H   UNL     1      -9.968  13.866  67.682  1.00  0.00     0.000 HD 
ENDROOT
BRANCH   4   6
HETATM    6  C   UNL     1     -10.566  15.798  67.191  1.00  0.00    -0.313 A  
HETATM    7  C   UNL     1     -10.605  16.607  68.330  1.00  0.00    -0.343 A  
HETATM    8  C   UNL     1     -10.520  17.999  68.223  1.00  0.00    -0.355 A  
HETATM    9  C   UNL     1     -10.390  18.581  66.969  1.00  0.00    -0.399 A  
HETATM   10  C   UNL     1     -10.302  17.794  65.829  1.00  0.00    -0.190 A  
HETATM   11  O   UNL     1     -10.355  19.934  66.817  1.00  0.00    -0.430 OA 
HETATM   12  H   UNL     1     -10.266  20.332  65.959  1.00  0.00     0.000 HD 
HETATM   13  C   UNL     1     -10.381  16.402  65.940  1.00  0.00    -0.378 A  
ENDBRANCH   4   6
TORSDOF 1
ENDMDL
MODEL       60
REMARK 921   NORMALIZED FREE ENERGY PREDICTED BY IDOCK:   -3.61 KCAL/MOL
REMARK 922        TOTAL FREE ENERGY PREDICTED BY IDOCK:   -3.99 KCAL/MOL
REMARK 923 INTER-LIGAND FREE ENERGY PREDICTED BY IDOCK:   -3.86 KCAL/MOL
REMARK 924 INTRA-LIGAND FREE ENERGY PREDICTED BY IDOCK:   -0.13 KCAL/MOL
REMARK 927      BINDING AFFINITY PREDICTED BY RF-SCORE:    0.00 PKD
ROOT
HETATM    1  C   UNL     1     -10.273  17.736  68.647  1.00  0.00    -0.377 C  
HETATM    2  C   UNL     1     -10.448  17.135  67.277  1.00  0.00    -0.313 C  
HETATM    3  O   UNL     1     -10.311  17.820  66.269  1.00  0.00    -0.367 OA 
HETATM    4  N   UNL     1     -10.781  15.792  67.332  1.00  0.00    -0.314 N  
HETATM    5  H   UNL     1     -10.849  15.373  68.260  1.00  0.00     0.000 HD 
ENDROOT
BRANCH   4   6
HETATM    6  C   UNL     1     -11.037  14.947  66.232  1.00  0.00    -0.340 A  
HETATM    7  C   UNL     1     -12.150  15.082  65.398  1.00  0.00     0.029 A  
HETATM    8  C   UNL     1     -12.383  14.171  64.362  1.00  0.00    -0.410 A  
HETATM    9  C   UNL     1     -11.493  13.123  64.160  1.00  0.00    -0.403 A  
HETATM   10  C   UNL     1     -10.357  12.998  64.948  1.00  0.00    -0.343 A  
HETATM   11  O   UNL     1     -11.710  12.186  63.196  1.00  0.00    -0.697 OA 
HETATM   12  H   UNL     1     -11.102  11.469  63.058  1.00  0.00     0.000 HD 
HETATM   13  C   UNL     1     -10.123  13.915  65.978  1.00  0.00    -0.324 A  
ENDBRANCH   4   6
TORSDOF 1
ENDMDL
MODEL       61
REMARK 921   NORMALIZED FREE ENERGY PREDICTED BY IDOCK:   -3.59 KCAL/MOL
REMARK 922        TOTAL FREE ENERGY PREDICTED BY IDOCK:   -3.97 KCAL/MOL
REMARK 923 INTER-LIGAND FREE ENERGY PREDICTED BY IDOCK:   -3.81 KCAL/MOL
REMARK 924 INTRA-LIGAND FREE ENERGY PREDICTED BY IDOCK:   -0.15 KCAL/MOL
REMARK 927      BINDING AFFINITY PREDICTED BY RF-SCORE:    0.00 PKD
ROOT
HETATM    1  C   UNL     1     -11.540   9.760  71.155  1.00  0.00    -0.469 C  
HETATM    2  C   UNL     1     -11.020  10.589  70.010  1.00  0.00    -0.286 C  
HETATM    3  O   UNL     1      -9.834  10.560  69.702  1.00  0.00    -0.186 OA 
HETATM    4  N   UNL     1     -12.016  11.347  69.416  1.00  0.00    -0.336 N  
HETATM    5  H   UNL     1     -12.957  11.247  69.796  1.00  0.00     0.000 HD 
ENDROOT
BRANCH   4   6
HETATM    6  C   UNL     1     -11.855  12.245  68.339  1.00  0.00    -0.304 A  
HETATM    7  C   UNL     1     -11.659  11.835  67.017  1.00  0.00    -0.321 A  
HETATM    8  C   UNL     1     -11.441  12.774  66.003  1.00  0.00    -0.396 A  
HETATM    9  C   UNL     1     -11.423  14.127  66.316  1.00  0.00    -0.352 A  
HETATM   10  C   UNL     1     -11.662  14.556  67.614  1.00  0.00    -0.410 A  
HETATM   11  O   UNL     1     -11.163  15.069  65.367  1.00  0.00    -0.345 OA 
HETATM   12  H   UNL     1     -11.151  15.995  65.581  1.00  0.00     0.000 HD 
HETATM   13  C   UNL     1     -11.887  13.616  68.625  1.00  0.00    -0.409 A  
ENDBRANCH   4   6
TORSDOF 1
ENDMDL
MODEL       62
REMARK 921   NORMALIZED FREE ENERGY PREDICTED BY IDOCK:   -3.58 KCAL/MOL
REMARK 922        TOTAL FREE ENERGY PREDICTED BY IDOCK:   -3.96 KCAL/MOL
REMARK 923 INTER-LIGAND FREE ENERGY PREDICTED BY IDOCK:   -3.79 KCAL/MOL
REMARK 924 INTRA-LIGAND FREE ENERGY PREDICTED BY IDOCK:   -0.17 KCAL/MOL
REMARK 927      BINDING AFFINITY PREDICTED BY RF-SCORE:    0.00 PKD
ROOT
HETATM    1  C   UNL     1      -7.679   7.139  68.969  1.00  0.00    -0.109 C  
HETATM    2  C   UNL     1      -8.654   7.227  70.113  1.00  0.00    -0.140 C  
HETATM    3  O   UNL     1      -8.347   6.827  71.231  1.00  0.00    -0.118 OA 
HETATM    4  N   UNL     1      -9.867   7.773  69.728  1.00  0.00    -0.177 N  
HETATM    5  H   UNL     1      -9.953   8.062  68.753  1.00  0.00     0.000 HD 
ENDROOT
BRANCH   4   6
HETATM    6  C   UNL     1     -10.996   7.970  70.552  1.00  0.00    -0.247 A  
HETATM    7  C   UNL     1     -12.009   7.020  70.711  1.00  0.00    -0.392 A  
HETATM    8  C   UNL     1     -13.136   7.300  71.490  1.00  0.00    -0.434 A  
HETATM    9  C   UNL     1     -13.246   8.536  72.114  1.00  0.00    -0.352 A  
HETATM   10  C   UNL     1     -12.230   9.475  72.006  1.00  0.00    -0.370 A  
HETATM   11  O   UNL     1     -14.350   8.868  72.839  1.00  0.00    -1.050 OA 
HETATM   12  H   UNL     1     -14.425   9.713  73.266  1.00  0.00     0.000 HD 
HETATM   13  C   UNL     1     -11.100   9.190  71.232  1.00  0.00    -0.405 A  
ENDBRANCH   4   6
TORSDOF 1
ENDMDL
MODEL       63
REMARK 921   NORMALIZED FREE ENERGY PREDICTED BY IDOCK:   -3.56 KCAL/MOL
REMARK 922        TOTAL FREE ENERGY PREDICTED BY IDOCK:   -3.94 KCAL/MOL
REMARK 923 INTER-LIGAND FREE ENERGY PREDICTED BY IDOCK:   -3.77 KCAL/MOL
REMARK 924 INTRA-LIGAND FREE ENERGY PREDICTED BY IDOCK:   -0.17 KCAL/MOL
REMARK 927      BINDING AFFINITY PREDICTED BY RF-SCORE:    0.00 PKD
ROOT
HETATM    1  C   UNL     1      -9.297  15.063  66.405  1.00  0.00    -0.334 C  
HETATM    2  C   UNL     1      -9.588  14.527  67.782  1.00  0.00    -0.215 C  
HETATM    3  O   UNL     1      -8.723  14.531  68.652  1.00  0.00    -0.173 OA 
HETATM    4  N   UNL     1     -10.882  14.048  67.897  1.00  0.00    -0.242 N  
HETATM    5  H   UNL     1     -11.476  14.127  67.071  1.00  0.00     0.000 HD 
ENDROOT
BRANCH   4   6
HETATM    6  C   UNL     1     -11.459  13.461  69.043  1.00  0.00    -0.301 A  
HETATM    7  C   UNL     1     -11.529  12.080  69.249  1.00  0.00    -0.361 A  
HETATM    8  C   UNL     1     -12.174  11.557  70.375  1.00  0.00    -0.442 A  
HETATM    9  C   UNL     1     -12.745  12.422  71.299  1.00  0.00    -0.248 A  
HETATM   10  C   UNL     1     -12.646  13.797  71.136  1.00  0.00    -0.452 A  
HETATM   11  O   UNL     1     -13.426  11.953  72.382  1.00  0.00    -0.611 OA 
HETATM   12  H   UNL     1     -13.816  12.545  73.014  1.00  0.00     0.000 HD 
HETATM   13  C   UNL     1     -11.996  14.317  70.013  1.00  0.00    -0.396 A  
ENDBRANCH   4   6
TORSDOF 1
ENDMDL
MODEL       64
REMARK 921   NORMALIZED FREE ENERGY PREDICTED BY IDOCK:   -3.55 KCAL/MOL
REMARK 922        TOTAL FREE ENERGY PREDICTED BY IDOCK:   -3.93 KCAL/MOL
REMARK 923 INTER-LIGAND FREE ENERGY PREDICTED BY IDOCK:   -3.76 KCAL/MOL
REMARK 924 INTRA-LIGAND FREE ENERGY PREDICTED BY IDOCK:   -0.17 KCAL/MOL
REMARK 927      BINDING AFFINITY PREDICTED BY RF-SCORE:    0.00 PKD
ROOT
HETATM    1  C   UNL     1     -11.414  15.463  71.071  1.00  0.00    -0.407 C  
HETATM    2  C   UNL     1     -11.229  16.093  69.716  1.00  0.00    -0.343 C  
HETATM    3  O   UNL     1     -11.983  15.818  68.788  1.00  0.00    -0.374 OA 
HETATM    4  N   UNL     1     -10.144  16.952  69.680  1.00  0.00    -0.068 N  
HETATM    5  H   UNL     1      -9.624  17.072  70.550  1.00  0.00     0.000 HD 
ENDROOT
BRANCH   4   6
HETATM    6  C   UNL     1      -9.687  17.679  68.560  1.00  0.00    -0.328 A  
HETATM    7  C   UNL     1      -8.719  17.200  67.673  1.00  0.00    -0.213 A  
HETATM    8  C   UNL     1      -8.259  17.995  66.618  1.00  0.00    -0.285 A  
HETATM    9  C   UNL     1      -8.776  19.273  66.450  1.00  0.00    -0.348 A  
HETATM   10  C   UNL     1      -9.771  19.750  67.292  1.00  0.00    -0.496 A  
HETATM   11  O   UNL     1      -8.319  20.098  65.467  1.00  0.00    -0.467 OA 
HETATM   12  H   UNL     1      -8.673  20.972  65.352  1.00  0.00     0.000 HD 
HETATM   13  C   UNL     1     -10.234  18.950  68.342  1.00  0.00    -0.433 A  
ENDBRANCH   4   6
TORSDOF 1
ENDMDL
MODEL       65
REMARK 921   NORMALIZED FREE ENERGY PREDICTED BY IDOCK:   -3.54 KCAL/MOL
REMARK 922        TOTAL FREE ENERGY PREDICTED BY IDOCK:   -3.91 KCAL/MOL
REMARK 923 INTER-LIGAND FREE ENERGY PREDICTED BY IDOCK:   -3.76 KCAL/MOL
REMARK 924 INTRA-LIGAND FREE ENERGY PREDICTED BY IDOCK:   -0.16 KCAL/MOL
REMARK 927      BINDING AFFINITY PREDICTED BY RF-SCORE:    0.00 PKD
ROOT
HETATM    1  C   UNL     1      -8.645   9.782  70.069  1.00  0.00    -0.229 C  
HETATM    2  C   UNL     1      -9.830  10.170  69.225  1.00  0.00    -0.220 C  
HETATM    3  O   UNL     1     -10.809   9.436  69.144  1.00  0.00    -0.220 OA 
HETATM    4  N   UNL     1      -9.646  11.385  68.589  1.00  0.00    -0.261 N  
HETATM    5  H   UNL     1      -8.768  11.872  68.772  1.00  0.00     0.000 HD 
ENDROOT
BRANCH   4   6
HETATM    6  C   UNL     1     -10.552  12.017  67.711  1.00  0.00    -0.207 A  
HETATM    7  C   UNL     1     -10.766  11.602  66.393  1.00  0.00    -0.316 A  
HETATM    8  C   UNL     1     -11.630  12.311  65.552  1.00  0.00    -0.422 A  
HETATM    9  C   UNL     1     -12.283  13.437  66.034  1.00  0.00    -0.437 A  
HETATM   10  C   UNL     1     -12.120  13.839  67.353  1.00  0.00    -0.378 A  
HETATM   11  O   UNL     1     -13.092  14.184  65.233  1.00  0.00    -0.763 OA 
HETATM   12  H   UNL     1     -13.540  14.954  65.563  1.00  0.00     0.000 HD 
HETATM   13  C   UNL     1     -11.262  13.124  68.194  1.00  0.00    -0.304 A  
ENDBRANCH   4   6
TORSDOF 1
ENDMDL
MODEL       66
REMARK 921   NORMALIZED FREE ENERGY PREDICTED BY IDOCK:   -3.50 KCAL/MOL
REMARK 922        TOTAL FREE ENERGY PREDICTED BY IDOCK:   -3.87 KCAL/MOL
REMARK 923 INTER-LIGAND FREE ENERGY PREDICTED BY IDOCK:   -4.35 KCAL/MOL
REMARK 924 INTRA-LIGAND FREE ENERGY PREDICTED BY IDOCK:    0.48 KCAL/MOL
REMARK 927      BINDING AFFINITY PREDICTED BY RF-SCORE:    0.00 PKD
ROOT
HETATM    1  C   UNL     1     -10.154  17.126  66.439  1.00  0.00    -0.326 C  
HETATM    2  C   UNL     1     -10.550  16.974  67.884  1.00  0.00    -0.365 C  
HETATM    3  O   UNL     1     -10.323  17.866  68.694  1.00  0.00    -0.367 OA 
HETATM    4  N   UNL     1     -11.148  15.751  68.138  1.00  0.00    -0.328 N  
HETATM    5  H   UNL     1     -11.267  15.123  67.343  1.00  0.00     0.000 HD 
ENDROOT
BRANCH   4   6
HETATM    6  C   UNL     1     -11.610  15.289  69.389  1.00  0.00    -0.330 A  
HETATM    7  C   UNL     1     -12.151  14.015  69.588  1.00  0.00    -0.408 A  
HETATM    8  C   UNL     1     -12.653  13.639  70.838  1.00  0.00    -0.421 A  
HETATM    9  C   UNL     1     -12.608  14.542  71.893  1.00  0.00    -0.341 A  
HETATM   10  C   UNL     1     -12.033  15.794  71.728  1.00  0.00    -0.547 A  
HETATM   11  O   UNL     1     -13.132  14.233  73.112  1.00  0.00    -0.555 OA 
HETATM   12  H   UNL     1     -13.101  14.850  73.833  1.00  0.00     0.000 HD 
HETATM   13  C   UNL     1     -11.526  16.165  70.478  1.00  0.00    -0.363 A  
ENDBRANCH   4   6
TORSDOF 1
ENDMDL
MODEL       67
REMARK 921   NORMALIZED FREE ENERGY PREDICTED BY IDOCK:   -3.50 KCAL/MOL
REMARK 922        TOTAL FREE ENERGY PREDICTED BY IDOCK:   -3.87 KCAL/MOL
REMARK 923 INTER-LIGAND FREE ENERGY PREDICTED BY IDOCK:   -3.70 KCAL/MOL
REMARK 924 INTRA-LIGAND FREE ENERGY PREDICTED BY IDOCK:   -0.17 KCAL/MOL
REMARK 927      BINDING AFFINITY PREDICTED BY RF-SCORE:    0.00 PKD
ROOT
HETATM    1  C   UNL     1     -10.262  10.854  66.434  1.00  0.00    -0.289 C  
HETATM    2  C   UNL     1     -10.238  11.774  67.626  1.00  0.00    -0.199 C  
HETATM    3  O   UNL     1      -9.233  11.875  68.321  1.00  0.00    -0.182 OA 
HETATM    4  N   UNL     1     -11.446  12.425  67.810  1.00  0.00    -0.302 N  
HETATM    5  H   UNL     1     -12.182  12.230  67.131  1.00  0.00     0.000 HD 
ENDROOT
BRANCH   4   6
HETATM    6  C   UNL     1     -11.760  13.332  68.845  1.00  0.00    -0.327 A  
HETATM    7  C   UNL     1     -12.216  12.935  70.106  1.00  0.00    -0.336 A  
HETATM    8  C   UNL     1     -12.573  13.885  71.068  1.00  0.00    -0.444 A  
HETATM    9  C   UNL     1     -12.469  15.237  70.767  1.00  0.00    -0.402 A  
HETATM   10  C   UNL     1     -11.974  15.651  69.538  1.00  0.00    -0.363 A  
HETATM   11  O   UNL     1     -12.854  16.193  71.657  1.00  0.00    -0.512 OA 
HETATM   12  H   UNL     1     -12.782  17.117  71.451  1.00  0.00     0.000 HD 
HETATM   13  C   UNL     1     -11.611  14.699  68.580  1.00  0.00    -0.346 A  
ENDBRANCH   4   6
TORSDOF 1
ENDMDL
MODEL       68
REMARK 921   NORMALIZED FREE ENERGY PREDICTED BY IDOCK:   -3.49 KCAL/MOL
REMARK 922        TOTAL FREE ENERGY PREDICTED BY IDOCK:   -3.86 KCAL/MOL
REMARK 923 INTER-LIGAND FREE ENERGY PREDICTED BY IDOCK:   -3.73 KCAL/MOL
REMARK 924 INTRA-LIGAND FREE ENERGY PREDICTED BY IDOCK:   -0.14 KCAL/MOL
REMARK 927      BINDING AFFINITY PREDICTED BY RF-SCORE:    0.00 PKD
ROOT
HETATM    1  C   UNL     1     -13.720   9.191  72.061  1.00  0.00    -0.508 C  
HETATM    2  C   UNL     1     -12.517   9.676  71.295  1.00  0.00    -0.355 C  
HETATM    3  O   UNL     1     -11.383   9.405  71.673  1.00  0.00    -0.372 OA 
HETATM    4  N   UNL     1     -12.869  10.435  70.192  1.00  0.00    -0.540 N  
HETATM    5  H   UNL     1     -13.866  10.558  70.018  1.00  0.00     0.000 HD 
ENDROOT
BRANCH   4   6
HETATM    6  C   UNL     1     -11.983  11.054  69.285  1.00  0.00    -0.339 A  
HETATM    7  C   UNL     1     -11.727  12.428  69.273  1.00  0.00    -0.386 A  
HETATM    8  C   UNL     1     -10.888  12.992  68.306  1.00  0.00    -0.267 A  
HETATM    9  C   UNL     1     -10.302  12.173  67.349  1.00  0.00    -0.205 A  
HETATM   10  C   UNL     1     -10.507  10.801  67.371  1.00  0.00    -0.268 A  
HETATM   11  O   UNL     1      -9.521  12.689  66.359  1.00  0.00    -0.241 OA 
HETATM   12  H   UNL     1      -9.120  12.129  65.705  1.00  0.00     0.000 HD 
HETATM   13  C   UNL     1     -11.340  10.239  68.344  1.00  0.00    -0.244 A  
ENDBRANCH   4   6
TORSDOF 1
ENDMDL
MODEL       69
REMARK 921   NORMALIZED FREE ENERGY PREDICTED BY IDOCK:   -3.49 KCAL/MOL
REMARK 922        TOTAL FREE ENERGY PREDICTED BY IDOCK:   -3.86 KCAL/MOL
REMARK 923 INTER-LIGAND FREE ENERGY PREDICTED BY IDOCK:   -3.82 KCAL/MOL
REMARK 924 INTRA-LIGAND FREE ENERGY PREDICTED BY IDOCK:   -0.04 KCAL/MOL
REMARK 927      BINDING AFFINITY PREDICTED BY RF-SCORE:    0.00 PKD
ROOT
HETATM    1  C   UNL     1      -6.468   9.336  63.459  1.00  0.00    -0.091 C  
HETATM    2  C   UNL     1      -7.941   9.642  63.512  1.00  0.00    -0.140 C  
HETATM    3  O   UNL     1      -8.749   8.943  62.911  1.00  0.00    -0.186 OA 
HETATM    4  N   UNL     1      -8.217  10.765  64.274  1.00  0.00    -0.368 N  
HETATM    5  H   UNL     1      -7.421  11.229  64.713  1.00  0.00     0.000 HD 
ENDROOT
BRANCH   4   6
HETATM    6  C   UNL     1      -9.489  11.330  64.503  1.00  0.00    -0.185 A  
HETATM    7  C   UNL     1     -10.072  11.431  65.770  1.00  0.00    -0.289 A  
HETATM    8  C   UNL     1     -11.365  11.942  65.924  1.00  0.00    -0.365 A  
HETATM    9  C   UNL     1     -12.074  12.357  64.804  1.00  0.00    -0.416 A  
HETATM   10  C   UNL     1     -11.496  12.308  63.543  1.00  0.00    -0.558 A  
HETATM   11  O   UNL     1     -13.354  12.812  64.904  1.00  0.00    -0.736 OA 
HETATM   12  H   UNL     1     -13.838  13.096  64.138  1.00  0.00     0.000 HD 
HETATM   13  C   UNL     1     -10.200  11.803  63.392  1.00  0.00    -0.482 A  
ENDBRANCH   4   6
TORSDOF 1
ENDMDL
MODEL       70
REMARK 921   NORMALIZED FREE ENERGY PREDICTED BY IDOCK:   -3.44 KCAL/MOL
REMARK 922        TOTAL FREE ENERGY PREDICTED BY IDOCK:   -3.82 KCAL/MOL
REMARK 923 INTER-LIGAND FREE ENERGY PREDICTED BY IDOCK:   -3.66 KCAL/MOL
REMARK 924 INTRA-LIGAND FREE ENERGY PREDICTED BY IDOCK:   -0.15 KCAL/MOL
REMARK 927      BINDING AFFINITY PREDICTED BY RF-SCORE:    0.00 PKD
ROOT
HETATM    1  C   UNL     1     -11.127   8.349  69.983  1.00  0.00    -0.148 C  
HETATM    2  C   UNL     1     -10.583   9.489  69.162  1.00  0.00    -0.222 C  
HETATM    3  O   UNL     1      -9.765  10.269  69.636  1.00  0.00    -0.228 OA 
HETATM    4  N   UNL     1     -11.126   9.524  67.889  1.00  0.00    -0.515 N  
HETATM    5  H   UNL     1     -11.795   8.790  67.653  1.00  0.00     0.000 HD 
ENDROOT
BRANCH   4   6
HETATM    6  C   UNL     1     -10.848  10.476  66.885  1.00  0.00    -0.187 A  
HETATM    7  C   UNL     1     -11.332  11.787  66.910  1.00  0.00    -0.386 A  
HETATM    8  C   UNL     1     -11.075  12.665  65.852  1.00  0.00    -0.323 A  
HETATM    9  C   UNL     1     -10.327  12.227  64.767  1.00  0.00    -0.291 A  
HETATM   10  C   UNL     1      -9.798  10.944  64.744  1.00  0.00    -0.343 A  
HETATM   11  O   UNL     1     -10.097  13.034  63.693  1.00  0.00    -0.699 OA 
HETATM   12  H   UNL     1      -9.585  12.734  62.952  1.00  0.00     0.000 HD 
HETATM   13  C   UNL     1     -10.050  10.071  65.807  1.00  0.00    -0.320 A  
ENDBRANCH   4   6
TORSDOF 1
ENDMDL
MODEL       71
REMARK 921   NORMALIZED FREE ENERGY PREDICTED BY IDOCK:   -3.41 KCAL/MOL
REMARK 922        TOTAL FREE ENERGY PREDICTED BY IDOCK:   -3.78 KCAL/MOL
REMARK 923 INTER-LIGAND FREE ENERGY PREDICTED BY IDOCK:   -3.61 KCAL/MOL
REMARK 924 INTRA-LIGAND FREE ENERGY PREDICTED BY IDOCK:   -0.17 KCAL/MOL
REMARK 927      BINDING AFFINITY PREDICTED BY RF-SCORE:    0.00 PKD
ROOT
HETATM    1  C   UNL     1     -10.988  17.238  67.936  1.00  0.00    -0.179 C  
HETATM    2  C   UNL     1     -10.606  15.785  68.043  1.00  0.00    -0.279 C  
HETATM    3  O   UNL     1      -9.430  15.451  68.137  1.00  0.00    -0.199 OA 
HETATM    4  N   UNL     1     -11.708  14.948  68.001  1.00  0.00    -0.404 N  
HETATM    5  H   UNL     1     -12.622  15.396  67.925  1.00  0.00     0.000 HD 
ENDROOT
BRANCH   4   6
HETATM    6  C   UNL     1     -11.692  13.538  68.053  1.00  0.00    -0.359 A  
HETATM    7  C   UNL     1     -11.844  12.809  69.236  1.00  0.00    -0.358 A  
HETATM    8  C   UNL     1     -11.753  11.413  69.232  1.00  0.00    -0.404 A  
HETATM    9  C   UNL     1     -11.512  10.747  68.037  1.00  0.00    -0.256 A  
HETATM   10  C   UNL     1     -11.404  11.450  66.845  1.00  0.00    -0.284 A  
HETATM   11  O   UNL     1     -11.365   9.393  67.997  1.00  0.00    -0.494 OA 
HETATM   12  H   UNL     1     -11.201   8.938  67.180  1.00  0.00     0.000 HD 
HETATM   13  C   UNL     1     -11.503  12.845  66.851  1.00  0.00    -0.393 A  
ENDBRANCH   4   6
TORSDOF 1
ENDMDL
MODEL       72
REMARK 921   NORMALIZED FREE ENERGY PREDICTED BY IDOCK:   -3.39 KCAL/MOL
REMARK 922        TOTAL FREE ENERGY PREDICTED BY IDOCK:   -3.76 KCAL/MOL
REMARK 923 INTER-LIGAND FREE ENERGY PREDICTED BY IDOCK:   -3.65 KCAL/MOL
REMARK 924 INTRA-LIGAND FREE ENERGY PREDICTED BY IDOCK:   -0.12 KCAL/MOL
REMARK 927      BINDING AFFINITY PREDICTED BY RF-SCORE:    0.00 PKD
ROOT
HETATM    1  C   UNL     1      -6.957  12.822  68.387  1.00  0.00    -0.095 C  
HETATM    2  C   UNL     1      -8.272  12.332  67.840  1.00  0.00    -0.161 C  
HETATM    3  O   UNL     1      -8.741  11.259  68.202  1.00  0.00    -0.141 OA 
HETATM    4  N   UNL     1      -8.818  13.211  66.920  1.00  0.00    -0.322 N  
HETATM    5  H   UNL     1      -8.296  14.069  66.737  1.00  0.00     0.000 HD 
ENDROOT
BRANCH   4   6
HETATM    6  C   UNL     1     -10.024  13.038  66.209  1.00  0.00    -0.283 A  
HETATM    7  C   UNL     1     -11.183  13.775  66.466  1.00  0.00    -0.319 A  
HETATM    8  C   UNL     1     -12.368  13.511  65.771  1.00  0.00    -0.516 A  
HETATM    9  C   UNL     1     -12.389  12.505  64.814  1.00  0.00    -0.474 A  
HETATM   10  C   UNL     1     -11.237  11.792  64.511  1.00  0.00    -0.368 A  
HETATM   11  O   UNL     1     -13.535  12.181  64.151  1.00  0.00    -0.671 OA 
HETATM   12  H   UNL     1     -13.549  11.494  63.496  1.00  0.00     0.000 HD 
HETATM   13  C   UNL     1     -10.052  12.064  65.202  1.00  0.00    -0.295 A  
ENDBRANCH   4   6
TORSDOF 1
ENDMDL
MODEL       73
REMARK 921   NORMALIZED FREE ENERGY PREDICTED BY IDOCK:   -3.39 KCAL/MOL
REMARK 922        TOTAL FREE ENERGY PREDICTED BY IDOCK:   -3.76 KCAL/MOL
REMARK 923 INTER-LIGAND FREE ENERGY PREDICTED BY IDOCK:   -3.68 KCAL/MOL
REMARK 924 INTRA-LIGAND FREE ENERGY PREDICTED BY IDOCK:   -0.08 KCAL/MOL
REMARK 927      BINDING AFFINITY PREDICTED BY RF-SCORE:    0.00 PKD
ROOT
HETATM    1  C   UNL     1     -12.358  11.305  71.138  1.00  0.00    -0.429 C  
HETATM    2  C   UNL     1     -11.849  11.456  69.729  1.00  0.00    -0.364 C  
HETATM    3  O   UNL     1     -11.410  10.490  69.114  1.00  0.00    -0.242 OA 
HETATM    4  N   UNL     1     -11.931  12.763  69.279  1.00  0.00    -0.276 N  
HETATM    5  H   UNL     1     -12.330  13.447  69.922  1.00  0.00     0.000 HD 
ENDROOT
BRANCH   4   6
HETATM    6  C   UNL     1     -11.515  13.242  68.018  1.00  0.00    -0.309 A  
HETATM    7  C   UNL     1     -12.396  13.743  67.055  1.00  0.00    -0.289 A  
HETATM    8  C   UNL     1     -11.930  14.142  65.798  1.00  0.00    -0.410 A  
HETATM    9  C   UNL     1     -10.576  14.042  65.508  1.00  0.00    -0.318 A  
HETATM   10  C   UNL     1      -9.678  13.591  66.466  1.00  0.00    -0.287 A  
HETATM   11  O   UNL     1     -10.088  14.371  64.279  1.00  0.00    -0.532 OA 
HETATM   12  H   UNL     1      -9.162  14.303  64.081  1.00  0.00     0.000 HD 
HETATM   13  C   UNL     1     -10.146  13.199  67.724  1.00  0.00    -0.226 A  
ENDBRANCH   4   6
TORSDOF 1
ENDMDL
MODEL       74
REMARK 921   NORMALIZED FREE ENERGY PREDICTED BY IDOCK:   -3.39 KCAL/MOL
REMARK 922        TOTAL FREE ENERGY PREDICTED BY IDOCK:   -3.76 KCAL/MOL
REMARK 923 INTER-LIGAND FREE ENERGY PREDICTED BY IDOCK:   -3.59 KCAL/MOL
REMARK 924 INTRA-LIGAND FREE ENERGY PREDICTED BY IDOCK:   -0.16 KCAL/MOL
REMARK 927      BINDING AFFINITY PREDICTED BY RF-SCORE:    0.00 PKD
ROOT
HETATM    1  C   UNL     1     -13.727  14.998  71.292  1.00  0.00    -0.523 C  
HETATM    2  C   UNL     1     -12.407  15.703  71.126  1.00  0.00    -0.427 C  
HETATM    3  O   UNL     1     -11.950  16.399  72.027  1.00  0.00    -0.493 OA 
HETATM    4  N   UNL     1     -11.843  15.474  69.883  1.00  0.00    -0.339 N  
HETATM    5  H   UNL     1     -12.357  14.861  69.250  1.00  0.00     0.000 HD 
ENDROOT
BRANCH   4   6
HETATM    6  C   UNL     1     -10.627  16.007  69.404  1.00  0.00    -0.275 A  
HETATM    7  C   UNL     1      -9.416  15.308  69.428  1.00  0.00    -0.231 A  
HETATM    8  C   UNL     1      -8.231  15.915  68.999  1.00  0.00    -0.234 A  
HETATM    9  C   UNL     1      -8.262  17.226  68.542  1.00  0.00    -0.267 A  
HETATM   10  C   UNL     1      -9.460  17.921  68.467  1.00  0.00    -0.316 A  
HETATM   11  O   UNL     1      -7.122  17.870  68.164  1.00  0.00    -0.211 OA 
HETATM   12  H   UNL     1      -7.143  18.767  67.851  1.00  0.00     0.000 HD 
HETATM   13  C   UNL     1     -10.645  17.310  68.889  1.00  0.00    -0.276 A  
ENDBRANCH   4   6
TORSDOF 1
ENDMDL
MODEL       75
REMARK 921   NORMALIZED FREE ENERGY PREDICTED BY IDOCK:   -3.38 KCAL/MOL
REMARK 922        TOTAL FREE ENERGY PREDICTED BY IDOCK:   -3.75 KCAL/MOL
REMARK 923 INTER-LIGAND FREE ENERGY PREDICTED BY IDOCK:   -3.58 KCAL/MOL
REMARK 924 INTRA-LIGAND FREE ENERGY PREDICTED BY IDOCK:   -0.17 KCAL/MOL
REMARK 927      BINDING AFFINITY PREDICTED BY RF-SCORE:    0.00 PKD
ROOT
HETATM    1  C   UNL     1     -11.055  14.100  64.459  1.00  0.00    -0.340 C  
HETATM    2  C   UNL     1     -10.313  14.690  65.630  1.00  0.00    -0.351 C  
HETATM    3  O   UNL     1      -9.864  13.971  66.515  1.00  0.00    -0.272 OA 
HETATM    4  N   UNL     1     -10.241  16.071  65.563  1.00  0.00    -0.376 N  
HETATM    5  H   UNL     1     -10.666  16.515  64.748  1.00  0.00     0.000 HD 
ENDROOT
BRANCH   4   6
HETATM    6  C   UNL     1      -9.639  16.926  66.510  1.00  0.00    -0.278 A  
HETATM    7  C   UNL     1     -10.334  17.512  67.572  1.00  0.00    -0.356 A  
HETATM    8  C   UNL     1      -9.695  18.403  68.441  1.00  0.00    -0.379 A  
HETATM    9  C   UNL     1      -8.354  18.704  68.245  1.00  0.00    -0.324 A  
HETATM   10  C   UNL     1      -7.634  18.098  67.224  1.00  0.00    -0.227 A  
HETATM   11  O   UNL     1      -7.707  19.606  69.036  1.00  0.00    -0.347 OA 
HETATM   12  H   UNL     1      -6.790  19.812  68.902  1.00  0.00     0.000 HD 
HETATM   13  C   UNL     1      -8.273  17.202  66.362  1.00  0.00    -0.327 A  
ENDBRANCH   4   6
TORSDOF 1
ENDMDL
MODEL       76
REMARK 921   NORMALIZED FREE ENERGY PREDICTED BY IDOCK:   -3.36 KCAL/MOL
REMARK 922        TOTAL FREE ENERGY PREDICTED BY IDOCK:   -3.73 KCAL/MOL
REMARK 923 INTER-LIGAND FREE ENERGY PREDICTED BY IDOCK:   -3.57 KCAL/MOL
REMARK 924 INTRA-LIGAND FREE ENERGY PREDICTED BY IDOCK:   -0.16 KCAL/MOL
REMARK 927      BINDING AFFINITY PREDICTED BY RF-SCORE:    0.00 PKD
ROOT
HETATM    1  C   UNL     1      -6.258  16.895  69.609  1.00  0.00    -0.225 C  
HETATM    2  C   UNL     1      -7.563  16.511  68.962  1.00  0.00    -0.233 C  
HETATM    3  O   UNL     1      -8.443  15.954  69.608  1.00  0.00    -0.170 OA 
HETATM    4  N   UNL     1      -7.600  16.845  67.618  1.00  0.00    -0.161 N  
HETATM    5  H   UNL     1      -6.777  17.314  67.238  1.00  0.00     0.000 HD 
ENDROOT
BRANCH   4   6
HETATM    6  C   UNL     1      -8.663  16.601  66.724  1.00  0.00    -0.226 A  
HETATM    7  C   UNL     1      -8.914  15.353  66.146  1.00  0.00    -0.294 A  
HETATM    8  C   UNL     1      -9.945  15.190  65.215  1.00  0.00    -0.325 A  
HETATM    9  C   UNL     1     -10.729  16.281  64.865  1.00  0.00    -0.234 A  
HETATM   10  C   UNL     1     -10.526  17.518  65.461  1.00  0.00    -0.077 A  
HETATM   11  O   UNL     1     -11.709  16.177  63.925  1.00  0.00    -1.348 OA 
HETATM   12  H   UNL     1     -12.246  16.923  63.685  1.00  0.00     0.000 HD 
HETATM   13  C   UNL     1      -9.499  17.677  66.397  1.00  0.00    -0.274 A  
ENDBRANCH   4   6
TORSDOF 1
ENDMDL
MODEL       77
REMARK 921   NORMALIZED FREE ENERGY PREDICTED BY IDOCK:   -3.35 KCAL/MOL
REMARK 922        TOTAL FREE ENERGY PREDICTED BY IDOCK:   -3.72 KCAL/MOL
REMARK 923 INTER-LIGAND FREE ENERGY PREDICTED BY IDOCK:   -4.06 KCAL/MOL
REMARK 924 INTRA-LIGAND FREE ENERGY PREDICTED BY IDOCK:    0.34 KCAL/MOL
REMARK 927      BINDING AFFINITY PREDICTED BY RF-SCORE:    0.00 PKD
ROOT
HETATM    1  C   UNL     1     -12.966   9.962  71.484  1.00  0.00    -0.523 C  
HETATM    2  C   UNL     1     -12.824  11.438  71.224  1.00  0.00    -0.379 C  
HETATM    3  O   UNL     1     -13.180  12.260  72.061  1.00  0.00    -0.494 OA 
HETATM    4  N   UNL     1     -12.286  11.701  69.975  1.00  0.00    -0.285 N  
HETATM    5  H   UNL     1     -12.037  10.895  69.402  1.00  0.00     0.000 HD 
ENDROOT
BRANCH   4   6
HETATM    6  C   UNL     1     -12.047  12.976  69.418  1.00  0.00    -0.212 A  
HETATM    7  C   UNL     1     -12.007  13.220  68.042  1.00  0.00    -0.351 A  
HETATM    8  C   UNL     1     -11.700  14.494  67.551  1.00  0.00    -0.413 A  
HETATM    9  C   UNL     1     -11.436  15.525  68.443  1.00  0.00    -0.363 A  
HETATM   10  C   UNL     1     -11.516  15.314  69.812  1.00  0.00    -0.332 A  
HETATM   11  O   UNL     1     -11.084  16.766  68.006  1.00  0.00    -0.336 OA 
HETATM   12  H   UNL     1     -10.904  17.472  68.615  1.00  0.00     0.000 HD 
HETATM   13  C   UNL     1     -11.830  14.042  70.301  1.00  0.00    -0.373 A  
ENDBRANCH   4   6
TORSDOF 1
ENDMDL
MODEL       78
REMARK 921   NORMALIZED FREE ENERGY PREDICTED BY IDOCK:   -3.35 KCAL/MOL
REMARK 922        TOTAL FREE ENERGY PREDICTED BY IDOCK:   -3.71 KCAL/MOL
REMARK 923 INTER-LIGAND FREE ENERGY PREDICTED BY IDOCK:   -3.56 KCAL/MOL
REMARK 924 INTRA-LIGAND FREE ENERGY PREDICTED BY IDOCK:   -0.15 KCAL/MOL
REMARK 927      BINDING AFFINITY PREDICTED BY RF-SCORE:    0.00 PKD
ROOT
HETATM    1  C   UNL     1      -7.267  19.952  65.785  1.00  0.00    -0.329 C  
HETATM    2  C   UNL     1      -7.794  18.655  66.339  1.00  0.00    -0.283 C  
HETATM    3  O   UNL     1      -7.033  17.731  66.605  1.00  0.00    -0.178 OA 
HETATM    4  N   UNL     1      -9.172  18.664  66.474  1.00  0.00    -0.317 N  
HETATM    5  H   UNL     1      -9.655  19.523  66.210  1.00  0.00     0.000 HD 
ENDROOT
BRANCH   4   6
HETATM    6  C   UNL     1      -9.975  17.601  66.939  1.00  0.00    -0.323 A  
HETATM    7  C   UNL     1     -10.492  17.535  68.236  1.00  0.00    -0.383 A  
HETATM    8  C   UNL     1     -11.227  16.422  68.658  1.00  0.00    -0.332 A  
HETATM    9  C   UNL     1     -11.447  15.374  67.774  1.00  0.00    -0.278 A  
HETATM   10  C   UNL     1     -10.981  15.439  66.469  1.00  0.00    -0.271 A  
HETATM   11  O   UNL     1     -12.113  14.250  68.161  1.00  0.00    -0.495 OA 
HETATM   12  H   UNL     1     -12.264  13.533  67.557  1.00  0.00     0.000 HD 
HETATM   13  C   UNL     1     -10.253  16.556  66.047  1.00  0.00    -0.372 A  
ENDBRANCH   4   6
TORSDOF 1
ENDMDL
MODEL       79
REMARK 921   NORMALIZED FREE ENERGY PREDICTED BY IDOCK:   -3.35 KCAL/MOL
REMARK 922        TOTAL FREE ENERGY PREDICTED BY IDOCK:   -3.71 KCAL/MOL
REMARK 923 INTER-LIGAND FREE ENERGY PREDICTED BY IDOCK:   -3.68 KCAL/MOL
REMARK 924 INTRA-LIGAND FREE ENERGY PREDICTED BY IDOCK:   -0.03 KCAL/MOL
REMARK 927      BINDING AFFINITY PREDICTED BY RF-SCORE:    0.00 PKD
ROOT
HETATM    1  C   UNL     1      -8.908   9.401  63.588  1.00  0.00    -0.198 C  
HETATM    2  C   UNL     1      -9.179  10.321  64.750  1.00  0.00    -0.241 C  
HETATM    3  O   UNL     1      -8.325  10.515  65.608  1.00  0.00    -0.158 OA 
HETATM    4  N   UNL     1     -10.455  10.857  64.709  1.00  0.00    -0.325 N  
HETATM    5  H   UNL     1     -11.039  10.593  63.915  1.00  0.00     0.000 HD 
ENDROOT
BRANCH   4   6
HETATM    6  C   UNL     1     -11.027  11.732  65.657  1.00  0.00    -0.295 A  
HETATM    7  C   UNL     1     -11.472  13.020  65.347  1.00  0.00    -0.344 A  
HETATM    8  C   UNL     1     -11.970  13.864  66.346  1.00  0.00    -0.467 A  
HETATM    9  C   UNL     1     -12.024  13.412  67.658  1.00  0.00    -0.322 A  
HETATM   10  C   UNL     1     -11.630  12.121  67.978  1.00  0.00    -0.411 A  
HETATM   11  O   UNL     1     -12.454  14.220  68.667  1.00  0.00    -0.568 OA 
HETATM   12  H   UNL     1     -12.491  13.911  69.565  1.00  0.00     0.000 HD 
HETATM   13  C   UNL     1     -11.140  11.277  66.977  1.00  0.00    -0.356 A  
ENDBRANCH   4   6
TORSDOF 1
ENDMDL
MODEL       80
REMARK 921   NORMALIZED FREE ENERGY PREDICTED BY IDOCK:   -3.34 KCAL/MOL
REMARK 922        TOTAL FREE ENERGY PREDICTED BY IDOCK:   -3.70 KCAL/MOL
REMARK 923 INTER-LIGAND FREE ENERGY PREDICTED BY IDOCK:   -3.93 KCAL/MOL
REMARK 924 INTRA-LIGAND FREE ENERGY PREDICTED BY IDOCK:    0.23 KCAL/MOL
REMARK 927      BINDING AFFINITY PREDICTED BY RF-SCORE:    0.00 PKD
ROOT
HETATM    1  C   UNL     1     -11.934  13.009  63.398  1.00  0.00    -0.592 C  
HETATM    2  C   UNL     1     -11.345  12.193  64.519  1.00  0.00    -0.334 C  
HETATM    3  O   UNL     1     -10.478  11.355  64.295  1.00  0.00    -0.292 OA 
HETATM    4  N   UNL     1     -11.909  12.501  65.745  1.00  0.00    -0.429 N  
HETATM    5  H   UNL     1     -12.620  13.233  65.754  1.00  0.00     0.000 HD 
ENDROOT
BRANCH   4   6
HETATM    6  C   UNL     1     -11.598  11.902  66.984  1.00  0.00    -0.291 A  
HETATM    7  C   UNL     1     -11.021  10.634  67.105  1.00  0.00    -0.312 A  
HETATM    8  C   UNL     1     -10.797  10.067  68.363  1.00  0.00    -0.277 A  
HETATM    9  C   UNL     1     -11.150  10.775  69.505  1.00  0.00    -0.278 A  
HETATM   10  C   UNL     1     -11.682  12.053  69.408  1.00  0.00    -0.402 A  
HETATM   11  O   UNL     1     -10.996  10.238  70.747  1.00  0.00    -0.361 OA 
HETATM   12  H   UNL     1     -11.237  10.722  71.528  1.00  0.00     0.000 HD 
HETATM   13  C   UNL     1     -11.898  12.621  68.148  1.00  0.00    -0.366 A  
ENDBRANCH   4   6
TORSDOF 1
ENDMDL
MODEL       81
REMARK 921   NORMALIZED FREE ENERGY PREDICTED BY IDOCK:   -3.34 KCAL/MOL
REMARK 922        TOTAL FREE ENERGY PREDICTED BY IDOCK:   -3.70 KCAL/MOL
REMARK 923 INTER-LIGAND FREE ENERGY PREDICTED BY IDOCK:   -3.96 KCAL/MOL
REMARK 924 INTRA-LIGAND FREE ENERGY PREDICTED BY IDOCK:    0.26 KCAL/MOL
REMARK 927      BINDING AFFINITY PREDICTED BY RF-SCORE:    0.00 PKD
ROOT
HETATM    1  C   UNL     1     -12.654  10.555  71.689  1.00  0.00    -0.498 C  
HETATM    2  C   UNL     1     -12.073  11.370  70.564  1.00  0.00    -0.394 C  
HETATM    3  O   UNL     1     -11.501  10.825  69.626  1.00  0.00    -0.254 OA 
HETATM    4  N   UNL     1     -12.256  12.730  70.751  1.00  0.00    -0.461 N  
HETATM    5  H   UNL     1     -12.763  13.014  71.590  1.00  0.00     0.000 HD 
ENDROOT
BRANCH   4   6
HETATM    6  C   UNL     1     -11.811  13.760  69.896  1.00  0.00    -0.327 A  
HETATM    7  C   UNL     1     -11.398  15.016  70.352  1.00  0.00    -0.309 A  
HETATM    8  C   UNL     1     -11.030  16.019  69.449  1.00  0.00    -0.321 A  
HETATM    9  C   UNL     1     -11.074  15.761  68.086  1.00  0.00    -0.341 A  
HETATM   10  C   UNL     1     -11.437  14.507  67.614  1.00  0.00    -0.374 A  
HETATM   11  O   UNL     1     -10.773  16.726  67.172  1.00  0.00    -0.287 OA 
HETATM   12  H   UNL     1     -10.802  16.549  66.239  1.00  0.00     0.000 HD 
HETATM   13  C   UNL     1     -11.797  13.503  68.519  1.00  0.00    -0.398 A  
ENDBRANCH   4   6
TORSDOF 1
ENDMDL
MODEL       82
REMARK 921   NORMALIZED FREE ENERGY PREDICTED BY IDOCK:   -3.34 KCAL/MOL
REMARK 922        TOTAL FREE ENERGY PREDICTED BY IDOCK:   -3.70 KCAL/MOL
REMARK 923 INTER-LIGAND FREE ENERGY PREDICTED BY IDOCK:   -3.53 KCAL/MOL
REMARK 924 INTRA-LIGAND FREE ENERGY PREDICTED BY IDOCK:   -0.17 KCAL/MOL
REMARK 927      BINDING AFFINITY PREDICTED BY RF-SCORE:    0.00 PKD
ROOT
HETATM    1  C   UNL     1     -10.057   9.078  66.421  1.00  0.00    -0.351 C  
HETATM    2  C   UNL     1      -9.724   8.502  67.772  1.00  0.00    -0.162 C  
HETATM    3  O   UNL     1      -8.619   8.019  67.993  1.00  0.00    -0.128 OA 
HETATM    4  N   UNL     1     -10.789   8.580  68.653  1.00  0.00    -0.434 N  
HETATM    5  H   UNL     1     -11.641   9.021  68.306  1.00  0.00     0.000 HD 
ENDROOT
BRANCH   4   6
HETATM    6  C   UNL     1     -10.812   8.110  69.984  1.00  0.00    -0.233 A  
HETATM    7  C   UNL     1     -11.330   6.865  70.352  1.00  0.00    -0.376 A  
HETATM    8  C   UNL     1     -11.385   6.483  71.697  1.00  0.00    -0.332 A  
HETATM    9  C   UNL     1     -10.915   7.352  72.674  1.00  0.00    -0.317 A  
HETATM   10  C   UNL     1     -10.356   8.573  72.325  1.00  0.00    -0.402 A  
HETATM   11  O   UNL     1     -10.997   7.039  73.997  1.00  0.00    -0.478 OA 
HETATM   12  H   UNL     1     -10.676   7.633  74.665  1.00  0.00     0.000 HD 
HETATM   13  C   UNL     1     -10.295   8.949  70.980  1.00  0.00    -0.321 A  
ENDBRANCH   4   6
TORSDOF 1
ENDMDL
MODEL       83
REMARK 921   NORMALIZED FREE ENERGY PREDICTED BY IDOCK:   -3.31 KCAL/MOL
REMARK 922        TOTAL FREE ENERGY PREDICTED BY IDOCK:   -3.67 KCAL/MOL
REMARK 923 INTER-LIGAND FREE ENERGY PREDICTED BY IDOCK:   -3.57 KCAL/MOL
REMARK 924 INTRA-LIGAND FREE ENERGY PREDICTED BY IDOCK:   -0.11 KCAL/MOL
REMARK 927      BINDING AFFINITY PREDICTED BY RF-SCORE:    0.00 PKD
ROOT
HETATM    1  C   UNL     1     -10.837   6.163  66.613  1.00  0.00    -0.279 C  
HETATM    2  C   UNL     1     -10.322   6.339  68.017  1.00  0.00    -0.192 C  
HETATM    3  O   UNL     1      -9.131   6.194  68.271  1.00  0.00    -0.115 OA 
HETATM    4  N   UNL     1     -11.332   6.648  68.912  1.00  0.00    -0.581 N  
HETATM    5  H   UNL     1     -12.274   6.738  68.529  1.00  0.00     0.000 HD 
ENDROOT
BRANCH   4   6
HETATM    6  C   UNL     1     -11.188   6.851  70.301  1.00  0.00    -0.316 A  
HETATM    7  C   UNL     1     -11.315   8.101  70.915  1.00  0.00    -0.286 A  
HETATM    8  C   UNL     1     -11.095   8.249  72.288  1.00  0.00    -0.429 A  
HETATM    9  C   UNL     1     -10.751   7.139  73.048  1.00  0.00    -0.321 A  
HETATM   10  C   UNL     1     -10.664   5.882  72.466  1.00  0.00    -0.274 A  
HETATM   11  O   UNL     1     -10.478   7.248  74.379  1.00  0.00    -0.456 OA 
HETATM   12  H   UNL     1     -10.243   6.489  74.899  1.00  0.00     0.000 HD 
HETATM   13  C   UNL     1     -10.892   5.735  71.094  1.00  0.00    -0.316 A  
ENDBRANCH   4   6
TORSDOF 1
ENDMDL
MODEL       84
REMARK 921   NORMALIZED FREE ENERGY PREDICTED BY IDOCK:   -3.30 KCAL/MOL
REMARK 922        TOTAL FREE ENERGY PREDICTED BY IDOCK:   -3.66 KCAL/MOL
REMARK 923 INTER-LIGAND FREE ENERGY PREDICTED BY IDOCK:   -3.49 KCAL/MOL
REMARK 924 INTRA-LIGAND FREE ENERGY PREDICTED BY IDOCK:   -0.17 KCAL/MOL
REMARK 927      BINDING AFFINITY PREDICTED BY RF-SCORE:    0.00 PKD
ROOT
HETATM    1  C   UNL     1     -10.487  12.843  64.815  1.00  0.00    -0.371 C  
HETATM    2  C   UNL     1     -10.052  13.842  65.856  1.00  0.00    -0.313 C  
HETATM    3  O   UNL     1      -9.967  13.521  67.036  1.00  0.00    -0.238 OA 
HETATM    4  N   UNL     1      -9.799  15.090  65.312  1.00  0.00    -0.390 N  
HETATM    5  H   UNL     1      -9.914  15.183  64.303  1.00  0.00     0.000 HD 
ENDROOT
BRANCH   4   6
HETATM    6  C   UNL     1      -9.400  16.245  66.017  1.00  0.00    -0.326 A  
HETATM    7  C   UNL     1      -8.077  16.505  66.386  1.00  0.00    -0.362 A  
HETATM    8  C   UNL     1      -7.754  17.637  67.142  1.00  0.00    -0.228 A  
HETATM    9  C   UNL     1      -8.762  18.512  67.526  1.00  0.00    -0.262 A  
HETATM   10  C   UNL     1     -10.074  18.297  67.130  1.00  0.00    -0.367 A  
HETATM   11  O   UNL     1      -8.497  19.598  68.305  1.00  0.00    -0.325 OA 
HETATM   12  H   UNL     1      -9.186  20.197  68.567  1.00  0.00     0.000 HD 
HETATM   13  C   UNL     1     -10.394  17.169  66.369  1.00  0.00    -0.307 A  
ENDBRANCH   4   6
TORSDOF 1
ENDMDL
MODEL       85
REMARK 921   NORMALIZED FREE ENERGY PREDICTED BY IDOCK:   -3.29 KCAL/MOL
REMARK 922        TOTAL FREE ENERGY PREDICTED BY IDOCK:   -3.66 KCAL/MOL
REMARK 923 INTER-LIGAND FREE ENERGY PREDICTED BY IDOCK:   -3.49 KCAL/MOL
REMARK 924 INTRA-LIGAND FREE ENERGY PREDICTED BY IDOCK:   -0.16 KCAL/MOL
REMARK 927      BINDING AFFINITY PREDICTED BY RF-SCORE:    0.00 PKD
ROOT
HETATM    1  C   UNL     1      -5.308  17.534  70.591  1.00  0.00    -0.253 C  
HETATM    2  C   UNL     1      -6.350  17.474  69.505  1.00  0.00    -0.230 C  
HETATM    3  O   UNL     1      -6.664  16.404  68.996  1.00  0.00    -0.166 OA 
HETATM    4  N   UNL     1      -6.846  18.726  69.184  1.00  0.00    -0.286 N  
HETATM    5  H   UNL     1      -6.477  19.517  69.714  1.00  0.00     0.000 HD 
ENDROOT
BRANCH   4   6
HETATM    6  C   UNL     1      -7.811  19.017  68.197  1.00  0.00    -0.300 A  
HETATM    7  C   UNL     1      -7.489  19.469  66.914  1.00  0.00    -0.251 A  
HETATM    8  C   UNL     1      -8.494  19.803  66.000  1.00  0.00    -0.304 A  
HETATM    9  C   UNL     1      -9.826  19.681  66.374  1.00  0.00    -0.437 A  
HETATM   10  C   UNL     1     -10.167  19.190  67.627  1.00  0.00    -0.492 A  
HETATM   11  O   UNL     1     -10.834  20.044  65.533  1.00  0.00    -0.381 OA 
HETATM   12  H   UNL     1     -11.745  19.960  65.788  1.00  0.00     0.000 HD 
HETATM   13  C   UNL     1      -9.160  18.850  68.536  1.00  0.00    -0.392 A  
ENDBRANCH   4   6
TORSDOF 1
ENDMDL
MODEL       86
REMARK 921   NORMALIZED FREE ENERGY PREDICTED BY IDOCK:   -3.28 KCAL/MOL
REMARK 922        TOTAL FREE ENERGY PREDICTED BY IDOCK:   -3.64 KCAL/MOL
REMARK 923 INTER-LIGAND FREE ENERGY PREDICTED BY IDOCK:   -3.53 KCAL/MOL
REMARK 924 INTRA-LIGAND FREE ENERGY PREDICTED BY IDOCK:   -0.11 KCAL/MOL
REMARK 927      BINDING AFFINITY PREDICTED BY RF-SCORE:    0.00 PKD
ROOT
HETATM    1  C   UNL     1      -9.262   8.417  65.959  1.00  0.00    -0.247 C  
HETATM    2  C   UNL     1      -9.547   9.874  66.212  1.00  0.00    -0.209 C  
HETATM    3  O   UNL     1      -8.799  10.743  65.777  1.00  0.00    -0.177 OA 
HETATM    4  N   UNL     1     -10.690  10.062  66.970  1.00  0.00    -0.213 N  
HETATM    5  H   UNL     1     -11.202   9.224  67.245  1.00  0.00     0.000 HD 
ENDROOT
BRANCH   4   6
HETATM    6  C   UNL     1     -11.216  11.299  67.399  1.00  0.00    -0.303 A  
HETATM    7  C   UNL     1     -11.708  12.273  66.526  1.00  0.00    -0.420 A  
HETATM    8  C   UNL     1     -12.156  13.507  67.009  1.00  0.00    -0.401 A  
HETATM    9  C   UNL     1     -12.114  13.762  68.373  1.00  0.00    -0.289 A  
HETATM   10  C   UNL     1     -11.673  12.792  69.261  1.00  0.00    -0.376 A  
HETATM   11  O   UNL     1     -12.493  14.969  68.880  1.00  0.00    -0.585 OA 
HETATM   12  H   UNL     1     -12.464  15.144  69.813  1.00  0.00     0.000 HD 
HETATM   13  C   UNL     1     -11.232  11.556  68.777  1.00  0.00    -0.309 A  
ENDBRANCH   4   6
TORSDOF 1
ENDMDL
MODEL       87
REMARK 921   NORMALIZED FREE ENERGY PREDICTED BY IDOCK:   -3.25 KCAL/MOL
REMARK 922        TOTAL FREE ENERGY PREDICTED BY IDOCK:   -3.61 KCAL/MOL
REMARK 923 INTER-LIGAND FREE ENERGY PREDICTED BY IDOCK:   -3.44 KCAL/MOL
REMARK 924 INTRA-LIGAND FREE ENERGY PREDICTED BY IDOCK:   -0.17 KCAL/MOL
REMARK 927      BINDING AFFINITY PREDICTED BY RF-SCORE:    0.00 PKD
ROOT
HETATM    1  C   UNL     1     -10.780   3.894  64.571  1.00  0.00    -0.172 C  
HETATM    2  C   UNL     1     -10.175   4.736  65.664  1.00  0.00    -0.188 C  
HETATM    3  O   UNL     1      -8.992   4.620  65.962  1.00  0.00    -0.118 OA 
HETATM    4  N   UNL     1     -11.102   5.583  66.247  1.00  0.00    -0.770 N  
HETATM    5  H   UNL     1     -12.050   5.557  65.871  1.00  0.00     0.000 HD 
ENDROOT
BRANCH   4   6
HETATM    6  C   UNL     1     -10.864   6.480  67.310  1.00  0.00    -0.390 A  
HETATM    7  C   UNL     1     -10.980   6.127  68.658  1.00  0.00    -0.415 A  
HETATM    8  C   UNL     1     -10.795   7.080  69.665  1.00  0.00    -0.275 A  
HETATM    9  C   UNL     1     -10.489   8.390  69.319  1.00  0.00    -0.215 A  
HETATM   10  C   UNL     1     -10.323   8.750  67.989  1.00  0.00    -0.273 A  
HETATM   11  O   UNL     1     -10.351   9.358  70.267  1.00  0.00    -0.209 OA 
HETATM   12  H   UNL     1     -10.141  10.254  70.031  1.00  0.00     0.000 HD 
HETATM   13  C   UNL     1     -10.502   7.794  66.984  1.00  0.00    -0.419 A  
ENDBRANCH   4   6
TORSDOF 1
ENDMDL
MODEL       88
REMARK 921   NORMALIZED FREE ENERGY PREDICTED BY IDOCK:   -3.25 KCAL/MOL
REMARK 922        TOTAL FREE ENERGY PREDICTED BY IDOCK:   -3.61 KCAL/MOL
REMARK 923 INTER-LIGAND FREE ENERGY PREDICTED BY IDOCK:   -3.43 KCAL/MOL
REMARK 924 INTRA-LIGAND FREE ENERGY PREDICTED BY IDOCK:   -0.17 KCAL/MOL
REMARK 927      BINDING AFFINITY PREDICTED BY RF-SCORE:    0.00 PKD
ROOT
HETATM    1  C   UNL     1      -8.558   3.837  69.406  1.00  0.00    -0.113 C  
HETATM    2  C   UNL     1      -9.507   4.424  70.417  1.00  0.00    -0.175 C  
HETATM    3  O   UNL     1      -9.958   3.736  71.326  1.00  0.00    -0.175 OA 
HETATM    4  N   UNL     1      -9.782   5.757  70.166  1.00  0.00    -0.164 N  
HETATM    5  H   UNL     1      -9.314   6.181  69.365  1.00  0.00     0.000 HD 
ENDROOT
BRANCH   4   6
HETATM    6  C   UNL     1     -10.648   6.588  70.908  1.00  0.00    -0.230 A  
HETATM    7  C   UNL     1     -10.234   7.351  72.004  1.00  0.00    -0.221 A  
HETATM    8  C   UNL     1     -11.154   8.105  72.740  1.00  0.00    -0.407 A  
HETATM    9  C   UNL     1     -12.493   8.094  72.375  1.00  0.00    -0.262 A  
HETATM   10  C   UNL     1     -12.918   7.380  71.263  1.00  0.00    -0.358 A  
HETATM   11  O   UNL     1     -13.429   8.773  73.095  1.00  0.00    -0.953 OA 
HETATM   12  H   UNL     1     -14.346   8.766  72.845  1.00  0.00     0.000 HD 
HETATM   13  C   UNL     1     -11.995   6.634  70.524  1.00  0.00    -0.377 A  
ENDBRANCH   4   6
TORSDOF 1
ENDMDL
MODEL       89
REMARK 921   NORMALIZED FREE ENERGY PREDICTED BY IDOCK:   -3.18 KCAL/MOL
REMARK 922        TOTAL FREE ENERGY PREDICTED BY IDOCK:   -3.54 KCAL/MOL
REMARK 923 INTER-LIGAND FREE ENERGY PREDICTED BY IDOCK:   -3.37 KCAL/MOL
REMARK 924 INTRA-LIGAND FREE ENERGY PREDICTED BY IDOCK:   -0.17 KCAL/MOL
REMARK 927      BINDING AFFINITY PREDICTED BY RF-SCORE:    0.00 PKD
ROOT
HETATM    1  C   UNL     1     -13.571   9.071  72.326  1.00  0.00    -0.540 C  
HETATM    2  C   UNL     1     -12.282   8.346  72.040  1.00  0.00    -0.362 C  
HETATM    3  O   UNL     1     -11.506   8.066  72.947  1.00  0.00    -0.411 OA 
HETATM    4  N   UNL     1     -12.116   8.084  70.691  1.00  0.00    -0.495 N  
HETATM    5  H   UNL     1     -12.867   8.383  70.068  1.00  0.00     0.000 HD 
ENDROOT
BRANCH   4   6
HETATM    6  C   UNL     1     -11.010   7.444  70.092  1.00  0.00    -0.255 A  
HETATM    7  C   UNL     1      -9.824   8.105  69.757  1.00  0.00    -0.187 A  
HETATM    8  C   UNL     1      -8.788   7.429  69.105  1.00  0.00    -0.136 A  
HETATM    9  C   UNL     1      -8.940   6.085  68.791  1.00  0.00    -0.118 A  
HETATM   10  C   UNL     1     -10.090   5.399  69.155  1.00  0.00    -0.293 A  
HETATM   11  O   UNL     1      -7.976   5.404  68.111  1.00  0.00    -0.094 OA 
HETATM   12  H   UNL     1      -8.080   4.484  67.896  1.00  0.00     0.000 HD 
HETATM   13  C   UNL     1     -11.122   6.075  69.814  1.00  0.00    -0.476 A  
ENDBRANCH   4   6
TORSDOF 1
ENDMDL
MODEL       90
REMARK 921   NORMALIZED FREE ENERGY PREDICTED BY IDOCK:   -3.17 KCAL/MOL
REMARK 922        TOTAL FREE ENERGY PREDICTED BY IDOCK:   -3.52 KCAL/MOL
REMARK 923 INTER-LIGAND FREE ENERGY PREDICTED BY IDOCK:   -3.49 KCAL/MOL
REMARK 924 INTRA-LIGAND FREE ENERGY PREDICTED BY IDOCK:   -0.04 KCAL/MOL
REMARK 927      BINDING AFFINITY PREDICTED BY RF-SCORE:    0.00 PKD
ROOT
HETATM    1  C   UNL     1     -12.512  12.168  63.385  1.00  0.00    -0.625 C  
HETATM    2  C   UNL     1     -11.345  12.678  64.189  1.00  0.00    -0.383 C  
HETATM    3  O   UNL     1     -10.196  12.543  63.782  1.00  0.00    -0.416 OA 
HETATM    4  N   UNL     1     -11.743  13.261  65.380  1.00  0.00    -0.329 N  
HETATM    5  H   UNL     1     -12.746  13.296  65.562  1.00  0.00     0.000 HD 
ENDROOT
BRANCH   4   6
HETATM    6  C   UNL     1     -10.898  13.812  66.366  1.00  0.00    -0.287 A  
HETATM    7  C   UNL     1      -9.844  13.110  66.959  1.00  0.00    -0.244 A  
HETATM    8  C   UNL     1      -9.083  13.690  67.979  1.00  0.00    -0.192 A  
HETATM    9  C   UNL     1      -9.378  14.978  68.404  1.00  0.00    -0.193 A  
HETATM   10  C   UNL     1     -10.390  15.709  67.798  1.00  0.00    -0.266 A  
HETATM   11  O   UNL     1      -8.694  15.560  69.429  1.00  0.00    -0.246 OA 
HETATM   12  H   UNL     1      -8.896  16.441  69.720  1.00  0.00     0.000 HD 
HETATM   13  C   UNL     1     -11.145  15.130  66.773  1.00  0.00    -0.307 A  
ENDBRANCH   4   6
TORSDOF 1
ENDMDL
MODEL       91
REMARK 921   NORMALIZED FREE ENERGY PREDICTED BY IDOCK:   -3.16 KCAL/MOL
REMARK 922        TOTAL FREE ENERGY PREDICTED BY IDOCK:   -3.51 KCAL/MOL
REMARK 923 INTER-LIGAND FREE ENERGY PREDICTED BY IDOCK:   -3.35 KCAL/MOL
REMARK 924 INTRA-LIGAND FREE ENERGY PREDICTED BY IDOCK:   -0.16 KCAL/MOL
REMARK 927      BINDING AFFINITY PREDICTED BY RF-SCORE:    0.00 PKD
ROOT
HETATM    1  C   UNL     1     -10.607   3.954  64.811  1.00  0.00    -0.133 C  
HETATM    2  C   UNL     1     -10.101   4.838  65.921  1.00  0.00    -0.242 C  
HETATM    3  O   UNL     1      -8.963   4.708  66.356  1.00  0.00    -0.112 OA 
HETATM    4  N   UNL     1     -11.060   5.740  66.351  1.00  0.00    -0.767 N  
HETATM    5  H   UNL     1     -11.960   5.718  65.873  1.00  0.00     0.000 HD 
ENDROOT
BRANCH   4   6
HETATM    6  C   UNL     1     -10.913   6.687  67.388  1.00  0.00    -0.360 A  
HETATM    7  C   UNL     1     -10.595   8.030  67.166  1.00  0.00    -0.367 A  
HETATM    8  C   UNL     1     -10.398   8.905  68.239  1.00  0.00    -0.250 A  
HETATM    9  C   UNL     1     -10.525   8.432  69.539  1.00  0.00    -0.224 A  
HETATM   10  C   UNL     1     -10.886   7.114  69.780  1.00  0.00    -0.261 A  
HETATM   11  O   UNL     1     -10.292   9.238  70.612  1.00  0.00    -0.222 OA 
HETATM   12  H   UNL     1     -10.379   8.915  71.500  1.00  0.00     0.000 HD 
HETATM   13  C   UNL     1     -11.089   6.243  68.705  1.00  0.00    -0.409 A  
ENDBRANCH   4   6
TORSDOF 1
ENDMDL
MODEL       92
REMARK 921   NORMALIZED FREE ENERGY PREDICTED BY IDOCK:   -3.15 KCAL/MOL
REMARK 922        TOTAL FREE ENERGY PREDICTED BY IDOCK:   -3.51 KCAL/MOL
REMARK 923 INTER-LIGAND FREE ENERGY PREDICTED BY IDOCK:   -3.41 KCAL/MOL
REMARK 924 INTRA-LIGAND FREE ENERGY PREDICTED BY IDOCK:   -0.09 KCAL/MOL
REMARK 927      BINDING AFFINITY PREDICTED BY RF-SCORE:    0.00 PKD
ROOT
HETATM    1  C   UNL     1     -12.476  12.214  63.331  1.00  0.00    -0.625 C  
HETATM    2  C   UNL     1     -11.383  11.722  64.242  1.00  0.00    -0.325 C  
HETATM    3  O   UNL     1     -10.432  11.089  63.796  1.00  0.00    -0.363 OA 
HETATM    4  N   UNL     1     -11.613  12.056  65.566  1.00  0.00    -0.331 N  
HETATM    5  H   UNL     1     -12.457  12.595  65.764  1.00  0.00     0.000 HD 
ENDROOT
BRANCH   4   6
HETATM    6  C   UNL     1     -10.797  11.724  66.668  1.00  0.00    -0.276 A  
HETATM    7  C   UNL     1      -9.477  12.163  66.811  1.00  0.00    -0.213 A  
HETATM    8  C   UNL     1      -8.697  11.746  67.894  1.00  0.00    -0.164 A  
HETATM    9  C   UNL     1      -9.244  10.888  68.839  1.00  0.00    -0.160 A  
HETATM   10  C   UNL     1     -10.566  10.477  68.741  1.00  0.00    -0.233 A  
HETATM   11  O   UNL     1      -8.503  10.417  69.881  1.00  0.00    -0.377 OA 
HETATM   12  H   UNL     1      -8.877   9.830  70.527  1.00  0.00     0.000 HD 
HETATM   13  C   UNL     1     -11.346  10.901  67.661  1.00  0.00    -0.345 A  
ENDBRANCH   4   6
TORSDOF 1
ENDMDL
MODEL       93
REMARK 921   NORMALIZED FREE ENERGY PREDICTED BY IDOCK:   -3.15 KCAL/MOL
REMARK 922        TOTAL FREE ENERGY PREDICTED BY IDOCK:   -3.50 KCAL/MOL
REMARK 923 INTER-LIGAND FREE ENERGY PREDICTED BY IDOCK:   -3.46 KCAL/MOL
REMARK 924 INTRA-LIGAND FREE ENERGY PREDICTED BY IDOCK:   -0.04 KCAL/MOL
REMARK 927      BINDING AFFINITY PREDICTED BY RF-SCORE:    0.00 PKD
ROOT
HETATM    1  C   UNL     1      -9.703   9.974  65.078  1.00  0.00    -0.386 C  
HETATM    2  C   UNL     1     -10.217  11.145  65.873  1.00  0.00    -0.251 C  
HETATM    3  O   UNL     1     -11.049  10.985  66.759  1.00  0.00    -0.261 OA 
HETATM    4  N   UNL     1      -9.658  12.344  65.463  1.00  0.00    -0.424 N  
HETATM    5  H   UNL     1      -8.971  12.297  64.709  1.00  0.00     0.000 HD 
ENDROOT
BRANCH   4   6
HETATM    6  C   UNL     1      -9.944  13.623  65.984  1.00  0.00    -0.302 A  
HETATM    7  C   UNL     1     -10.497  14.659  65.226  1.00  0.00    -0.420 A  
HETATM    8  C   UNL     1     -10.696  15.926  65.784  1.00  0.00    -0.325 A  
HETATM    9  C   UNL     1     -10.343  16.154  67.107  1.00  0.00    -0.291 A  
HETATM   10  C   UNL     1      -9.835  15.127  67.890  1.00  0.00    -0.216 A  
HETATM   11  O   UNL     1     -10.473  17.386  67.673  1.00  0.00    -0.347 OA 
HETATM   12  H   UNL     1     -10.231  17.542  68.578  1.00  0.00     0.000 HD 
HETATM   13  C   UNL     1      -9.643  13.859  67.332  1.00  0.00    -0.235 A  
ENDBRANCH   4   6
TORSDOF 1
ENDMDL
MODEL       94
REMARK 921   NORMALIZED FREE ENERGY PREDICTED BY IDOCK:   -3.15 KCAL/MOL
REMARK 922        TOTAL FREE ENERGY PREDICTED BY IDOCK:   -3.50 KCAL/MOL
REMARK 923 INTER-LIGAND FREE ENERGY PREDICTED BY IDOCK:   -3.35 KCAL/MOL
REMARK 924 INTRA-LIGAND FREE ENERGY PREDICTED BY IDOCK:   -0.15 KCAL/MOL
REMARK 927      BINDING AFFINITY PREDICTED BY RF-SCORE:    0.00 PKD
ROOT
HETATM    1  C   UNL     1     -10.407   8.141  66.923  1.00  0.00    -0.401 C  
HETATM    2  C   UNL     1     -10.520   9.541  67.467  1.00  0.00    -0.275 C  
HETATM    3  O   UNL     1     -10.721   9.736  68.660  1.00  0.00    -0.218 OA 
HETATM    4  N   UNL     1     -10.390  10.500  66.477  1.00  0.00    -0.240 N  
HETATM    5  H   UNL     1     -10.218  10.163  65.529  1.00  0.00     0.000 HD 
ENDROOT
BRANCH   4   6
HETATM    6  C   UNL     1     -10.471  11.899  66.649  1.00  0.00    -0.216 A  
HETATM    7  C   UNL     1      -9.352  12.736  66.701  1.00  0.00    -0.242 A  
HETATM    8  C   UNL     1      -9.495  14.106  66.940  1.00  0.00    -0.275 A  
HETATM    9  C   UNL     1     -10.764  14.639  67.124  1.00  0.00    -0.292 A  
HETATM   10  C   UNL     1     -11.890  13.834  67.031  1.00  0.00    -0.445 A  
HETATM   11  O   UNL     1     -10.943  15.959  67.410  1.00  0.00    -0.318 OA 
HETATM   12  H   UNL     1     -11.811  16.324  67.536  1.00  0.00     0.000 HD 
HETATM   13  C   UNL     1     -11.745  12.465  66.784  1.00  0.00    -0.430 A  
ENDBRANCH   4   6
TORSDOF 1
ENDMDL
MODEL       95
REMARK 921   NORMALIZED FREE ENERGY PREDICTED BY IDOCK:   -3.15 KCAL/MOL
REMARK 922        TOTAL FREE ENERGY PREDICTED BY IDOCK:   -3.50 KCAL/MOL
REMARK 923 INTER-LIGAND FREE ENERGY PREDICTED BY IDOCK:   -3.33 KCAL/MOL
REMARK 924 INTRA-LIGAND FREE ENERGY PREDICTED BY IDOCK:   -0.17 KCAL/MOL
REMARK 927      BINDING AFFINITY PREDICTED BY RF-SCORE:    0.00 PKD
ROOT
HETATM    1  C   UNL     1     -10.548  15.198  65.436  1.00  0.00    -0.410 C  
HETATM    2  C   UNL     1     -10.154  16.269  66.419  1.00  0.00    -0.305 C  
HETATM    3  O   UNL     1     -10.876  16.542  67.371  1.00  0.00    -0.294 OA 
HETATM    4  N   UNL     1      -8.948  16.865  66.090  1.00  0.00    -0.264 N  
HETATM    5  H   UNL     1      -8.471  16.510  65.261  1.00  0.00     0.000 HD 
ENDROOT
BRANCH   4   6
HETATM    6  C   UNL     1      -8.315  17.915  66.789  1.00  0.00    -0.252 A  
HETATM    7  C   UNL     1      -8.519  19.267  66.500  1.00  0.00    -0.336 A  
HETATM    8  C   UNL     1      -7.811  20.260  67.186  1.00  0.00    -0.370 A  
HETATM    9  C   UNL     1      -6.898  19.894  68.166  1.00  0.00    -0.293 A  
HETATM   10  C   UNL     1      -6.714  18.560  68.499  1.00  0.00    -0.267 A  
HETATM   11  O   UNL     1      -6.151  20.827  68.820  1.00  0.00    -0.343 OA 
HETATM   12  H   UNL     1      -5.526  20.577  69.491  1.00  0.00     0.000 HD 
HETATM   13  C   UNL     1      -7.428  17.570  67.818  1.00  0.00    -0.197 A  
ENDBRANCH   4   6
TORSDOF 1
ENDMDL
MODEL       96
REMARK 921   NORMALIZED FREE ENERGY PREDICTED BY IDOCK:   -3.13 KCAL/MOL
REMARK 922        TOTAL FREE ENERGY PREDICTED BY IDOCK:   -3.48 KCAL/MOL
REMARK 923 INTER-LIGAND FREE ENERGY PREDICTED BY IDOCK:   -3.31 KCAL/MOL
REMARK 924 INTRA-LIGAND FREE ENERGY PREDICTED BY IDOCK:   -0.17 KCAL/MOL
REMARK 927      BINDING AFFINITY PREDICTED BY RF-SCORE:    0.00 PKD
ROOT
HETATM    1  C   UNL     1      -5.936  15.568  70.114  1.00  0.00    -0.137 C  
HETATM    2  C   UNL     1      -7.064  16.188  69.333  1.00  0.00    -0.215 C  
HETATM    3  O   UNL     1      -8.054  15.530  69.032  1.00  0.00    -0.182 OA 
HETATM    4  N   UNL     1      -6.817  17.513  69.016  1.00  0.00    -0.239 N  
HETATM    5  H   UNL     1      -5.940  17.911  69.352  1.00  0.00     0.000 HD 
ENDROOT
BRANCH   4   6
HETATM    6  C   UNL     1      -7.660  18.368  68.274  1.00  0.00    -0.286 A  
HETATM    7  C   UNL     1      -8.745  19.053  68.828  1.00  0.00    -0.351 A  
HETATM    8  C   UNL     1      -9.583  19.835  68.026  1.00  0.00    -0.489 A  
HETATM    9  C   UNL     1      -9.329  19.932  66.664  1.00  0.00    -0.395 A  
HETATM   10  C   UNL     1      -8.231  19.297  66.102  1.00  0.00    -0.291 A  
HETATM   11  O   UNL     1     -10.150  20.640  65.839  1.00  0.00    -0.496 OA 
HETATM   12  H   UNL     1      -9.977  20.707  64.908  1.00  0.00     0.000 HD 
HETATM   13  C   UNL     1      -7.390  18.522  66.907  1.00  0.00    -0.228 A  
ENDBRANCH   4   6
TORSDOF 1
ENDMDL
MODEL       97
REMARK 921   NORMALIZED FREE ENERGY PREDICTED BY IDOCK:   -3.11 KCAL/MOL
REMARK 922        TOTAL FREE ENERGY PREDICTED BY IDOCK:   -3.46 KCAL/MOL
REMARK 923 INTER-LIGAND FREE ENERGY PREDICTED BY IDOCK:   -3.36 KCAL/MOL
REMARK 924 INTRA-LIGAND FREE ENERGY PREDICTED BY IDOCK:   -0.10 KCAL/MOL
REMARK 927      BINDING AFFINITY PREDICTED BY RF-SCORE:    0.00 PKD
ROOT
HETATM    1  C   UNL     1     -12.779  13.721  71.511  1.00  0.00    -0.432 C  
HETATM    2  C   UNL     1     -12.550  12.289  71.104  1.00  0.00    -0.253 C  
HETATM    3  O   UNL     1     -13.235  11.387  71.574  1.00  0.00    -0.373 OA 
HETATM    4  N   UNL     1     -11.511  12.161  70.199  1.00  0.00    -0.522 N  
HETATM    5  H   UNL     1     -11.047  13.021  69.906  1.00  0.00     0.000 HD 
ENDROOT
BRANCH   4   6
HETATM    6  C   UNL     1     -11.029  10.957  69.642  1.00  0.00    -0.252 A  
HETATM    7  C   UNL     1     -10.440   9.939  70.398  1.00  0.00    -0.347 A  
HETATM    8  C   UNL     1      -9.922   8.796  69.779  1.00  0.00    -0.193 A  
HETATM    9  C   UNL     1      -9.999   8.674  68.398  1.00  0.00    -0.184 A  
HETATM   10  C   UNL     1     -10.620   9.652  67.634  1.00  0.00    -0.334 A  
HETATM   11  O   UNL     1      -9.461   7.602  67.751  1.00  0.00    -0.141 OA 
HETATM   12  H   UNL     1      -9.513   7.518  66.807  1.00  0.00     0.000 HD 
HETATM   13  C   UNL     1     -11.144  10.789  68.256  1.00  0.00    -0.327 A  
ENDBRANCH   4   6
TORSDOF 1
ENDMDL
MODEL       98
REMARK 921   NORMALIZED FREE ENERGY PREDICTED BY IDOCK:   -3.09 KCAL/MOL
REMARK 922        TOTAL FREE ENERGY PREDICTED BY IDOCK:   -3.44 KCAL/MOL
REMARK 923 INTER-LIGAND FREE ENERGY PREDICTED BY IDOCK:   -3.43 KCAL/MOL
REMARK 924 INTRA-LIGAND FREE ENERGY PREDICTED BY IDOCK:   -0.01 KCAL/MOL
REMARK 927      BINDING AFFINITY PREDICTED BY RF-SCORE:    0.00 PKD
ROOT
HETATM    1  C   UNL     1      -9.352  13.118  68.144  1.00  0.00    -0.217 C  
HETATM    2  C   UNL     1      -9.548  14.481  67.533  1.00  0.00    -0.210 C  
HETATM    3  O   UNL     1      -9.927  14.599  66.373  1.00  0.00    -0.261 OA 
HETATM    4  N   UNL     1      -9.239  15.501  68.416  1.00  0.00    -0.187 N  
HETATM    5  H   UNL     1      -8.943  15.225  69.352  1.00  0.00     0.000 HD 
ENDROOT
BRANCH   4   6
HETATM    6  C   UNL     1      -9.293  16.886  68.148  1.00  0.00    -0.240 A  
HETATM    7  C   UNL     1      -8.192  17.739  68.271  1.00  0.00    -0.285 A  
HETATM    8  C   UNL     1      -8.325  19.114  68.055  1.00  0.00    -0.340 A  
HETATM    9  C   UNL     1      -9.566  19.635  67.710  1.00  0.00    -0.354 A  
HETATM   10  C   UNL     1     -10.661  18.799  67.538  1.00  0.00    -0.497 A  
HETATM   11  O   UNL     1      -9.749  20.974  67.541  1.00  0.00    -0.464 OA 
HETATM   12  H   UNL     1     -10.598  21.330  67.305  1.00  0.00     0.000 HD 
HETATM   13  C   UNL     1     -10.523  17.424  67.748  1.00  0.00    -0.376 A  
ENDBRANCH   4   6
TORSDOF 1
ENDMDL
MODEL       99
REMARK 921   NORMALIZED FREE ENERGY PREDICTED BY IDOCK:   -3.06 KCAL/MOL
REMARK 922        TOTAL FREE ENERGY PREDICTED BY IDOCK:   -3.41 KCAL/MOL
REMARK 923 INTER-LIGAND FREE ENERGY PREDICTED BY IDOCK:   -3.57 KCAL/MOL
REMARK 924 INTRA-LIGAND FREE ENERGY PREDICTED BY IDOCK:    0.15 KCAL/MOL
REMARK 927      BINDING AFFINITY PREDICTED BY RF-SCORE:    0.00 PKD
ROOT
HETATM    1  C   UNL     1     -11.638  14.132  65.808  1.00  0.00    -0.343 C  
HETATM    2  C   UNL     1     -11.543  12.840  66.577  1.00  0.00    -0.376 C  
HETATM    3  O   UNL     1     -11.442  11.768  65.991  1.00  0.00    -0.322 OA 
HETATM    4  N   UNL     1     -11.602  13.039  67.946  1.00  0.00    -0.320 N  
HETATM    5  H   UNL     1     -11.681  14.004  68.267  1.00  0.00     0.000 HD 
ENDROOT
BRANCH   4   6
HETATM    6  C   UNL     1     -11.565  12.038  68.940  1.00  0.00    -0.321 A  
HETATM    7  C   UNL     1     -12.406  12.028  70.057  1.00  0.00    -0.179 A  
HETATM    8  C   UNL     1     -12.276  11.044  71.042  1.00  0.00    -0.456 A  
HETATM    9  C   UNL     1     -11.301  10.064  70.904  1.00  0.00    -0.361 A  
HETATM   10  C   UNL     1     -10.487  10.029  69.781  1.00  0.00    -0.291 A  
HETATM   11  O   UNL     1     -11.108   9.118  71.865  1.00  0.00    -0.364 OA 
HETATM   12  H   UNL     1     -10.441   8.448  71.771  1.00  0.00     0.000 HD 
HETATM   13  C   UNL     1     -10.624  11.010  68.794  1.00  0.00    -0.232 A  
ENDBRANCH   4   6
TORSDOF 1
ENDMDL
MODEL      100
REMARK 921   NORMALIZED FREE ENERGY PREDICTED BY IDOCK:   -3.06 KCAL/MOL
REMARK 922        TOTAL FREE ENERGY PREDICTED BY IDOCK:   -3.41 KCAL/MOL
REMARK 923 INTER-LIGAND FREE ENERGY PREDICTED BY IDOCK:   -3.49 KCAL/MOL
REMARK 924 INTRA-LIGAND FREE ENERGY PREDICTED BY IDOCK:    0.08 KCAL/MOL
REMARK 927      BINDING AFFINITY PREDICTED BY RF-SCORE:    0.00 PKD
ROOT
HETATM    1  C   UNL     1     -12.712  13.567  71.819  1.00  0.00    -0.340 C  
HETATM    2  C   UNL     1     -12.452  12.421  70.877  1.00  0.00    -0.274 C  
HETATM    3  O   UNL     1     -12.916  11.308  71.102  1.00  0.00    -0.354 OA 
HETATM    4  N   UNL     1     -11.652  12.790  69.809  1.00  0.00    -0.480 N  
HETATM    5  H   UNL     1     -11.356  13.766  69.772  1.00  0.00     0.000 HD 
ENDROOT
BRANCH   4   6
HETATM    6  C   UNL     1     -11.205  11.950  68.768  1.00  0.00    -0.259 A  
HETATM    7  C   UNL     1     -11.324  12.272  67.412  1.00  0.00    -0.389 A  
HETATM    8  C   UNL     1     -10.921  11.367  66.425  1.00  0.00    -0.315 A  
HETATM    9  C   UNL     1     -10.395  10.137  66.798  1.00  0.00    -0.222 A  
HETATM   10  C   UNL     1     -10.227   9.816  68.138  1.00  0.00    -0.220 A  
HETATM   11  O   UNL     1     -10.039   9.207  65.867  1.00  0.00    -0.388 OA 
HETATM   12  H   UNL     1      -9.679   8.366  66.123  1.00  0.00     0.000 HD 
HETATM   13  C   UNL     1     -10.623  10.726  69.123  1.00  0.00    -0.254 A  
ENDBRANCH   4   6
TORSDOF 1
ENDMDL
MODEL      101
REMARK 921   NORMALIZED FREE ENERGY PREDICTED BY IDOCK:   -3.05 KCAL/MOL
REMARK 922        TOTAL FREE ENERGY PREDICTED BY IDOCK:   -3.40 KCAL/MOL
REMARK 923 INTER-LIGAND FREE ENERGY PREDICTED BY IDOCK:   -3.24 KCAL/MOL
REMARK 924 INTRA-LIGAND FREE ENERGY PREDICTED BY IDOCK:   -0.16 KCAL/MOL
REMARK 927      BINDING AFFINITY PREDICTED BY RF-SCORE:    0.00 PKD
ROOT
HETATM    1  C   UNL     1      -9.234  10.026  63.573  1.00  0.00    -0.315 C  
HETATM    2  C   UNL     1      -9.229  10.617  64.958  1.00  0.00    -0.211 C  
HETATM    3  O   UNL     1      -8.177  10.948  65.494  1.00  0.00    -0.143 OA 
HETATM    4  N   UNL     1     -10.502  10.705  65.495  1.00  0.00    -0.219 N  
HETATM    5  H   UNL     1     -11.273  10.389  64.906  1.00  0.00     0.000 HD 
ENDROOT
BRANCH   4   6
HETATM    6  C   UNL     1     -10.838  11.189  66.778  1.00  0.00    -0.268 A  
HETATM    7  C   UNL     1     -11.082  10.359  67.875  1.00  0.00    -0.363 A  
HETATM    8  C   UNL     1     -11.476  10.896  69.105  1.00  0.00    -0.373 A  
HETATM    9  C   UNL     1     -11.621  12.271  69.235  1.00  0.00    -0.324 A  
HETATM   10  C   UNL     1     -11.339  13.116  68.170  1.00  0.00    -0.328 A  
HETATM   11  O   UNL     1     -12.052  12.831  70.400  1.00  0.00    -0.399 OA 
HETATM   12  H   UNL     1     -12.151  13.772  70.489  1.00  0.00     0.000 HD 
HETATM   13  C   UNL     1     -10.938  12.577  66.944  1.00  0.00    -0.296 A  
ENDBRANCH   4   6
TORSDOF 1
ENDMDL
MODEL      102
REMARK 921   NORMALIZED FREE ENERGY PREDICTED BY IDOCK:   -3.03 KCAL/MOL
REMARK 922        TOTAL FREE ENERGY PREDICTED BY IDOCK:   -3.38 KCAL/MOL
REMARK 923 INTER-LIGAND FREE ENERGY PREDICTED BY IDOCK:   -3.36 KCAL/MOL
REMARK 924 INTRA-LIGAND FREE ENERGY PREDICTED BY IDOCK:   -0.02 KCAL/MOL
REMARK 927      BINDING AFFINITY PREDICTED BY RF-SCORE:    0.00 PKD
ROOT
HETATM    1  C   UNL     1      -6.049  20.566  64.285  1.00  0.00    -0.342 C  
HETATM    2  C   UNL     1      -6.521  19.536  65.276  1.00  0.00    -0.277 C  
HETATM    3  O   UNL     1      -5.911  18.483  65.425  1.00  0.00    -0.191 OA 
HETATM    4  N   UNL     1      -7.676  19.928  65.931  1.00  0.00    -0.367 N  
HETATM    5  H   UNL     1      -8.052  20.846  65.690  1.00  0.00     0.000 HD 
ENDROOT
BRANCH   4   6
HETATM    6  C   UNL     1      -8.385  19.184  66.898  1.00  0.00    -0.285 A  
HETATM    7  C   UNL     1      -7.788  18.628  68.033  1.00  0.00    -0.292 A  
HETATM    8  C   UNL     1      -8.532  17.844  68.921  1.00  0.00    -0.129 A  
HETATM    9  C   UNL     1      -9.880  17.621  68.672  1.00  0.00    -0.347 A  
HETATM   10  C   UNL     1     -10.502  18.201  67.575  1.00  0.00    -0.425 A  
HETATM   11  O   UNL     1     -10.627  16.822  69.483  1.00  0.00    -0.324 OA 
HETATM   12  H   UNL     1     -11.549  16.669  69.313  1.00  0.00     0.000 HD 
HETATM   13  C   UNL     1      -9.758  18.991  66.693  1.00  0.00    -0.383 A  
ENDBRANCH   4   6
TORSDOF 1
ENDMDL
MODEL      103
REMARK 921   NORMALIZED FREE ENERGY PREDICTED BY IDOCK:   -3.02 KCAL/MOL
REMARK 922        TOTAL FREE ENERGY PREDICTED BY IDOCK:   -3.37 KCAL/MOL
REMARK 923 INTER-LIGAND FREE ENERGY PREDICTED BY IDOCK:   -3.20 KCAL/MOL
REMARK 924 INTRA-LIGAND FREE ENERGY PREDICTED BY IDOCK:   -0.17 KCAL/MOL
REMARK 927      BINDING AFFINITY PREDICTED BY RF-SCORE:    0.00 PKD
ROOT
HETATM    1  C   UNL     1     -12.785  12.089  63.396  1.00  0.00    -0.527 C  
HETATM    2  C   UNL     1     -11.452  11.918  64.076  1.00  0.00    -0.398 C  
HETATM    3  O   UNL     1     -10.470  11.541  63.446  1.00  0.00    -0.373 OA 
HETATM    4  N   UNL     1     -11.511  12.214  65.428  1.00  0.00    -0.344 N  
HETATM    5  H   UNL     1     -12.413  12.521  65.792  1.00  0.00     0.000 HD 
ENDROOT
BRANCH   4   6
HETATM    6  C   UNL     1     -10.446  12.132  66.350  1.00  0.00    -0.230 A  
HETATM    7  C   UNL     1     -10.235  11.033  67.188  1.00  0.00    -0.243 A  
HETATM    8  C   UNL     1      -9.200  11.039  68.129  1.00  0.00    -0.165 A  
HETATM    9  C   UNL     1      -8.371  12.149  68.226  1.00  0.00    -0.172 A  
HETATM   10  C   UNL     1      -8.535  13.231  67.372  1.00  0.00    -0.206 A  
HETATM   11  O   UNL     1      -7.384  12.216  69.162  1.00  0.00    -0.284 OA 
HETATM   12  H   UNL     1      -6.817  12.976  69.228  1.00  0.00     0.000 HD 
HETATM   13  C   UNL     1      -9.566  13.219  66.427  1.00  0.00    -0.260 A  
ENDBRANCH   4   6
TORSDOF 1
ENDMDL
MODEL      104
REMARK 921   NORMALIZED FREE ENERGY PREDICTED BY IDOCK:   -3.01 KCAL/MOL
REMARK 922        TOTAL FREE ENERGY PREDICTED BY IDOCK:   -3.35 KCAL/MOL
REMARK 923 INTER-LIGAND FREE ENERGY PREDICTED BY IDOCK:   -3.18 KCAL/MOL
REMARK 924 INTRA-LIGAND FREE ENERGY PREDICTED BY IDOCK:   -0.17 KCAL/MOL
REMARK 927      BINDING AFFINITY PREDICTED BY RF-SCORE:    0.00 PKD
ROOT
HETATM    1  C   UNL     1     -10.391   6.555  68.344  1.00  0.00    -0.220 C  
HETATM    2  C   UNL     1     -10.084   8.024  68.473  1.00  0.00    -0.199 C  
HETATM    3  O   UNL     1      -9.121   8.408  69.128  1.00  0.00    -0.146 OA 
HETATM    4  N   UNL     1     -11.002   8.812  67.800  1.00  0.00    -0.485 N  
HETATM    5  H   UNL     1     -11.744   8.326  67.296  1.00  0.00     0.000 HD 
ENDROOT
BRANCH   4   6
HETATM    6  C   UNL     1     -11.012  10.222  67.744  1.00  0.00    -0.300 A  
HETATM    7  C   UNL     1     -11.735  11.024  68.631  1.00  0.00    -0.367 A  
HETATM    8  C   UNL     1     -11.757  12.415  68.483  1.00  0.00    -0.373 A  
HETATM    9  C   UNL     1     -11.049  13.003  67.442  1.00  0.00    -0.272 A  
HETATM   10  C   UNL     1     -10.288  12.228  66.578  1.00  0.00    -0.250 A  
HETATM   11  O   UNL     1     -11.086  14.348  67.232  1.00  0.00    -0.293 OA 
HETATM   12  H   UNL     1     -10.602  14.750  66.521  1.00  0.00     0.000 HD 
HETATM   13  C   UNL     1     -10.262  10.839  66.733  1.00  0.00    -0.279 A  
ENDBRANCH   4   6
TORSDOF 1
ENDMDL
MODEL      105
REMARK 921   NORMALIZED FREE ENERGY PREDICTED BY IDOCK:   -2.99 KCAL/MOL
REMARK 922        TOTAL FREE ENERGY PREDICTED BY IDOCK:   -3.34 KCAL/MOL
REMARK 923 INTER-LIGAND FREE ENERGY PREDICTED BY IDOCK:   -3.19 KCAL/MOL
REMARK 924 INTRA-LIGAND FREE ENERGY PREDICTED BY IDOCK:   -0.14 KCAL/MOL
REMARK 927      BINDING AFFINITY PREDICTED BY RF-SCORE:    0.00 PKD
ROOT
HETATM    1  C   UNL     1     -10.649   6.526  73.544  1.00  0.00    -0.312 C  
HETATM    2  C   UNL     1     -10.080   6.734  72.165  1.00  0.00    -0.181 C  
HETATM    3  O   UNL     1      -8.870   6.696  71.974  1.00  0.00    -0.135 OA 
HETATM    4  N   UNL     1     -11.065   6.975  71.222  1.00  0.00    -0.246 N  
HETATM    5  H   UNL     1     -12.031   6.965  71.553  1.00  0.00     0.000 HD 
ENDROOT
BRANCH   4   6
HETATM    6  C   UNL     1     -10.866   7.232  69.849  1.00  0.00    -0.247 A  
HETATM    7  C   UNL     1     -11.084   6.283  68.847  1.00  0.00    -0.434 A  
HETATM    8  C   UNL     1     -10.805   6.579  67.508  1.00  0.00    -0.433 A  
HETATM    9  C   UNL     1     -10.308   7.832  67.175  1.00  0.00    -0.319 A  
HETATM   10  C   UNL     1     -10.128   8.804  68.149  1.00  0.00    -0.228 A  
HETATM   11  O   UNL     1      -9.975   8.143  65.891  1.00  0.00    -0.435 OA 
HETATM   12  H   UNL     1      -9.636   9.000  65.663  1.00  0.00     0.000 HD 
HETATM   13  C   UNL     1     -10.415   8.508  69.486  1.00  0.00    -0.222 A  
ENDBRANCH   4   6
TORSDOF 1
ENDMDL
MODEL      106
REMARK 921   NORMALIZED FREE ENERGY PREDICTED BY IDOCK:   -2.99 KCAL/MOL
REMARK 922        TOTAL FREE ENERGY PREDICTED BY IDOCK:   -3.33 KCAL/MOL
REMARK 923 INTER-LIGAND FREE ENERGY PREDICTED BY IDOCK:   -3.17 KCAL/MOL
REMARK 924 INTRA-LIGAND FREE ENERGY PREDICTED BY IDOCK:   -0.16 KCAL/MOL
REMARK 927      BINDING AFFINITY PREDICTED BY RF-SCORE:    0.00 PKD
ROOT
HETATM    1  C   UNL     1     -10.109   6.500  74.357  1.00  0.00    -0.371 C  
HETATM    2  C   UNL     1     -10.524   7.087  73.034  1.00  0.00    -0.277 C  
HETATM    3  O   UNL     1     -11.409   7.933  72.973  1.00  0.00    -0.408 OA 
HETATM    4  N   UNL     1      -9.815   6.546  71.974  1.00  0.00    -0.160 N  
HETATM    5  H   UNL     1      -9.104   5.850  72.204  1.00  0.00     0.000 HD 
ENDROOT
BRANCH   4   6
HETATM    6  C   UNL     1      -9.979   6.861  70.609  1.00  0.00    -0.186 A  
HETATM    7  C   UNL     1      -9.492   8.033  70.024  1.00  0.00    -0.160 A  
HETATM    8  C   UNL     1      -9.744   8.319  68.678  1.00  0.00    -0.162 A  
HETATM    9  C   UNL     1     -10.484   7.425  67.916  1.00  0.00    -0.205 A  
HETATM   10  C   UNL     1     -10.937   6.234  68.466  1.00  0.00    -0.421 A  
HETATM   11  O   UNL     1     -10.795   7.690  66.617  1.00  0.00    -0.410 OA 
HETATM   12  H   UNL     1     -11.301   7.078  66.095  1.00  0.00     0.000 HD 
HETATM   13  C   UNL     1     -10.678   5.946  69.809  1.00  0.00    -0.411 A  
ENDBRANCH   4   6
TORSDOF 1
ENDMDL
MODEL      107
REMARK 921   NORMALIZED FREE ENERGY PREDICTED BY IDOCK:   -2.98 KCAL/MOL
REMARK 922        TOTAL FREE ENERGY PREDICTED BY IDOCK:   -3.32 KCAL/MOL
REMARK 923 INTER-LIGAND FREE ENERGY PREDICTED BY IDOCK:   -3.15 KCAL/MOL
REMARK 924 INTRA-LIGAND FREE ENERGY PREDICTED BY IDOCK:   -0.17 KCAL/MOL
REMARK 927      BINDING AFFINITY PREDICTED BY RF-SCORE:    0.00 PKD
ROOT
HETATM    1  C   UNL     1     -10.440  14.823  65.313  1.00  0.00    -0.427 C  
HETATM    2  C   UNL     1     -10.092  15.727  66.466  1.00  0.00    -0.282 C  
HETATM    3  O   UNL     1     -10.865  15.866  67.408  1.00  0.00    -0.316 OA 
HETATM    4  N   UNL     1      -8.864  16.343  66.299  1.00  0.00    -0.308 N  
HETATM    5  H   UNL     1      -8.344  16.109  65.453  1.00  0.00     0.000 HD 
ENDROOT
BRANCH   4   6
HETATM    6  C   UNL     1      -8.261  17.263  67.182  1.00  0.00    -0.204 A  
HETATM    7  C   UNL     1      -7.481  16.883  68.278  1.00  0.00    -0.192 A  
HETATM    8  C   UNL     1      -6.965  17.842  69.156  1.00  0.00    -0.208 A  
HETATM    9  C   UNL     1      -7.229  19.187  68.931  1.00  0.00    -0.341 A  
HETATM   10  C   UNL     1      -7.962  19.588  67.823  1.00  0.00    -0.329 A  
HETATM   11  O   UNL     1      -6.788  20.148  69.790  1.00  0.00    -0.267 OA 
HETATM   12  H   UNL     1      -6.968  21.068  69.636  1.00  0.00     0.000 HD 
HETATM   13  C   UNL     1      -8.471  18.628  66.943  1.00  0.00    -0.277 A  
ENDBRANCH   4   6
TORSDOF 1
ENDMDL
MODEL      108
REMARK 921   NORMALIZED FREE ENERGY PREDICTED BY IDOCK:   -2.97 KCAL/MOL
REMARK 922        TOTAL FREE ENERGY PREDICTED BY IDOCK:   -3.32 KCAL/MOL
REMARK 923 INTER-LIGAND FREE ENERGY PREDICTED BY IDOCK:   -3.19 KCAL/MOL
REMARK 924 INTRA-LIGAND FREE ENERGY PREDICTED BY IDOCK:   -0.13 KCAL/MOL
REMARK 927      BINDING AFFINITY PREDICTED BY RF-SCORE:    0.00 PKD
ROOT
HETATM    1  C   UNL     1      -8.058   6.244  73.874  1.00  0.00    -0.105 C  
HETATM    2  C   UNL     1      -8.565   7.493  73.203  1.00  0.00    -0.150 C  
HETATM    3  O   UNL     1      -8.174   8.599  73.559  1.00  0.00    -0.404 OA 
HETATM    4  N   UNL     1      -9.487   7.216  72.207  1.00  0.00    -0.139 N  
HETATM    5  H   UNL     1      -9.696   6.233  72.035  1.00  0.00     0.000 HD 
ENDROOT
BRANCH   4   6
HETATM    6  C   UNL     1     -10.166   8.161  71.408  1.00  0.00    -0.198 A  
HETATM    7  C   UNL     1     -11.122   9.049  71.909  1.00  0.00    -0.433 A  
HETATM    8  C   UNL     1     -11.808   9.918  71.053  1.00  0.00    -0.463 A  
HETATM    9  C   UNL     1     -11.532   9.897  69.693  1.00  0.00    -0.108 A  
HETATM   10  C   UNL     1     -10.553   9.055  69.182  1.00  0.00    -0.219 A  
HETATM   11  O   UNL     1     -12.214  10.690  68.819  1.00  0.00    -0.790 OA 
HETATM   12  H   UNL     1     -12.024  10.676  67.889  1.00  0.00     0.000 HD 
HETATM   13  C   UNL     1      -9.863   8.193  70.040  1.00  0.00    -0.182 A  
ENDBRANCH   4   6
TORSDOF 1
ENDMDL
MODEL      109
REMARK 921   NORMALIZED FREE ENERGY PREDICTED BY IDOCK:   -2.96 KCAL/MOL
REMARK 922        TOTAL FREE ENERGY PREDICTED BY IDOCK:   -3.31 KCAL/MOL
REMARK 923 INTER-LIGAND FREE ENERGY PREDICTED BY IDOCK:   -3.14 KCAL/MOL
REMARK 924 INTRA-LIGAND FREE ENERGY PREDICTED BY IDOCK:   -0.16 KCAL/MOL
REMARK 927      BINDING AFFINITY PREDICTED BY RF-SCORE:    0.00 PKD
ROOT
HETATM    1  C   UNL     1     -10.560  13.545  65.002  1.00  0.00    -0.382 C  
HETATM    2  C   UNL     1     -11.019  12.491  65.975  1.00  0.00    -0.283 C  
HETATM    3  O   UNL     1     -12.211  12.337  66.218  1.00  0.00    -0.628 OA 
HETATM    4  N   UNL     1      -9.960  11.788  66.524  1.00  0.00    -0.200 N  
HETATM    5  H   UNL     1      -9.024  12.041  66.205  1.00  0.00     0.000 HD 
ENDROOT
BRANCH   4   6
HETATM    6  C   UNL     1     -10.046  10.756  67.482  1.00  0.00    -0.186 A  
HETATM    7  C   UNL     1      -9.839  10.954  68.850  1.00  0.00    -0.203 A  
HETATM    8  C   UNL     1      -9.874   9.878  69.743  1.00  0.00    -0.268 A  
HETATM    9  C   UNL     1     -10.122   8.599  69.262  1.00  0.00    -0.202 A  
HETATM   10  C   UNL     1     -10.376   8.387  67.914  1.00  0.00    -0.279 A  
HETATM   11  O   UNL     1     -10.114   7.517  70.090  1.00  0.00    -0.192 OA 
HETATM   12  H   UNL     1     -10.284   6.642  69.761  1.00  0.00     0.000 HD 
HETATM   13  C   UNL     1     -10.348   9.466  67.025  1.00  0.00    -0.322 A  
ENDBRANCH   4   6
TORSDOF 1
ENDMDL
MODEL      110
REMARK 921   NORMALIZED FREE ENERGY PREDICTED BY IDOCK:   -2.95 KCAL/MOL
REMARK 922        TOTAL FREE ENERGY PREDICTED BY IDOCK:   -3.29 KCAL/MOL
REMARK 923 INTER-LIGAND FREE ENERGY PREDICTED BY IDOCK:   -3.34 KCAL/MOL
REMARK 924 INTRA-LIGAND FREE ENERGY PREDICTED BY IDOCK:    0.05 KCAL/MOL
REMARK 927      BINDING AFFINITY PREDICTED BY RF-SCORE:    0.00 PKD
ROOT
HETATM    1  C   UNL     1     -11.209  16.045  70.103  1.00  0.00    -0.376 C  
HETATM    2  C   UNL     1     -10.671  16.611  68.815  1.00  0.00    -0.342 C  
HETATM    3  O   UNL     1     -11.112  16.238  67.734  1.00  0.00    -0.310 OA 
HETATM    4  N   UNL     1      -9.662  17.535  69.029  1.00  0.00    -0.233 N  
HETATM    5  H   UNL     1      -9.420  17.735  70.000  1.00  0.00     0.000 HD 
ENDROOT
BRANCH   4   6
HETATM    6  C   UNL     1      -8.936  18.227  68.037  1.00  0.00    -0.290 A  
HETATM    7  C   UNL     1      -8.799  19.618  68.010  1.00  0.00    -0.371 A  
HETATM    8  C   UNL     1      -8.122  20.250  66.962  1.00  0.00    -0.365 A  
HETATM    9  C   UNL     1      -7.577  19.484  65.940  1.00  0.00    -0.292 A  
HETATM   10  C   UNL     1      -7.662  18.099  65.971  1.00  0.00    -0.204 A  
HETATM   11  O   UNL     1      -6.954  20.063  64.875  1.00  0.00    -0.318 OA 
HETATM   12  H   UNL     1      -6.581  19.539  64.176  1.00  0.00     0.000 HD 
HETATM   13  C   UNL     1      -8.333  17.469  67.024  1.00  0.00    -0.239 A  
ENDBRANCH   4   6
TORSDOF 1
ENDMDL
MODEL      111
REMARK 921   NORMALIZED FREE ENERGY PREDICTED BY IDOCK:   -2.94 KCAL/MOL
REMARK 922        TOTAL FREE ENERGY PREDICTED BY IDOCK:   -3.28 KCAL/MOL
REMARK 923 INTER-LIGAND FREE ENERGY PREDICTED BY IDOCK:   -3.16 KCAL/MOL
REMARK 924 INTRA-LIGAND FREE ENERGY PREDICTED BY IDOCK:   -0.12 KCAL/MOL
REMARK 927      BINDING AFFINITY PREDICTED BY RF-SCORE:    0.00 PKD
ROOT
HETATM    1  C   UNL     1     -10.915  10.130  69.084  1.00  0.00    -0.270 C  
HETATM    2  C   UNL     1     -10.564   8.858  69.809  1.00  0.00    -0.224 C  
HETATM    3  O   UNL     1      -9.887   7.992  69.264  1.00  0.00    -0.172 OA 
HETATM    4  N   UNL     1     -11.101   8.815  71.084  1.00  0.00    -0.258 N  
HETATM    5  H   UNL     1     -11.638   9.629  71.385  1.00  0.00     0.000 HD 
ENDROOT
BRANCH   4   6
HETATM    6  C   UNL     1     -10.980   7.756  72.009  1.00  0.00    -0.257 A  
HETATM    7  C   UNL     1     -10.171   7.815  73.147  1.00  0.00    -0.398 A  
HETATM    8  C   UNL     1     -10.042   6.706  73.991  1.00  0.00    -0.373 A  
HETATM    9  C   UNL     1     -10.729   5.537  73.694  1.00  0.00    -0.282 A  
HETATM   10  C   UNL     1     -11.574   5.473  72.595  1.00  0.00    -0.293 A  
HETATM   11  O   UNL     1     -10.591   4.420  74.461  1.00  0.00    -0.256 OA 
HETATM   12  H   UNL     1     -11.061   3.620  74.258  1.00  0.00     0.000 HD 
HETATM   13  C   UNL     1     -11.707   6.585  71.757  1.00  0.00    -0.373 A  
ENDBRANCH   4   6
TORSDOF 1
ENDMDL
MODEL      112
REMARK 921   NORMALIZED FREE ENERGY PREDICTED BY IDOCK:   -2.90 KCAL/MOL
REMARK 922        TOTAL FREE ENERGY PREDICTED BY IDOCK:   -3.24 KCAL/MOL
REMARK 923 INTER-LIGAND FREE ENERGY PREDICTED BY IDOCK:   -3.54 KCAL/MOL
REMARK 924 INTRA-LIGAND FREE ENERGY PREDICTED BY IDOCK:    0.30 KCAL/MOL
REMARK 927      BINDING AFFINITY PREDICTED BY RF-SCORE:    0.00 PKD
ROOT
HETATM    1  C   UNL     1     -13.190  13.160  71.965  1.00  0.00    -0.543 C  
HETATM    2  C   UNL     1     -12.511  12.380  70.870  1.00  0.00    -0.274 C  
HETATM    3  O   UNL     1     -12.318  11.174  70.985  1.00  0.00    -0.371 OA 
HETATM    4  N   UNL     1     -12.151  13.182  69.800  1.00  0.00    -0.298 N  
HETATM    5  H   UNL     1     -12.394  14.171  69.865  1.00  0.00     0.000 HD 
ENDROOT
BRANCH   4   6
HETATM    6  C   UNL     1     -11.480  12.766  68.630  1.00  0.00    -0.303 A  
HETATM    7  C   UNL     1     -10.959  11.481  68.455  1.00  0.00    -0.268 A  
HETATM    8  C   UNL     1     -10.246  11.150  67.298  1.00  0.00    -0.227 A  
HETATM    9  C   UNL     1     -10.059  12.110  66.312  1.00  0.00    -0.224 A  
HETATM   10  C   UNL     1     -10.608  13.378  66.446  1.00  0.00    -0.285 A  
HETATM   11  O   UNL     1      -9.328  11.844  65.194  1.00  0.00    -0.420 OA 
HETATM   12  H   UNL     1      -9.200  12.500  64.520  1.00  0.00     0.000 HD 
HETATM   13  C   UNL     1     -11.326  13.704  67.601  1.00  0.00    -0.328 A  
ENDBRANCH   4   6
TORSDOF 1
ENDMDL
MODEL      113
REMARK 921   NORMALIZED FREE ENERGY PREDICTED BY IDOCK:   -2.89 KCAL/MOL
REMARK 922        TOTAL FREE ENERGY PREDICTED BY IDOCK:   -3.23 KCAL/MOL
REMARK 923 INTER-LIGAND FREE ENERGY PREDICTED BY IDOCK:   -3.06 KCAL/MOL
REMARK 924 INTRA-LIGAND FREE ENERGY PREDICTED BY IDOCK:   -0.17 KCAL/MOL
REMARK 927      BINDING AFFINITY PREDICTED BY RF-SCORE:    0.00 PKD
ROOT
HETATM    1  C   UNL     1      -6.349   6.519  71.626  1.00  0.00    -0.042 C  
HETATM    2  C   UNL     1      -7.779   6.803  71.245  1.00  0.00    -0.093 C  
HETATM    3  O   UNL     1      -8.403   6.026  70.530  1.00  0.00    -0.123 OA 
HETATM    4  N   UNL     1      -8.236   7.997  71.775  1.00  0.00    -0.113 N  
HETATM    5  H   UNL     1      -7.583   8.522  72.358  1.00  0.00     0.000 HD 
ENDROOT
BRANCH   4   6
HETATM    6  C   UNL     1      -9.516   8.561  71.588  1.00  0.00    -0.246 A  
HETATM    7  C   UNL     1     -10.631   8.215  72.357  1.00  0.00    -0.393 A  
HETATM    8  C   UNL     1     -11.888   8.761  72.079  1.00  0.00    -0.442 A  
HETATM    9  C   UNL     1     -12.026   9.660  71.030  1.00  0.00    -0.343 A  
HETATM   10  C   UNL     1     -10.923  10.052  70.285  1.00  0.00    -0.377 A  
HETATM   11  O   UNL     1     -13.242  10.175  70.695  1.00  0.00    -0.565 OA 
HETATM   12  H   UNL     1     -13.337  10.791  69.977  1.00  0.00     0.000 HD 
HETATM   13  C   UNL     1      -9.666   9.510  70.569  1.00  0.00    -0.325 A  
ENDBRANCH   4   6
TORSDOF 1
ENDMDL
MODEL      114
REMARK 921   NORMALIZED FREE ENERGY PREDICTED BY IDOCK:   -2.86 KCAL/MOL
REMARK 922        TOTAL FREE ENERGY PREDICTED BY IDOCK:   -3.20 KCAL/MOL
REMARK 923 INTER-LIGAND FREE ENERGY PREDICTED BY IDOCK:   -3.03 KCAL/MOL
REMARK 924 INTRA-LIGAND FREE ENERGY PREDICTED BY IDOCK:   -0.17 KCAL/MOL
REMARK 927      BINDING AFFINITY PREDICTED BY RF-SCORE:    0.00 PKD
ROOT
HETATM    1  C   UNL     1     -11.062   9.011  71.829  1.00  0.00    -0.444 C  
HETATM    2  C   UNL     1     -11.158   9.861  70.589  1.00  0.00    -0.340 C  
HETATM    3  O   UNL     1     -12.190  10.468  70.324  1.00  0.00    -0.294 OA 
HETATM    4  N   UNL     1      -9.992   9.835  69.844  1.00  0.00    -0.232 N  
HETATM    5  H   UNL     1      -9.221   9.279  70.215  1.00  0.00     0.000 HD 
ENDROOT
BRANCH   4   6
HETATM    6  C   UNL     1      -9.764  10.501  68.621  1.00  0.00    -0.173 A  
HETATM    7  C   UNL     1      -9.254  11.800  68.533  1.00  0.00    -0.152 A  
HETATM    8  C   UNL     1      -9.113  12.431  67.293  1.00  0.00    -0.187 A  
HETATM    9  C   UNL     1      -9.482  11.756  66.137  1.00  0.00    -0.226 A  
HETATM   10  C   UNL     1      -9.948  10.450  66.198  1.00  0.00    -0.290 A  
HETATM   11  O   UNL     1      -9.409  12.353  64.914  1.00  0.00    -0.430 OA 
HETATM   12  H   UNL     1      -9.661  11.891  64.124  1.00  0.00     0.000 HD 
HETATM   13  C   UNL     1     -10.081   9.818  67.439  1.00  0.00    -0.259 A  
ENDBRANCH   4   6
TORSDOF 1
ENDMDL
MODEL      115
REMARK 921   NORMALIZED FREE ENERGY PREDICTED BY IDOCK:   -2.86 KCAL/MOL
REMARK 922        TOTAL FREE ENERGY PREDICTED BY IDOCK:   -3.19 KCAL/MOL
REMARK 923 INTER-LIGAND FREE ENERGY PREDICTED BY IDOCK:   -3.02 KCAL/MOL
REMARK 924 INTRA-LIGAND FREE ENERGY PREDICTED BY IDOCK:   -0.17 KCAL/MOL
REMARK 927      BINDING AFFINITY PREDICTED BY RF-SCORE:    0.00 PKD
ROOT
HETATM    1  C   UNL     1     -13.815   9.099  72.257  1.00  0.00    -0.527 C  
HETATM    2  C   UNL     1     -12.405   8.672  71.946  1.00  0.00    -0.354 C  
HETATM    3  O   UNL     1     -11.705   8.147  72.805  1.00  0.00    -0.403 OA 
HETATM    4  N   UNL     1     -12.045   8.961  70.640  1.00  0.00    -0.483 N  
HETATM    5  H   UNL     1     -12.756   9.396  70.053  1.00  0.00     0.000 HD 
ENDROOT
BRANCH   4   6
HETATM    6  C   UNL     1     -10.791   8.712  70.043  1.00  0.00    -0.221 A  
HETATM    7  C   UNL     1     -10.486   7.537  69.350  1.00  0.00    -0.222 A  
HETATM    8  C   UNL     1      -9.203   7.322  68.836  1.00  0.00    -0.141 A  
HETATM    9  C   UNL     1      -8.224   8.290  69.015  1.00  0.00    -0.119 A  
HETATM   10  C   UNL     1      -8.519   9.484  69.659  1.00  0.00    -0.174 A  
HETATM   11  O   UNL     1      -6.949   8.098  68.575  1.00  0.00    -0.068 OA 
HETATM   12  H   UNL     1      -6.280   8.760  68.697  1.00  0.00     0.000 HD 
HETATM   13  C   UNL     1      -9.804   9.699  70.165  1.00  0.00    -0.310 A  
ENDBRANCH   4   6
TORSDOF 1
ENDMDL
MODEL      116
REMARK 921   NORMALIZED FREE ENERGY PREDICTED BY IDOCK:   -2.83 KCAL/MOL
REMARK 922        TOTAL FREE ENERGY PREDICTED BY IDOCK:   -3.16 KCAL/MOL
REMARK 923 INTER-LIGAND FREE ENERGY PREDICTED BY IDOCK:   -3.00 KCAL/MOL
REMARK 924 INTRA-LIGAND FREE ENERGY PREDICTED BY IDOCK:   -0.17 KCAL/MOL
REMARK 927      BINDING AFFINITY PREDICTED BY RF-SCORE:    0.00 PKD
ROOT
HETATM    1  C   UNL     1      -8.619   7.465  68.352  1.00  0.00    -0.124 C  
HETATM    2  C   UNL     1      -9.645   8.552  68.164  1.00  0.00    -0.143 C  
HETATM    3  O   UNL     1     -10.501   8.461  67.291  1.00  0.00    -0.279 OA 
HETATM    4  N   UNL     1      -9.470   9.598  69.053  1.00  0.00    -0.162 N  
HETATM    5  H   UNL     1      -8.706   9.509  69.723  1.00  0.00     0.000 HD 
ENDROOT
BRANCH   4   6
HETATM    6  C   UNL     1     -10.244  10.776  69.123  1.00  0.00    -0.211 A  
HETATM    7  C   UNL     1     -11.321  10.940  69.998  1.00  0.00    -0.386 A  
HETATM    8  C   UNL     1     -12.091  12.108  69.974  1.00  0.00    -0.352 A  
HETATM    9  C   UNL     1     -11.777  13.115  69.071  1.00  0.00    -0.321 A  
HETATM   10  C   UNL     1     -10.683  12.991  68.225  1.00  0.00    -0.261 A  
HETATM   11  O   UNL     1     -12.532  14.245  68.980  1.00  0.00    -0.559 OA 
HETATM   12  H   UNL     1     -12.317  14.934  68.363  1.00  0.00     0.000 HD 
HETATM   13  C   UNL     1      -9.911  11.826  68.257  1.00  0.00    -0.198 A  
ENDBRANCH   4   6
TORSDOF 1
ENDMDL
MODEL      117
REMARK 921   NORMALIZED FREE ENERGY PREDICTED BY IDOCK:   -2.80 KCAL/MOL
REMARK 922        TOTAL FREE ENERGY PREDICTED BY IDOCK:   -3.14 KCAL/MOL
REMARK 923 INTER-LIGAND FREE ENERGY PREDICTED BY IDOCK:   -2.99 KCAL/MOL
REMARK 924 INTRA-LIGAND FREE ENERGY PREDICTED BY IDOCK:   -0.14 KCAL/MOL
REMARK 927      BINDING AFFINITY PREDICTED BY RF-SCORE:    0.00 PKD
ROOT
HETATM    1  C   UNL     1     -10.733   3.313  63.456  1.00  0.00    -0.252 C  
HETATM    2  C   UNL     1     -10.052   4.136  64.517  1.00  0.00    -0.157 C  
HETATM    3  O   UNL     1      -8.857   4.399  64.436  1.00  0.00    -0.137 OA 
HETATM    4  N   UNL     1     -10.919   4.504  65.532  1.00  0.00    -0.862 N  
HETATM    5  H   UNL     1     -11.890   4.204  65.439  1.00  0.00     0.000 HD 
ENDROOT
BRANCH   4   6
HETATM    6  C   UNL     1     -10.591   5.254  66.682  1.00  0.00    -0.270 A  
HETATM    7  C   UNL     1     -10.906   6.607  66.836  1.00  0.00    -0.415 A  
HETATM    8  C   UNL     1     -10.496   7.312  67.972  1.00  0.00    -0.249 A  
HETATM    9  C   UNL     1      -9.771   6.656  68.959  1.00  0.00    -0.140 A  
HETATM   10  C   UNL     1      -9.489   5.302  68.847  1.00  0.00    -0.173 A  
HETATM   11  O   UNL     1      -9.309   7.318  70.056  1.00  0.00    -0.155 OA 
HETATM   12  H   UNL     1      -8.814   6.870  70.731  1.00  0.00     0.000 HD 
HETATM   13  C   UNL     1      -9.906   4.598  67.713  1.00  0.00    -0.183 A  
ENDBRANCH   4   6
TORSDOF 1
ENDMDL
MODEL      118
REMARK 921   NORMALIZED FREE ENERGY PREDICTED BY IDOCK:   -2.79 KCAL/MOL
REMARK 922        TOTAL FREE ENERGY PREDICTED BY IDOCK:   -3.13 KCAL/MOL
REMARK 923 INTER-LIGAND FREE ENERGY PREDICTED BY IDOCK:   -2.96 KCAL/MOL
REMARK 924 INTRA-LIGAND FREE ENERGY PREDICTED BY IDOCK:   -0.16 KCAL/MOL
REMARK 927      BINDING AFFINITY PREDICTED BY RF-SCORE:    0.00 PKD
ROOT
HETATM    1  C   UNL     1     -12.672  13.953  65.410  1.00  0.00    -0.525 C  
HETATM    2  C   UNL     1     -11.386  13.169  65.409  1.00  0.00    -0.297 C  
HETATM    3  O   UNL     1     -10.407  13.573  64.792  1.00  0.00    -0.388 OA 
HETATM    4  N   UNL     1     -11.484  12.000  66.143  1.00  0.00    -0.357 N  
HETATM    5  H   UNL     1     -12.377  11.818  66.601  1.00  0.00     0.000 HD 
ENDROOT
BRANCH   4   6
HETATM    6  C   UNL     1     -10.469  11.035  66.320  1.00  0.00    -0.254 A  
HETATM    7  C   UNL     1     -10.119  10.097  65.344  1.00  0.00    -0.342 A  
HETATM    8  C   UNL     1      -9.149   9.123  65.604  1.00  0.00    -0.273 A  
HETATM    9  C   UNL     1      -8.527   9.092  66.845  1.00  0.00    -0.119 A  
HETATM   10  C   UNL     1      -8.828  10.042  67.811  1.00  0.00    -0.125 A  
HETATM   11  O   UNL     1      -7.615   8.129  67.157  1.00  0.00    -0.093 OA 
HETATM   12  H   UNL     1      -7.190   8.107  68.005  1.00  0.00     0.000 HD 
HETATM   13  C   UNL     1      -9.792  11.019  67.547  1.00  0.00    -0.190 A  
ENDBRANCH   4   6
TORSDOF 1
ENDMDL
MODEL      119
REMARK 921   NORMALIZED FREE ENERGY PREDICTED BY IDOCK:   -2.78 KCAL/MOL
REMARK 922        TOTAL FREE ENERGY PREDICTED BY IDOCK:   -3.11 KCAL/MOL
REMARK 923 INTER-LIGAND FREE ENERGY PREDICTED BY IDOCK:   -2.99 KCAL/MOL
REMARK 924 INTRA-LIGAND FREE ENERGY PREDICTED BY IDOCK:   -0.13 KCAL/MOL
REMARK 927      BINDING AFFINITY PREDICTED BY RF-SCORE:    0.00 PKD
ROOT
HETATM    1  C   UNL     1     -11.101   6.623  73.064  1.00  0.00    -0.238 C  
HETATM    2  C   UNL     1     -11.703   7.366  71.900  1.00  0.00    -0.288 C  
HETATM    3  O   UNL     1     -12.747   6.983  71.384  1.00  0.00    -0.373 OA 
HETATM    4  N   UNL     1     -10.938   8.456  71.521  1.00  0.00    -0.247 N  
HETATM    5  H   UNL     1     -10.095   8.638  72.066  1.00  0.00     0.000 HD 
ENDROOT
BRANCH   4   6
HETATM    6  C   UNL     1     -11.210   9.341  70.456  1.00  0.00    -0.265 A  
HETATM    7  C   UNL     1     -11.149   8.969  69.110  1.00  0.00     0.072 A  
HETATM    8  C   UNL     1     -11.365   9.909  68.097  1.00  0.00    -0.027 A  
HETATM    9  C   UNL     1     -11.648  11.226  68.437  1.00  0.00    -0.308 A  
HETATM   10  C   UNL     1     -11.759  11.606  69.767  1.00  0.00    -0.425 A  
HETATM   11  O   UNL     1     -11.814  12.183  67.482  1.00  0.00    -0.499 OA 
HETATM   12  H   UNL     1     -12.008  13.084  67.713  1.00  0.00     0.000 HD 
HETATM   13  C   UNL     1     -11.549  10.662  70.777  1.00  0.00    -0.388 A  
ENDBRANCH   4   6
TORSDOF 1
ENDMDL
MODEL      120
REMARK 921   NORMALIZED FREE ENERGY PREDICTED BY IDOCK:   -2.74 KCAL/MOL
REMARK 922        TOTAL FREE ENERGY PREDICTED BY IDOCK:   -3.07 KCAL/MOL
REMARK 923 INTER-LIGAND FREE ENERGY PREDICTED BY IDOCK:   -2.97 KCAL/MOL
REMARK 924 INTRA-LIGAND FREE ENERGY PREDICTED BY IDOCK:   -0.10 KCAL/MOL
REMARK 927      BINDING AFFINITY PREDICTED BY RF-SCORE:    0.00 PKD
ROOT
HETATM    1  C   UNL     1     -10.182   4.562  65.752  1.00  0.00    -0.289 C  
HETATM    2  C   UNL     1     -10.071   4.963  67.200  1.00  0.00    -0.187 C  
HETATM    3  O   UNL     1      -9.400   4.301  67.984  1.00  0.00    -0.133 OA 
HETATM    4  N   UNL     1     -10.805   6.101  67.487  1.00  0.00    -0.311 N  
HETATM    5  H   UNL     1     -11.305   6.535  66.710  1.00  0.00     0.000 HD 
ENDROOT
BRANCH   4   6
HETATM    6  C   UNL     1     -10.932   6.720  68.748  1.00  0.00    -0.209 A  
HETATM    7  C   UNL     1     -11.521   6.102  69.855  1.00  0.00    -0.371 A  
HETATM    8  C   UNL     1     -11.676   6.793  71.062  1.00  0.00    -0.406 A  
HETATM    9  C   UNL     1     -11.236   8.107  71.159  1.00  0.00    -0.257 A  
HETATM   10  C   UNL     1     -10.607   8.723  70.086  1.00  0.00    -0.237 A  
HETATM   11  O   UNL     1     -11.414   8.831  72.299  1.00  0.00    -0.362 OA 
HETATM   12  H   UNL     1     -11.113   9.729  72.365  1.00  0.00     0.000 HD 
HETATM   13  C   UNL     1     -10.446   8.028  68.883  1.00  0.00    -0.207 A  
ENDBRANCH   4   6
TORSDOF 1
ENDMDL
MODEL      121
REMARK 921   NORMALIZED FREE ENERGY PREDICTED BY IDOCK:   -2.72 KCAL/MOL
REMARK 922        TOTAL FREE ENERGY PREDICTED BY IDOCK:   -3.05 KCAL/MOL
REMARK 923 INTER-LIGAND FREE ENERGY PREDICTED BY IDOCK:   -2.89 KCAL/MOL
REMARK 924 INTRA-LIGAND FREE ENERGY PREDICTED BY IDOCK:   -0.16 KCAL/MOL
REMARK 927      BINDING AFFINITY PREDICTED BY RF-SCORE:    0.00 PKD
ROOT
HETATM    1  C   UNL     1      -8.401  13.183  67.545  1.00  0.00    -0.185 C  
HETATM    2  C   UNL     1      -8.668  14.619  67.179  1.00  0.00    -0.222 C  
HETATM    3  O   UNL     1      -9.703  14.938  66.603  1.00  0.00    -0.239 OA 
HETATM    4  N   UNL     1      -7.631  15.457  67.553  1.00  0.00    -0.163 N  
HETATM    5  H   UNL     1      -6.841  15.025  68.033  1.00  0.00     0.000 HD 
ENDROOT
BRANCH   4   6
HETATM    6  C   UNL     1      -7.559  16.849  67.334  1.00  0.00    -0.161 A  
HETATM    7  C   UNL     1      -6.837  17.429  66.287  1.00  0.00    -0.307 A  
HETATM    8  C   UNL     1      -6.750  18.820  66.162  1.00  0.00    -0.264 A  
HETATM    9  C   UNL     1      -7.392  19.630  67.089  1.00  0.00    -0.217 A  
HETATM   10  C   UNL     1      -8.152  19.075  68.109  1.00  0.00    -0.347 A  
HETATM   11  O   UNL     1      -7.290  20.988  67.033  1.00  0.00    -0.511 OA 
HETATM   12  H   UNL     1      -7.730  21.542  67.667  1.00  0.00     0.000 HD 
HETATM   13  C   UNL     1      -8.243  17.684  68.227  1.00  0.00    -0.276 A  
ENDBRANCH   4   6
TORSDOF 1
ENDMDL
MODEL      122
REMARK 921   NORMALIZED FREE ENERGY PREDICTED BY IDOCK:   -2.71 KCAL/MOL
REMARK 922        TOTAL FREE ENERGY PREDICTED BY IDOCK:   -3.03 KCAL/MOL
REMARK 923 INTER-LIGAND FREE ENERGY PREDICTED BY IDOCK:   -2.86 KCAL/MOL
REMARK 924 INTRA-LIGAND FREE ENERGY PREDICTED BY IDOCK:   -0.17 KCAL/MOL
REMARK 927      BINDING AFFINITY PREDICTED BY RF-SCORE:    0.00 PKD
ROOT
HETATM    1  C   UNL     1      -7.736  11.802  68.816  1.00  0.00    -0.091 C  
HETATM    2  C   UNL     1      -8.953  10.916  68.862  1.00  0.00    -0.140 C  
HETATM    3  O   UNL     1      -9.785  10.948  67.962  1.00  0.00    -0.159 OA 
HETATM    4  N   UNL     1      -8.990  10.134  70.004  1.00  0.00    -0.380 N  
HETATM    5  H   UNL     1      -8.208  10.228  70.652  1.00  0.00     0.000 HD 
ENDROOT
BRANCH   4   6
HETATM    6  C   UNL     1     -10.004   9.219  70.360  1.00  0.00    -0.237 A  
HETATM    7  C   UNL     1     -10.091   7.924  69.843  1.00  0.00    -0.197 A  
HETATM    8  C   UNL     1     -11.158   7.087  70.185  1.00  0.00    -0.323 A  
HETATM    9  C   UNL     1     -12.139   7.550  71.051  1.00  0.00    -0.277 A  
HETATM   10  C   UNL     1     -12.048   8.816  71.612  1.00  0.00    -0.401 A  
HETATM   11  O   UNL     1     -13.221   6.785  71.369  1.00  0.00    -0.261 OA 
HETATM   12  H   UNL     1     -13.892   7.102  71.962  1.00  0.00     0.000 HD 
HETATM   13  C   UNL     1     -10.976   9.648  71.274  1.00  0.00    -0.399 A  
ENDBRANCH   4   6
TORSDOF 1
ENDMDL
MODEL      123
REMARK 921   NORMALIZED FREE ENERGY PREDICTED BY IDOCK:   -2.67 KCAL/MOL
REMARK 922        TOTAL FREE ENERGY PREDICTED BY IDOCK:   -2.99 KCAL/MOL
REMARK 923 INTER-LIGAND FREE ENERGY PREDICTED BY IDOCK:   -2.93 KCAL/MOL
REMARK 924 INTRA-LIGAND FREE ENERGY PREDICTED BY IDOCK:   -0.07 KCAL/MOL
REMARK 927      BINDING AFFINITY PREDICTED BY RF-SCORE:    0.00 PKD
ROOT
HETATM    1  C   UNL     1      -8.371   5.343  65.857  1.00  0.00    -0.123 C  
HETATM    2  C   UNL     1      -8.958   6.017  67.070  1.00  0.00    -0.113 C  
HETATM    3  O   UNL     1      -8.853   7.229  67.225  1.00  0.00    -0.122 OA 
HETATM    4  N   UNL     1      -9.571   5.118  67.925  1.00  0.00    -0.130 N  
HETATM    5  H   UNL     1      -9.573   4.138  67.639  1.00  0.00     0.000 HD 
ENDROOT
BRANCH   4   6
HETATM    6  C   UNL     1     -10.193   5.422  69.155  1.00  0.00    -0.232 A  
HETATM    7  C   UNL     1     -11.260   6.316  69.279  1.00  0.00    -0.458 A  
HETATM    8  C   UNL     1     -11.791   6.626  70.535  1.00  0.00    -0.430 A  
HETATM    9  C   UNL     1     -11.252   6.035  71.670  1.00  0.00    -0.268 A  
HETATM   10  C   UNL     1     -10.222   5.110  71.564  1.00  0.00    -0.274 A  
HETATM   11  O   UNL     1     -11.706   6.348  72.916  1.00  0.00    -0.483 OA 
HETATM   12  H   UNL     1     -11.337   5.944  73.692  1.00  0.00     0.000 HD 
HETATM   13  C   UNL     1      -9.698   4.796  70.307  1.00  0.00    -0.296 A  
ENDBRANCH   4   6
TORSDOF 1
ENDMDL
MODEL      124
REMARK 921   NORMALIZED FREE ENERGY PREDICTED BY IDOCK:   -2.66 KCAL/MOL
REMARK 922        TOTAL FREE ENERGY PREDICTED BY IDOCK:   -2.99 KCAL/MOL
REMARK 923 INTER-LIGAND FREE ENERGY PREDICTED BY IDOCK:   -2.90 KCAL/MOL
REMARK 924 INTRA-LIGAND FREE ENERGY PREDICTED BY IDOCK:   -0.09 KCAL/MOL
REMARK 927      BINDING AFFINITY PREDICTED BY RF-SCORE:    0.00 PKD
ROOT
HETATM    1  C   UNL     1      -6.376  20.100  71.169  1.00  0.00    -0.113 C  
HETATM    2  C   UNL     1      -5.962  20.365  69.746  1.00  0.00    -0.349 C  
HETATM    3  O   UNL     1      -5.252  21.325  69.468  1.00  0.00    -0.344 OA 
HETATM    4  N   UNL     1      -6.485  19.434  68.865  1.00  0.00    -0.263 N  
HETATM    5  H   UNL     1      -7.056  18.690  69.268  1.00  0.00     0.000 HD 
ENDROOT
BRANCH   4   6
HETATM    6  C   UNL     1      -6.308  19.412  67.465  1.00  0.00    -0.199 A  
HETATM    7  C   UNL     1      -6.736  20.439  66.618  1.00  0.00    -0.291 A  
HETATM    8  C   UNL     1      -6.590  20.329  65.231  1.00  0.00    -0.322 A  
HETATM    9  C   UNL     1      -6.010  19.188  64.693  1.00  0.00    -0.273 A  
HETATM   10  C   UNL     1      -5.537  18.178  65.519  1.00  0.00    -0.211 A  
HETATM   11  O   UNL     1      -5.896  19.019  63.346  1.00  0.00    -0.373 OA 
HETATM   12  H   UNL     1      -5.499  18.239  62.978  1.00  0.00     0.000 HD 
HETATM   13  C   UNL     1      -5.677  18.293  66.906  1.00  0.00    -0.163 A  
ENDBRANCH   4   6
TORSDOF 1
ENDMDL
MODEL      125
REMARK 921   NORMALIZED FREE ENERGY PREDICTED BY IDOCK:   -2.66 KCAL/MOL
REMARK 922        TOTAL FREE ENERGY PREDICTED BY IDOCK:   -2.98 KCAL/MOL
REMARK 923 INTER-LIGAND FREE ENERGY PREDICTED BY IDOCK:   -2.84 KCAL/MOL
REMARK 924 INTRA-LIGAND FREE ENERGY PREDICTED BY IDOCK:   -0.15 KCAL/MOL
REMARK 927      BINDING AFFINITY PREDICTED BY RF-SCORE:    0.00 PKD
ROOT
HETATM    1  C   UNL     1      -9.238   8.247  71.975  1.00  0.00    -0.270 C  
HETATM    2  C   UNL     1      -9.708   8.678  70.611  1.00  0.00    -0.184 C  
HETATM    3  O   UNL     1      -9.951   7.849  69.741  1.00  0.00    -0.181 OA 
HETATM    4  N   UNL     1      -9.799  10.055  70.498  1.00  0.00    -0.361 N  
HETATM    5  H   UNL     1      -9.564  10.601  71.328  1.00  0.00     0.000 HD 
ENDROOT
BRANCH   4   6
HETATM    6  C   UNL     1     -10.183  10.778  69.349  1.00  0.00    -0.160 A  
HETATM    7  C   UNL     1      -9.378  10.907  68.214  1.00  0.00    -0.168 A  
HETATM    8  C   UNL     1      -9.788  11.692  67.131  1.00  0.00    -0.205 A  
HETATM    9  C   UNL     1     -11.012  12.347  67.187  1.00  0.00    -0.262 A  
HETATM   10  C   UNL     1     -11.846  12.195  68.285  1.00  0.00    -0.361 A  
HETATM   11  O   UNL     1     -11.425  13.162  66.176  1.00  0.00    -0.307 OA 
HETATM   12  H   UNL     1     -12.262  13.609  66.214  1.00  0.00     0.000 HD 
HETATM   13  C   UNL     1     -11.437  11.403  69.363  1.00  0.00    -0.378 A  
ENDBRANCH   4   6
TORSDOF 1
ENDMDL
MODEL      126
REMARK 921   NORMALIZED FREE ENERGY PREDICTED BY IDOCK:   -2.65 KCAL/MOL
REMARK 922        TOTAL FREE ENERGY PREDICTED BY IDOCK:   -2.97 KCAL/MOL
REMARK 923 INTER-LIGAND FREE ENERGY PREDICTED BY IDOCK:   -2.81 KCAL/MOL
REMARK 924 INTRA-LIGAND FREE ENERGY PREDICTED BY IDOCK:   -0.16 KCAL/MOL
REMARK 927      BINDING AFFINITY PREDICTED BY RF-SCORE:    0.00 PKD
ROOT
HETATM    1  C   UNL     1     -11.312  11.604  67.054  1.00  0.00    -0.373 C  
HETATM    2  C   UNL     1     -10.845  13.026  66.882  1.00  0.00    -0.264 C  
HETATM    3  O   UNL     1     -10.953  13.595  65.802  1.00  0.00    -0.278 OA 
HETATM    4  N   UNL     1     -10.299  13.543  68.045  1.00  0.00    -0.235 N  
HETATM    5  H   UNL     1     -10.292  12.931  68.861  1.00  0.00     0.000 HD 
ENDROOT
BRANCH   4   6
HETATM    6  C   UNL     1      -9.750  14.832  68.211  1.00  0.00    -0.218 A  
HETATM    7  C   UNL     1     -10.523  15.991  68.322  1.00  0.00    -0.269 A  
HETATM    8  C   UNL     1      -9.918  17.249  68.418  1.00  0.00    -0.322 A  
HETATM    9  C   UNL     1      -8.533  17.343  68.408  1.00  0.00    -0.263 A  
HETATM   10  C   UNL     1      -7.746  16.201  68.346  1.00  0.00    -0.154 A  
HETATM   11  O   UNL     1      -7.905  18.551  68.449  1.00  0.00    -0.291 OA 
HETATM   12  H   UNL     1      -6.957  18.615  68.442  1.00  0.00     0.000 HD 
HETATM   13  C   UNL     1      -8.354  14.944  68.256  1.00  0.00    -0.148 A  
ENDBRANCH   4   6
TORSDOF 1
ENDMDL
MODEL      127
REMARK 921   NORMALIZED FREE ENERGY PREDICTED BY IDOCK:   -2.65 KCAL/MOL
REMARK 922        TOTAL FREE ENERGY PREDICTED BY IDOCK:   -2.97 KCAL/MOL
REMARK 923 INTER-LIGAND FREE ENERGY PREDICTED BY IDOCK:   -2.83 KCAL/MOL
REMARK 924 INTRA-LIGAND FREE ENERGY PREDICTED BY IDOCK:   -0.14 KCAL/MOL
REMARK 927      BINDING AFFINITY PREDICTED BY RF-SCORE:    0.00 PKD
ROOT
HETATM    1  C   UNL     1      -9.070   5.960  67.634  1.00  0.00    -0.106 C  
HETATM    2  C   UNL     1      -9.970   7.164  67.731  1.00  0.00    -0.155 C  
HETATM    3  O   UNL     1     -10.794   7.402  66.856  1.00  0.00    -0.357 OA 
HETATM    4  N   UNL     1      -9.724   7.912  68.870  1.00  0.00    -0.156 N  
HETATM    5  H   UNL     1      -9.001   7.565  69.501  1.00  0.00     0.000 HD 
ENDROOT
BRANCH   4   6
HETATM    6  C   UNL     1     -10.374   9.107  69.243  1.00  0.00    -0.216 A  
HETATM    7  C   UNL     1     -10.182  10.327  68.588  1.00  0.00    -0.196 A  
HETATM    8  C   UNL     1     -10.806  11.492  69.047  1.00  0.00    -0.258 A  
HETATM    9  C   UNL     1     -11.628  11.432  70.165  1.00  0.00    -0.280 A  
HETATM   10  C   UNL     1     -11.868  10.222  70.802  1.00  0.00    -0.459 A  
HETATM   11  O   UNL     1     -12.213  12.551  70.675  1.00  0.00    -0.371 OA 
HETATM   12  H   UNL     1     -12.775  12.510  71.439  1.00  0.00     0.000 HD 
HETATM   13  C   UNL     1     -11.249   9.058  70.337  1.00  0.00    -0.275 A  
ENDBRANCH   4   6
TORSDOF 1
ENDMDL
MODEL      128
REMARK 921   NORMALIZED FREE ENERGY PREDICTED BY IDOCK:   -2.59 KCAL/MOL
REMARK 922        TOTAL FREE ENERGY PREDICTED BY IDOCK:   -2.91 KCAL/MOL
REMARK 923 INTER-LIGAND FREE ENERGY PREDICTED BY IDOCK:   -2.74 KCAL/MOL
REMARK 924 INTRA-LIGAND FREE ENERGY PREDICTED BY IDOCK:   -0.17 KCAL/MOL
REMARK 927      BINDING AFFINITY PREDICTED BY RF-SCORE:    0.00 PKD
ROOT
HETATM    1  C   UNL     1      -8.924   6.615  73.212  1.00  0.00    -0.138 C  
HETATM    2  C   UNL     1      -8.871   6.555  71.708  1.00  0.00    -0.138 C  
HETATM    3  O   UNL     1      -8.005   7.159  71.086  1.00  0.00    -0.100 OA 
HETATM    4  N   UNL     1      -9.891   5.782  71.178  1.00  0.00    -0.175 N  
HETATM    5  H   UNL     1     -10.527   5.342  71.843  1.00  0.00     0.000 HD 
ENDROOT
BRANCH   4   6
HETATM    6  C   UNL     1     -10.137   5.545  69.809  1.00  0.00    -0.232 A  
HETATM    7  C   UNL     1      -9.641   4.435  69.117  1.00  0.00    -0.252 A  
HETATM    8  C   UNL     1      -9.865   4.290  67.744  1.00  0.00    -0.132 A  
HETATM    9  C   UNL     1     -10.591   5.259  67.064  1.00  0.00    -0.184 A  
HETATM   10  C   UNL     1     -11.130   6.344  67.740  1.00  0.00    -0.376 A  
HETATM   11  O   UNL     1     -10.787   5.181  65.718  1.00  0.00    -0.633 OA 
HETATM   12  H   UNL     1     -11.284   5.843  65.252  1.00  0.00     0.000 HD 
HETATM   13  C   UNL     1     -10.911   6.483  69.114  1.00  0.00    -0.380 A  
ENDBRANCH   4   6
TORSDOF 1
ENDMDL
MODEL      129
REMARK 921   NORMALIZED FREE ENERGY PREDICTED BY IDOCK:   -2.58 KCAL/MOL
REMARK 922        TOTAL FREE ENERGY PREDICTED BY IDOCK:   -2.90 KCAL/MOL
REMARK 923 INTER-LIGAND FREE ENERGY PREDICTED BY IDOCK:   -2.74 KCAL/MOL
REMARK 924 INTRA-LIGAND FREE ENERGY PREDICTED BY IDOCK:   -0.16 KCAL/MOL
REMARK 927      BINDING AFFINITY PREDICTED BY RF-SCORE:    0.00 PKD
ROOT
HETATM    1  C   UNL     1      -8.969   5.476  68.679  1.00  0.00    -0.118 C  
HETATM    2  C   UNL     1      -9.125   6.860  69.251  1.00  0.00    -0.140 C  
HETATM    3  O   UNL     1      -8.172   7.440  69.760  1.00  0.00    -0.125 OA 
HETATM    4  N   UNL     1     -10.422   7.331  69.138  1.00  0.00    -0.212 N  
HETATM    5  H   UNL     1     -11.096   6.718  68.679  1.00  0.00     0.000 HD 
ENDROOT
BRANCH   4   6
HETATM    6  C   UNL     1     -10.904   8.576  69.596  1.00  0.00    -0.151 A  
HETATM    7  C   UNL     1     -11.587   8.742  70.804  1.00  0.00    -0.288 A  
HETATM    8  C   UNL     1     -12.098   9.992  71.171  1.00  0.00    -0.475 A  
HETATM    9  C   UNL     1     -11.920  11.078  70.325  1.00  0.00    -0.365 A  
HETATM   10  C   UNL     1     -11.205  10.945  69.143  1.00  0.00    -0.318 A  
HETATM   11  O   UNL     1     -12.446  12.300  70.621  1.00  0.00    -0.315 OA 
HETATM   12  H   UNL     1     -12.324  13.043  70.042  1.00  0.00     0.000 HD 
HETATM   13  C   UNL     1     -10.689   9.696  68.781  1.00  0.00    -0.234 A  
ENDBRANCH   4   6
TORSDOF 1
ENDMDL
MODEL      130
REMARK 921   NORMALIZED FREE ENERGY PREDICTED BY IDOCK:   -2.57 KCAL/MOL
REMARK 922        TOTAL FREE ENERGY PREDICTED BY IDOCK:   -2.89 KCAL/MOL
REMARK 923 INTER-LIGAND FREE ENERGY PREDICTED BY IDOCK:   -2.73 KCAL/MOL
REMARK 924 INTRA-LIGAND FREE ENERGY PREDICTED BY IDOCK:   -0.16 KCAL/MOL
REMARK 927      BINDING AFFINITY PREDICTED BY RF-SCORE:    0.00 PKD
ROOT
HETATM    1  C   UNL     1      -6.337   8.579  67.529  1.00  0.00    -0.057 C  
HETATM    2  C   UNL     1      -7.725   8.469  68.105  1.00  0.00    -0.102 C  
HETATM    3  O   UNL     1      -8.554   7.717  67.604  1.00  0.00    -0.116 OA 
HETATM    4  N   UNL     1      -7.908   9.303  69.195  1.00  0.00    -0.084 N  
HETATM    5  H   UNL     1      -7.106   9.862  69.486  1.00  0.00     0.000 HD 
ENDROOT
BRANCH   4   6
HETATM    6  C   UNL     1      -9.095   9.455  69.942  1.00  0.00    -0.204 A  
HETATM    7  C   UNL     1      -9.339   8.788  71.146  1.00  0.00    -0.297 A  
HETATM    8  C   UNL     1     -10.564   8.930  71.807  1.00  0.00    -0.432 A  
HETATM    9  C   UNL     1     -11.545   9.747  71.260  1.00  0.00    -0.390 A  
HETATM   10  C   UNL     1     -11.306  10.453  70.090  1.00  0.00    -0.397 A  
HETATM   11  O   UNL     1     -12.769   9.872  71.845  1.00  0.00    -0.394 OA 
HETATM   12  H   UNL     1     -13.440  10.431  71.471  1.00  0.00     0.000 HD 
HETATM   13  C   UNL     1     -10.078  10.315  69.435  1.00  0.00    -0.255 A  
ENDBRANCH   4   6
TORSDOF 1
ENDMDL
MODEL      131
REMARK 921   NORMALIZED FREE ENERGY PREDICTED BY IDOCK:   -2.57 KCAL/MOL
REMARK 922        TOTAL FREE ENERGY PREDICTED BY IDOCK:   -2.89 KCAL/MOL
REMARK 923 INTER-LIGAND FREE ENERGY PREDICTED BY IDOCK:   -2.73 KCAL/MOL
REMARK 924 INTRA-LIGAND FREE ENERGY PREDICTED BY IDOCK:   -0.16 KCAL/MOL
REMARK 927      BINDING AFFINITY PREDICTED BY RF-SCORE:    0.00 PKD
ROOT
HETATM    1  C   UNL     1      -8.306   4.735  71.272  1.00  0.00    -0.108 C  
HETATM    2  C   UNL     1      -8.890   6.076  71.635  1.00  0.00    -0.139 C  
HETATM    3  O   UNL     1      -8.669   6.580  72.730  1.00  0.00    -0.125 OA 
HETATM    4  N   UNL     1      -9.671   6.600  70.619  1.00  0.00    -0.172 N  
HETATM    5  H   UNL     1      -9.744   6.048  69.763  1.00  0.00     0.000 HD 
ENDROOT
BRANCH   4   6
HETATM    6  C   UNL     1     -10.376   7.822  70.650  1.00  0.00    -0.202 A  
HETATM    7  C   UNL     1      -9.899   9.003  70.074  1.00  0.00    -0.203 A  
HETATM    8  C   UNL     1     -10.615  10.198  70.196  1.00  0.00    -0.337 A  
HETATM    9  C   UNL     1     -11.815  10.208  70.894  1.00  0.00    -0.374 A  
HETATM   10  C   UNL     1     -12.329   9.037  71.434  1.00  0.00    -0.380 A  
HETATM   11  O   UNL     1     -12.517  11.360  71.080  1.00  0.00    -0.386 OA 
HETATM   12  H   UNL     1     -13.338  11.367  71.557  1.00  0.00     0.000 HD 
HETATM   13  C   UNL     1     -11.615   7.841  71.304  1.00  0.00    -0.301 A  
ENDBRANCH   4   6
TORSDOF 1
ENDMDL
MODEL      132
REMARK 921   NORMALIZED FREE ENERGY PREDICTED BY IDOCK:   -2.56 KCAL/MOL
REMARK 922        TOTAL FREE ENERGY PREDICTED BY IDOCK:   -2.88 KCAL/MOL
REMARK 923 INTER-LIGAND FREE ENERGY PREDICTED BY IDOCK:   -2.71 KCAL/MOL
REMARK 924 INTRA-LIGAND FREE ENERGY PREDICTED BY IDOCK:   -0.17 KCAL/MOL
REMARK 927      BINDING AFFINITY PREDICTED BY RF-SCORE:    0.00 PKD
ROOT
HETATM    1  C   UNL     1      -5.936  16.692  70.265  1.00  0.00    -0.052 C  
HETATM    2  C   UNL     1      -6.527  17.502  69.140  1.00  0.00    -0.240 C  
HETATM    3  O   UNL     1      -7.736  17.501  68.935  1.00  0.00    -0.263 OA 
HETATM    4  N   UNL     1      -5.560  18.181  68.419  1.00  0.00    -0.165 N  
HETATM    5  H   UNL     1      -4.595  18.076  68.731  1.00  0.00     0.000 HD 
ENDROOT
BRANCH   4   6
HETATM    6  C   UNL     1      -5.779  19.005  67.294  1.00  0.00    -0.170 A  
HETATM    7  C   UNL     1      -5.967  20.387  67.375  1.00  0.00    -0.230 A  
HETATM    8  C   UNL     1      -6.246  21.140  66.229  1.00  0.00    -0.310 A  
HETATM    9  C   UNL     1      -6.333  20.503  64.998  1.00  0.00    -0.287 A  
HETATM   10  C   UNL     1      -6.104  19.139  64.889  1.00  0.00    -0.312 A  
HETATM   11  O   UNL     1      -6.652  21.191  63.866  1.00  0.00    -0.457 OA 
HETATM   12  H   UNL     1      -6.711  20.756  63.024  1.00  0.00     0.000 HD 
HETATM   13  C   UNL     1      -5.818  18.390  66.035  1.00  0.00    -0.220 A  
ENDBRANCH   4   6
TORSDOF 1
ENDMDL
MODEL      133
REMARK 921   NORMALIZED FREE ENERGY PREDICTED BY IDOCK:   -2.55 KCAL/MOL
REMARK 922        TOTAL FREE ENERGY PREDICTED BY IDOCK:   -2.87 KCAL/MOL
REMARK 923 INTER-LIGAND FREE ENERGY PREDICTED BY IDOCK:   -2.70 KCAL/MOL
REMARK 924 INTRA-LIGAND FREE ENERGY PREDICTED BY IDOCK:   -0.17 KCAL/MOL
REMARK 927      BINDING AFFINITY PREDICTED BY RF-SCORE:    0.00 PKD
ROOT
HETATM    1  C   UNL     1      -7.986   8.185  63.690  1.00  0.00    -0.140 C  
HETATM    2  C   UNL     1      -8.157   7.828  65.143  1.00  0.00    -0.137 C  
HETATM    3  O   UNL     1      -7.224   7.364  65.789  1.00  0.00    -0.064 OA 
HETATM    4  N   UNL     1      -9.443   8.070  65.595  1.00  0.00    -0.406 N  
HETATM    5  H   UNL     1     -10.100   8.467  64.922  1.00  0.00     0.000 HD 
ENDROOT
BRANCH   4   6
HETATM    6  C   UNL     1      -9.935   7.822  66.894  1.00  0.00    -0.261 A  
HETATM    7  C   UNL     1      -9.914   8.771  67.921  1.00  0.00    -0.231 A  
HETATM    8  C   UNL     1     -10.357   8.443  69.207  1.00  0.00    -0.220 A  
HETATM    9  C   UNL     1     -10.826   7.161  69.462  1.00  0.00    -0.225 A  
HETATM   10  C   UNL     1     -10.898   6.219  68.445  1.00  0.00    -0.394 A  
HETATM   11  O   UNL     1     -11.218   6.786  70.711  1.00  0.00    -0.267 OA 
HETATM   12  H   UNL     1     -11.539   5.909  70.886  1.00  0.00     0.000 HD 
HETATM   13  C   UNL     1     -10.462   6.551  67.159  1.00  0.00    -0.354 A  
ENDBRANCH   4   6
TORSDOF 1
ENDMDL
MODEL      134
REMARK 921   NORMALIZED FREE ENERGY PREDICTED BY IDOCK:   -2.52 KCAL/MOL
REMARK 922        TOTAL FREE ENERGY PREDICTED BY IDOCK:   -2.84 KCAL/MOL
REMARK 923 INTER-LIGAND FREE ENERGY PREDICTED BY IDOCK:   -2.67 KCAL/MOL
REMARK 924 INTRA-LIGAND FREE ENERGY PREDICTED BY IDOCK:   -0.17 KCAL/MOL
REMARK 927      BINDING AFFINITY PREDICTED BY RF-SCORE:    0.00 PKD
ROOT
HETATM    1  C   UNL     1      -6.791   8.186  67.548  1.00  0.00    -0.070 C  
HETATM    2  C   UNL     1      -8.255   8.105  67.895  1.00  0.00    -0.129 C  
HETATM    3  O   UNL     1      -9.113   8.279  67.036  1.00  0.00    -0.137 OA 
HETATM    4  N   UNL     1      -8.462   7.841  69.238  1.00  0.00    -0.136 N  
HETATM    5  H   UNL     1      -7.631   7.717  69.816  1.00  0.00     0.000 HD 
ENDROOT
BRANCH   4   6
HETATM    6  C   UNL     1      -9.711   7.728  69.886  1.00  0.00    -0.176 A  
HETATM    7  C   UNL     1     -10.455   8.827  70.323  1.00  0.00    -0.231 A  
HETATM    8  C   UNL     1     -11.656   8.648  71.019  1.00  0.00    -0.325 A  
HETATM    9  C   UNL     1     -12.112   7.361  71.273  1.00  0.00    -0.328 A  
HETATM   10  C   UNL     1     -11.411   6.257  70.808  1.00  0.00    -0.397 A  
HETATM   11  O   UNL     1     -13.248   7.142  71.991  1.00  0.00    -0.513 OA 
HETATM   12  H   UNL     1     -13.561   6.262  72.165  1.00  0.00     0.000 HD 
HETATM   13  C   UNL     1     -10.215   6.440  70.106  1.00  0.00    -0.229 A  
ENDBRANCH   4   6
TORSDOF 1
ENDMDL
MODEL      135
REMARK 921   NORMALIZED FREE ENERGY PREDICTED BY IDOCK:   -2.49 KCAL/MOL
REMARK 922        TOTAL FREE ENERGY PREDICTED BY IDOCK:   -2.81 KCAL/MOL
REMARK 923 INTER-LIGAND FREE ENERGY PREDICTED BY IDOCK:   -2.64 KCAL/MOL
REMARK 924 INTRA-LIGAND FREE ENERGY PREDICTED BY IDOCK:   -0.17 KCAL/MOL
REMARK 927      BINDING AFFINITY PREDICTED BY RF-SCORE:    0.00 PKD
ROOT
HETATM    1  C   UNL     1      -9.523   4.048  73.890  1.00  0.00    -0.116 C  
HETATM    2  C   UNL     1      -9.336   4.846  72.626  1.00  0.00    -0.133 C  
HETATM    3  O   UNL     1      -8.392   5.619  72.506  1.00  0.00    -0.114 OA 
HETATM    4  N   UNL     1     -10.334   4.601  71.698  1.00  0.00    -0.161 N  
HETATM    5  H   UNL     1     -11.047   3.918  71.959  1.00  0.00     0.000 HD 
ENDROOT
BRANCH   4   6
HETATM    6  C   UNL     1     -10.464   5.203  70.429  1.00  0.00    -0.216 A  
HETATM    7  C   UNL     1     -11.260   6.325  70.185  1.00  0.00    -0.470 A  
HETATM    8  C   UNL     1     -11.400   6.836  68.890  1.00  0.00    -0.127 A  
HETATM    9  C   UNL     1     -10.735   6.221  67.838  1.00  0.00    -0.305 A  
HETATM   10  C   UNL     1      -9.903   5.134  68.065  1.00  0.00    -0.199 A  
HETATM   11  O   UNL     1     -10.884   6.656  66.555  1.00  0.00    -0.523 OA 
HETATM   12  H   UNL     1     -10.429   6.235  65.835  1.00  0.00     0.000 HD 
HETATM   13  C   UNL     1      -9.760   4.629  69.362  1.00  0.00    -0.272 A  
ENDBRANCH   4   6
TORSDOF 1
ENDMDL
MODEL      136
REMARK 921   NORMALIZED FREE ENERGY PREDICTED BY IDOCK:   -2.47 KCAL/MOL
REMARK 922        TOTAL FREE ENERGY PREDICTED BY IDOCK:   -2.78 KCAL/MOL
REMARK 923 INTER-LIGAND FREE ENERGY PREDICTED BY IDOCK:   -2.65 KCAL/MOL
REMARK 924 INTRA-LIGAND FREE ENERGY PREDICTED BY IDOCK:   -0.13 KCAL/MOL
REMARK 927      BINDING AFFINITY PREDICTED BY RF-SCORE:    0.00 PKD
ROOT
HETATM    1  C   UNL     1      -9.185   2.454  68.386  1.00  0.00    -0.253 C  
HETATM    2  C   UNL     1      -9.372   3.931  68.614  1.00  0.00    -0.164 C  
HETATM    3  O   UNL     1      -9.073   4.742  67.745  1.00  0.00    -0.109 OA 
HETATM    4  N   UNL     1      -9.878   4.207  69.872  1.00  0.00    -0.212 N  
HETATM    5  H   UNL     1     -10.079   3.408  70.474  1.00  0.00     0.000 HD 
ENDROOT
BRANCH   4   6
HETATM    6  C   UNL     1     -10.144   5.487  70.406  1.00  0.00    -0.230 A  
HETATM    7  C   UNL     1      -9.342   6.102  71.371  1.00  0.00    -0.163 A  
HETATM    8  C   UNL     1      -9.695   7.344  71.909  1.00  0.00    -0.179 A  
HETATM    9  C   UNL     1     -10.855   7.972  71.474  1.00  0.00    -0.232 A  
HETATM   10  C   UNL     1     -11.640   7.400  70.483  1.00  0.00    -0.256 A  
HETATM   11  O   UNL     1     -11.261   9.157  72.009  1.00  0.00    -0.364 OA 
HETATM   12  H   UNL     1     -12.054   9.587  71.711  1.00  0.00     0.000 HD 
HETATM   13  C   UNL     1     -11.281   6.162  69.942  1.00  0.00    -0.484 A  
ENDBRANCH   4   6
TORSDOF 1
ENDMDL
MODEL      137
REMARK 921   NORMALIZED FREE ENERGY PREDICTED BY IDOCK:   -2.45 KCAL/MOL
REMARK 922        TOTAL FREE ENERGY PREDICTED BY IDOCK:   -2.77 KCAL/MOL
REMARK 923 INTER-LIGAND FREE ENERGY PREDICTED BY IDOCK:   -2.60 KCAL/MOL
REMARK 924 INTRA-LIGAND FREE ENERGY PREDICTED BY IDOCK:   -0.17 KCAL/MOL
REMARK 927      BINDING AFFINITY PREDICTED BY RF-SCORE:    0.00 PKD
ROOT
HETATM    1  C   UNL     1      -7.819   2.413  72.710  1.00  0.00    -0.053 C  
HETATM    2  C   UNL     1      -8.362   3.794  72.452  1.00  0.00    -0.089 C  
HETATM    3  O   UNL     1      -7.780   4.786  72.876  1.00  0.00    -0.089 OA 
HETATM    4  N   UNL     1      -9.543   3.766  71.730  1.00  0.00    -0.146 N  
HETATM    5  H   UNL     1      -9.889   2.848  71.448  1.00  0.00     0.000 HD 
ENDROOT
BRANCH   4   6
HETATM    6  C   UNL     1     -10.316   4.883  71.346  1.00  0.00    -0.151 A  
HETATM    7  C   UNL     1     -10.212   5.499  70.096  1.00  0.00    -0.333 A  
HETATM    8  C   UNL     1     -10.959   6.644  69.798  1.00  0.00    -0.367 A  
HETATM    9  C   UNL     1     -11.816   7.169  70.757  1.00  0.00    -0.325 A  
HETATM   10  C   UNL     1     -11.968   6.545  71.987  1.00  0.00    -0.372 A  
HETATM   11  O   UNL     1     -12.522   8.311  70.526  1.00  0.00    -0.438 OA 
HETATM   12  H   UNL     1     -13.108   8.670  71.181  1.00  0.00     0.000 HD 
HETATM   13  C   UNL     1     -11.225   5.397  72.279  1.00  0.00    -0.235 A  
ENDBRANCH   4   6
TORSDOF 1
ENDMDL
MODEL      138
REMARK 921   NORMALIZED FREE ENERGY PREDICTED BY IDOCK:   -2.44 KCAL/MOL
REMARK 922        TOTAL FREE ENERGY PREDICTED BY IDOCK:   -2.76 KCAL/MOL
REMARK 923 INTER-LIGAND FREE ENERGY PREDICTED BY IDOCK:   -2.62 KCAL/MOL
REMARK 924 INTRA-LIGAND FREE ENERGY PREDICTED BY IDOCK:   -0.14 KCAL/MOL
REMARK 927      BINDING AFFINITY PREDICTED BY RF-SCORE:    0.00 PKD
ROOT
HETATM    1  C   UNL     1      -7.320   3.212  64.944  1.00  0.00    -0.071 C  
HETATM    2  C   UNL     1      -8.388   3.398  65.990  1.00  0.00    -0.103 C  
HETATM    3  O   UNL     1      -9.171   2.492  66.254  1.00  0.00    -0.122 OA 
HETATM    4  N   UNL     1      -8.360   4.664  66.549  1.00  0.00    -0.107 N  
HETATM    5  H   UNL     1      -7.633   5.298  66.215  1.00  0.00     0.000 HD 
ENDROOT
BRANCH   4   6
HETATM    6  C   UNL     1      -9.238   5.164  67.534  1.00  0.00    -0.117 A  
HETATM    7  C   UNL     1      -9.222   4.743  68.866  1.00  0.00    -0.172 A  
HETATM    8  C   UNL     1     -10.162   5.229  69.781  1.00  0.00    -0.364 A  
HETATM    9  C   UNL     1     -11.119   6.143  69.358  1.00  0.00    -0.409 A  
HETATM   10  C   UNL     1     -11.123   6.608  68.051  1.00  0.00    -0.296 A  
HETATM   11  O   UNL     1     -12.083   6.601  70.204  1.00  0.00    -0.610 OA 
HETATM   12  H   UNL     1     -12.737   7.226  69.915  1.00  0.00     0.000 HD 
HETATM   13  C   UNL     1     -10.177   6.127  67.140  1.00  0.00    -0.246 A  
ENDBRANCH   4   6
TORSDOF 1
ENDMDL
MODEL      139
REMARK 921   NORMALIZED FREE ENERGY PREDICTED BY IDOCK:   -2.42 KCAL/MOL
REMARK 922        TOTAL FREE ENERGY PREDICTED BY IDOCK:   -2.73 KCAL/MOL
REMARK 923 INTER-LIGAND FREE ENERGY PREDICTED BY IDOCK:   -2.56 KCAL/MOL
REMARK 924 INTRA-LIGAND FREE ENERGY PREDICTED BY IDOCK:   -0.17 KCAL/MOL
REMARK 927      BINDING AFFINITY PREDICTED BY RF-SCORE:    0.00 PKD
ROOT
HETATM    1  C   UNL     1      -9.059  15.264  67.269  1.00  0.00    -0.210 C  
HETATM    2  C   UNL     1      -8.849  13.788  67.482  1.00  0.00    -0.197 C  
HETATM    3  O   UNL     1      -8.169  13.380  68.417  1.00  0.00    -0.153 OA 
HETATM    4  N   UNL     1      -9.481  13.023  66.517  1.00  0.00    -0.272 N  
HETATM    5  H   UNL     1     -10.015  13.526  65.807  1.00  0.00     0.000 HD 
ENDROOT
BRANCH   4   6
HETATM    6  C   UNL     1      -9.460  11.615  66.417  1.00  0.00    -0.217 A  
HETATM    7  C   UNL     1      -8.461  10.905  65.746  1.00  0.00    -0.155 A  
HETATM    8  C   UNL     1      -8.531   9.513  65.625  1.00  0.00    -0.143 A  
HETATM    9  C   UNL     1      -9.606   8.832  66.182  1.00  0.00    -0.253 A  
HETATM   10  C   UNL     1     -10.584   9.514  66.892  1.00  0.00    -0.241 A  
HETATM   11  O   UNL     1      -9.738   7.483  66.043  1.00  0.00    -0.427 OA 
HETATM   12  H   UNL     1     -10.473   7.017  66.424  1.00  0.00     0.000 HD 
HETATM   13  C   UNL     1     -10.508  10.905  67.017  1.00  0.00    -0.291 A  
ENDBRANCH   4   6
TORSDOF 1
ENDMDL
MODEL      140
REMARK 921   NORMALIZED FREE ENERGY PREDICTED BY IDOCK:   -2.39 KCAL/MOL
REMARK 922        TOTAL FREE ENERGY PREDICTED BY IDOCK:   -2.70 KCAL/MOL
REMARK 923 INTER-LIGAND FREE ENERGY PREDICTED BY IDOCK:   -2.80 KCAL/MOL
REMARK 924 INTRA-LIGAND FREE ENERGY PREDICTED BY IDOCK:    0.10 KCAL/MOL
REMARK 927      BINDING AFFINITY PREDICTED BY RF-SCORE:    0.00 PKD
ROOT
HETATM    1  C   UNL     1      -9.829   2.507  71.618  1.00  0.00    -0.216 C  
HETATM    2  C   UNL     1      -9.780   3.894  71.034  1.00  0.00    -0.182 C  
HETATM    3  O   UNL     1      -9.122   4.127  70.026  1.00  0.00    -0.093 OA 
HETATM    4  N   UNL     1     -10.526   4.800  71.770  1.00  0.00    -0.157 N  
HETATM    5  H   UNL     1     -11.021   4.434  72.583  1.00  0.00     0.000 HD 
ENDROOT
BRANCH   4   6
HETATM    6  C   UNL     1     -10.667   6.179  71.505  1.00  0.00    -0.252 A  
HETATM    7  C   UNL     1     -10.790   6.708  70.217  1.00  0.00    -0.321 A  
HETATM    8  C   UNL     1     -10.861   8.091  70.016  1.00  0.00    -0.235 A  
HETATM    9  C   UNL     1     -10.811   8.944  71.110  1.00  0.00    -0.281 A  
HETATM   10  C   UNL     1     -10.735   8.437  72.400  1.00  0.00    -0.405 A  
HETATM   11  O   UNL     1     -10.826  10.297  70.954  1.00  0.00    -0.364 OA 
HETATM   12  H   UNL     1     -10.792  10.881  71.703  1.00  0.00     0.000 HD 
HETATM   13  C   UNL     1     -10.672   7.054  72.599  1.00  0.00    -0.291 A  
ENDBRANCH   4   6
TORSDOF 1
ENDMDL
MODEL      141
REMARK 921   NORMALIZED FREE ENERGY PREDICTED BY IDOCK:   -2.37 KCAL/MOL
REMARK 922        TOTAL FREE ENERGY PREDICTED BY IDOCK:   -2.68 KCAL/MOL
REMARK 923 INTER-LIGAND FREE ENERGY PREDICTED BY IDOCK:   -2.51 KCAL/MOL
REMARK 924 INTRA-LIGAND FREE ENERGY PREDICTED BY IDOCK:   -0.17 KCAL/MOL
REMARK 927      BINDING AFFINITY PREDICTED BY RF-SCORE:    0.00 PKD
ROOT
HETATM    1  C   UNL     1      -7.647  10.543  68.830  1.00  0.00    -0.108 C  
HETATM    2  C   UNL     1      -8.422   9.382  69.396  1.00  0.00    -0.142 C  
HETATM    3  O   UNL     1      -8.948   8.559  68.655  1.00  0.00    -0.139 OA 
HETATM    4  N   UNL     1      -8.460   9.401  70.780  1.00  0.00    -0.188 N  
HETATM    5  H   UNL     1      -7.960  10.161  71.243  1.00  0.00     0.000 HD 
ENDROOT
BRANCH   4   6
HETATM    6  C   UNL     1      -9.121   8.473  71.613  1.00  0.00    -0.229 A  
HETATM    7  C   UNL     1      -8.489   7.369  72.191  1.00  0.00    -0.124 A  
HETATM    8  C   UNL     1      -9.215   6.448  72.954  1.00  0.00    -0.140 A  
HETATM    9  C   UNL     1     -10.578   6.638  73.140  1.00  0.00    -0.273 A  
HETATM   10  C   UNL     1     -11.215   7.753  72.613  1.00  0.00    -0.438 A  
HETATM   11  O   UNL     1     -11.331   5.739  73.833  1.00  0.00    -0.321 OA 
HETATM   12  H   UNL     1     -12.263   5.869  73.961  1.00  0.00     0.000 HD 
HETATM   13  C   UNL     1     -10.486   8.676  71.857  1.00  0.00    -0.410 A  
ENDBRANCH   4   6
TORSDOF 1
ENDMDL
MODEL      142
REMARK 921   NORMALIZED FREE ENERGY PREDICTED BY IDOCK:   -2.35 KCAL/MOL
REMARK 922        TOTAL FREE ENERGY PREDICTED BY IDOCK:   -2.66 KCAL/MOL
REMARK 923 INTER-LIGAND FREE ENERGY PREDICTED BY IDOCK:   -2.50 KCAL/MOL
REMARK 924 INTRA-LIGAND FREE ENERGY PREDICTED BY IDOCK:   -0.16 KCAL/MOL
REMARK 927      BINDING AFFINITY PREDICTED BY RF-SCORE:    0.00 PKD
ROOT
HETATM    1  C   UNL     1      -9.141   9.988  62.592  1.00  0.00    -0.304 C  
HETATM    2  C   UNL     1      -8.723  10.045  64.038  1.00  0.00    -0.208 C  
HETATM    3  O   UNL     1      -7.588  10.389  64.349  1.00  0.00    -0.121 OA 
HETATM    4  N   UNL     1      -9.740   9.660  64.894  1.00  0.00    -0.438 N  
HETATM    5  H   UNL     1     -10.631   9.408  64.466  1.00  0.00     0.000 HD 
ENDROOT
BRANCH   4   6
HETATM    6  C   UNL     1      -9.666   9.580  66.301  1.00  0.00    -0.245 A  
HETATM    7  C   UNL     1      -9.015   8.547  66.982  1.00  0.00    -0.157 A  
HETATM    8  C   UNL     1      -9.032   8.488  68.379  1.00  0.00    -0.139 A  
HETATM    9  C   UNL     1      -9.702   9.471  69.096  1.00  0.00    -0.178 A  
HETATM   10  C   UNL     1     -10.316  10.530  68.441  1.00  0.00    -0.199 A  
HETATM   11  O   UNL     1      -9.786   9.423  70.455  1.00  0.00    -0.222 OA 
HETATM   12  H   UNL     1     -10.244  10.095  70.945  1.00  0.00     0.000 HD 
HETATM   13  C   UNL     1     -10.291  10.590  67.044  1.00  0.00    -0.289 A  
ENDBRANCH   4   6
TORSDOF 1
ENDMDL
MODEL      143
REMARK 921   NORMALIZED FREE ENERGY PREDICTED BY IDOCK:   -2.34 KCAL/MOL
REMARK 922        TOTAL FREE ENERGY PREDICTED BY IDOCK:   -2.65 KCAL/MOL
REMARK 923 INTER-LIGAND FREE ENERGY PREDICTED BY IDOCK:   -2.48 KCAL/MOL
REMARK 924 INTRA-LIGAND FREE ENERGY PREDICTED BY IDOCK:   -0.17 KCAL/MOL
REMARK 927      BINDING AFFINITY PREDICTED BY RF-SCORE:    0.00 PKD
ROOT
HETATM    1  C   UNL     1      -9.595   5.052  69.329  1.00  0.00    -0.230 C  
HETATM    2  C   UNL     1      -9.176   6.404  68.815  1.00  0.00    -0.127 C  
HETATM    3  O   UNL     1      -8.311   7.054  69.393  1.00  0.00    -0.130 OA 
HETATM    4  N   UNL     1      -9.881   6.777  67.684  1.00  0.00    -0.124 N  
HETATM    5  H   UNL     1     -10.566   6.110  67.328  1.00  0.00     0.000 HD 
ENDROOT
BRANCH   4   6
HETATM    6  C   UNL     1      -9.746   7.990  66.975  1.00  0.00    -0.211 A  
HETATM    7  C   UNL     1      -8.941   8.135  65.842  1.00  0.00    -0.195 A  
HETATM    8  C   UNL     1      -8.797   9.381  65.221  1.00  0.00    -0.227 A  
HETATM    9  C   UNL     1      -9.467  10.482  65.737  1.00  0.00    -0.201 A  
HETATM   10  C   UNL     1     -10.308  10.350  66.833  1.00  0.00    -0.297 A  
HETATM   11  O   UNL     1      -9.314  11.722  65.194  1.00  0.00    -0.400 OA 
HETATM   12  H   UNL     1      -9.772  12.476  65.546  1.00  0.00     0.000 HD 
HETATM   13  C   UNL     1     -10.455   9.102  67.447  1.00  0.00    -0.339 A  
ENDBRANCH   4   6
TORSDOF 1
ENDMDL
MODEL      144
REMARK 921   NORMALIZED FREE ENERGY PREDICTED BY IDOCK:   -2.30 KCAL/MOL
REMARK 922        TOTAL FREE ENERGY PREDICTED BY IDOCK:   -2.61 KCAL/MOL
REMARK 923 INTER-LIGAND FREE ENERGY PREDICTED BY IDOCK:   -2.47 KCAL/MOL
REMARK 924 INTRA-LIGAND FREE ENERGY PREDICTED BY IDOCK:   -0.13 KCAL/MOL
REMARK 927      BINDING AFFINITY PREDICTED BY RF-SCORE:    0.00 PKD
ROOT
HETATM    1  C   UNL     1      -9.644   2.782  71.650  1.00  0.00    -0.222 C  
HETATM    2  C   UNL     1      -9.351   3.583  70.409  1.00  0.00    -0.169 C  
HETATM    3  O   UNL     1      -8.490   3.217  69.615  1.00  0.00    -0.057 OA 
HETATM    4  N   UNL     1     -10.134   4.722  70.322  1.00  0.00    -0.247 N  
HETATM    5  H   UNL     1     -10.810   4.873  71.071  1.00  0.00     0.000 HD 
ENDROOT
BRANCH   4   6
HETATM    6  C   UNL     1     -10.089   5.693  69.299  1.00  0.00    -0.214 A  
HETATM    7  C   UNL     1      -9.521   6.959  69.463  1.00  0.00    -0.146 A  
HETATM    8  C   UNL     1      -9.566   7.903  68.431  1.00  0.00    -0.155 A  
HETATM    9  C   UNL     1     -10.181   7.573  67.230  1.00  0.00    -0.267 A  
HETATM   10  C   UNL     1     -10.710   6.305  67.031  1.00  0.00    -0.435 A  
HETATM   11  O   UNL     1     -10.291   8.479  66.219  1.00  0.00    -0.405 OA 
HETATM   12  H   UNL     1     -10.711   8.253  65.397  1.00  0.00     0.000 HD 
HETATM   13  C   UNL     1     -10.657   5.362  68.061  1.00  0.00    -0.157 A  
ENDBRANCH   4   6
TORSDOF 1
ENDMDL
MODEL      145
REMARK 921   NORMALIZED FREE ENERGY PREDICTED BY IDOCK:   -2.27 KCAL/MOL
REMARK 922        TOTAL FREE ENERGY PREDICTED BY IDOCK:   -2.57 KCAL/MOL
REMARK 923 INTER-LIGAND FREE ENERGY PREDICTED BY IDOCK:   -2.77 KCAL/MOL
REMARK 924 INTRA-LIGAND FREE ENERGY PREDICTED BY IDOCK:    0.20 KCAL/MOL
REMARK 927      BINDING AFFINITY PREDICTED BY RF-SCORE:    0.00 PKD
ROOT
HETATM    1  C   UNL     1     -11.519  12.159  67.594  1.00  0.00    -0.399 C  
HETATM    2  C   UNL     1     -10.905  11.073  66.749  1.00  0.00    -0.251 C  
HETATM    3  O   UNL     1     -10.650  11.269  65.566  1.00  0.00    -0.262 OA 
HETATM    4  N   UNL     1     -10.707   9.903  67.462  1.00  0.00    -0.274 N  
HETATM    5  H   UNL     1     -10.971   9.914  68.447  1.00  0.00     0.000 HD 
ENDROOT
BRANCH   4   6
HETATM    6  C   UNL     1     -10.175   8.696  66.959  1.00  0.00    -0.290 A  
HETATM    7  C   UNL     1     -10.658   7.434  67.315  1.00  0.00    -0.393 A  
HETATM    8  C   UNL     1     -10.046   6.272  66.833  1.00  0.00    -0.236 A  
HETATM    9  C   UNL     1      -8.948   6.377  65.989  1.00  0.00    -0.130 A  
HETATM   10  C   UNL     1      -8.482   7.621  65.588  1.00  0.00    -0.152 A  
HETATM   11  O   UNL     1      -8.292   5.272  65.539  1.00  0.00    -0.119 OA 
HETATM   12  H   UNL     1      -7.541   5.344  64.962  1.00  0.00     0.000 HD 
HETATM   13  C   UNL     1      -9.100   8.781  66.065  1.00  0.00    -0.265 A  
ENDBRANCH   4   6
TORSDOF 1
ENDMDL
MODEL      146
REMARK 921   NORMALIZED FREE ENERGY PREDICTED BY IDOCK:   -2.26 KCAL/MOL
REMARK 922        TOTAL FREE ENERGY PREDICTED BY IDOCK:   -2.56 KCAL/MOL
REMARK 923 INTER-LIGAND FREE ENERGY PREDICTED BY IDOCK:   -2.39 KCAL/MOL
REMARK 924 INTRA-LIGAND FREE ENERGY PREDICTED BY IDOCK:   -0.17 KCAL/MOL
REMARK 927      BINDING AFFINITY PREDICTED BY RF-SCORE:    0.00 PKD
ROOT
HETATM    1  C   UNL     1     -12.272  10.954  68.927  1.00  0.00    -0.040 C  
HETATM    2  C   UNL     1     -11.390   9.773  69.236  1.00  0.00    -0.014 C  
HETATM    3  O   UNL     1     -10.452   9.482  68.501  1.00  0.00    -0.204 OA 
HETATM    4  N   UNL     1     -11.787   9.107  70.383  1.00  0.00    -0.466 N  
HETATM    5  H   UNL     1     -12.591   9.489  70.881  1.00  0.00     0.000 HD 
ENDROOT
BRANCH   4   6
HETATM    6  C   UNL     1     -11.190   7.951  70.930  1.00  0.00    -0.270 A  
HETATM    7  C   UNL     1     -11.576   6.651  70.593  1.00  0.00    -0.439 A  
HETATM    8  C   UNL     1     -10.990   5.546  71.220  1.00  0.00    -0.198 A  
HETATM    9  C   UNL     1     -10.011   5.747  72.184  1.00  0.00    -0.176 A  
HETATM   10  C   UNL     1      -9.581   7.028  72.499  1.00  0.00    -0.166 A  
HETATM   11  O   UNL     1      -9.452   4.700  72.854  1.00  0.00    -0.129 OA 
HETATM   12  H   UNL     1      -8.782   4.837  73.513  1.00  0.00     0.000 HD 
HETATM   13  C   UNL     1     -10.163   8.130  71.866  1.00  0.00    -0.289 A  
ENDBRANCH   4   6
TORSDOF 1
ENDMDL
MODEL      147
REMARK 921   NORMALIZED FREE ENERGY PREDICTED BY IDOCK:   -2.23 KCAL/MOL
REMARK 922        TOTAL FREE ENERGY PREDICTED BY IDOCK:   -2.53 KCAL/MOL
REMARK 923 INTER-LIGAND FREE ENERGY PREDICTED BY IDOCK:   -2.37 KCAL/MOL
REMARK 924 INTRA-LIGAND FREE ENERGY PREDICTED BY IDOCK:   -0.16 KCAL/MOL
REMARK 927      BINDING AFFINITY PREDICTED BY RF-SCORE:    0.00 PKD
ROOT
HETATM    1  C   UNL     1     -10.459  10.515  66.694  1.00  0.00    -0.290 C  
HETATM    2  C   UNL     1     -10.249   9.135  67.261  1.00  0.00    -0.254 C  
HETATM    3  O   UNL     1     -10.174   8.159  66.522  1.00  0.00    -0.279 OA 
HETATM    4  N   UNL     1     -10.179   9.140  68.643  1.00  0.00    -0.199 N  
HETATM    5  H   UNL     1     -10.255  10.048  69.104  1.00  0.00     0.000 HD 
ENDROOT
BRANCH   4   6
HETATM    6  C   UNL     1     -10.013   8.015  69.478  1.00  0.00    -0.186 A  
HETATM    7  C   UNL     1     -11.068   7.389  70.147  1.00  0.00    -0.265 A  
HETATM    8  C   UNL     1     -10.830   6.316  71.013  1.00  0.00    -0.326 A  
HETATM    9  C   UNL     1      -9.530   5.869  71.206  1.00  0.00    -0.160 A  
HETATM   10  C   UNL     1      -8.474   6.447  70.515  1.00  0.00    -0.138 A  
HETATM   11  O   UNL     1      -9.250   4.861  72.079  1.00  0.00    -0.133 OA 
HETATM   12  H   UNL     1      -8.360   4.555  72.210  1.00  0.00     0.000 HD 
HETATM   13  C   UNL     1      -8.715   7.514  69.645  1.00  0.00    -0.137 A  
ENDBRANCH   4   6
TORSDOF 1
ENDMDL
MODEL      148
REMARK 921   NORMALIZED FREE ENERGY PREDICTED BY IDOCK:   -2.22 KCAL/MOL
REMARK 922        TOTAL FREE ENERGY PREDICTED BY IDOCK:   -2.52 KCAL/MOL
REMARK 923 INTER-LIGAND FREE ENERGY PREDICTED BY IDOCK:   -2.35 KCAL/MOL
REMARK 924 INTRA-LIGAND FREE ENERGY PREDICTED BY IDOCK:   -0.17 KCAL/MOL
REMARK 927      BINDING AFFINITY PREDICTED BY RF-SCORE:    0.00 PKD
ROOT
HETATM    1  C   UNL     1      -5.858   3.735  70.555  1.00  0.00    -0.017 C  
HETATM    2  C   UNL     1      -7.294   4.049  70.887  1.00  0.00    -0.037 C  
HETATM    3  O   UNL     1      -7.964   3.277  71.564  1.00  0.00    -0.055 OA 
HETATM    4  N   UNL     1      -7.710   5.248  70.334  1.00  0.00    -0.074 N  
HETATM    5  H   UNL     1      -7.017   5.773  69.800  1.00  0.00     0.000 HD 
ENDROOT
BRANCH   4   6
HETATM    6  C   UNL     1      -8.998   5.815  70.435  1.00  0.00    -0.146 A  
HETATM    7  C   UNL     1      -9.409   6.607  71.512  1.00  0.00    -0.153 A  
HETATM    8  C   UNL     1     -10.722   7.086  71.587  1.00  0.00    -0.244 A  
HETATM    9  C   UNL     1     -11.622   6.773  70.577  1.00  0.00    -0.372 A  
HETATM   10  C   UNL     1     -11.221   6.027  69.477  1.00  0.00    -0.416 A  
HETATM   11  O   UNL     1     -12.922   7.176  70.637  1.00  0.00    -0.597 OA 
HETATM   12  H   UNL     1     -13.538   6.962  69.947  1.00  0.00     0.000 HD 
HETATM   13  C   UNL     1      -9.907   5.555  69.401  1.00  0.00    -0.240 A  
ENDBRANCH   4   6
TORSDOF 1
ENDMDL
MODEL      149
REMARK 921   NORMALIZED FREE ENERGY PREDICTED BY IDOCK:   -2.20 KCAL/MOL
REMARK 922        TOTAL FREE ENERGY PREDICTED BY IDOCK:   -2.49 KCAL/MOL
REMARK 923 INTER-LIGAND FREE ENERGY PREDICTED BY IDOCK:   -2.35 KCAL/MOL
REMARK 924 INTRA-LIGAND FREE ENERGY PREDICTED BY IDOCK:   -0.15 KCAL/MOL
REMARK 927      BINDING AFFINITY PREDICTED BY RF-SCORE:    0.00 PKD
ROOT
HETATM    1  C   UNL     1     -10.948   9.723  69.021  1.00  0.00    -0.193 C  
HETATM    2  C   UNL     1     -10.217   8.503  69.518  1.00  0.00    -0.206 C  
HETATM    3  O   UNL     1      -9.087   8.597  69.985  1.00  0.00    -0.148 OA 
HETATM    4  N   UNL     1     -10.959   7.346  69.358  1.00  0.00    -0.412 N  
HETATM    5  H   UNL     1     -11.891   7.448  68.955  1.00  0.00     0.000 HD 
ENDROOT
BRANCH   4   6
HETATM    6  C   UNL     1     -10.554   6.037  69.698  1.00  0.00    -0.300 A  
HETATM    7  C   UNL     1     -10.455   5.578  71.015  1.00  0.00    -0.314 A  
HETATM    8  C   UNL     1      -9.984   4.290  71.290  1.00  0.00    -0.230 A  
HETATM    9  C   UNL     1      -9.614   3.459  70.240  1.00  0.00    -0.145 A  
HETATM   10  C   UNL     1      -9.749   3.879  68.925  1.00  0.00    -0.121 A  
HETATM   11  O   UNL     1      -9.103   2.217  70.467  1.00  0.00    -0.083 OA 
HETATM   12  H   UNL     1      -8.850   1.649  69.749  1.00  0.00     0.000 HD 
HETATM   13  C   UNL     1     -10.227   5.165  68.652  1.00  0.00    -0.192 A  
ENDBRANCH   4   6
TORSDOF 1
ENDMDL
MODEL      150
REMARK 921   NORMALIZED FREE ENERGY PREDICTED BY IDOCK:   -2.16 KCAL/MOL
REMARK 922        TOTAL FREE ENERGY PREDICTED BY IDOCK:   -2.46 KCAL/MOL
REMARK 923 INTER-LIGAND FREE ENERGY PREDICTED BY IDOCK:   -2.30 KCAL/MOL
REMARK 924 INTRA-LIGAND FREE ENERGY PREDICTED BY IDOCK:   -0.17 KCAL/MOL
REMARK 927      BINDING AFFINITY PREDICTED BY RF-SCORE:    0.00 PKD
ROOT
HETATM    1  C   UNL     1     -10.936   6.427  67.221  1.00  0.00    -0.474 C  
HETATM    2  C   UNL     1     -10.859   6.093  68.687  1.00  0.00    -0.332 C  
HETATM    3  O   UNL     1     -11.740   6.455  69.459  1.00  0.00    -0.366 OA 
HETATM    4  N   UNL     1      -9.714   5.383  69.005  1.00  0.00    -0.140 N  
HETATM    5  H   UNL     1      -9.084   5.158  68.234  1.00  0.00     0.000 HD 
ENDROOT
BRANCH   4   6
HETATM    6  C   UNL     1      -9.331   4.941  70.289  1.00  0.00    -0.154 A  
HETATM    7  C   UNL     1      -8.745   5.772  71.248  1.00  0.00    -0.132 A  
HETATM    8  C   UNL     1      -8.328   5.258  72.481  1.00  0.00    -0.118 A  
HETATM    9  C   UNL     1      -8.502   3.908  72.753  1.00  0.00    -0.099 A  
HETATM   10  C   UNL     1      -9.124   3.075  71.832  1.00  0.00    -0.154 A  
HETATM   11  O   UNL     1      -8.064   3.358  73.919  1.00  0.00    -0.072 OA 
HETATM   12  H   UNL     1      -8.184   2.434  74.106  1.00  0.00     0.000 HD 
HETATM   13  C   UNL     1      -9.547   3.593  70.604  1.00  0.00    -0.254 A  
ENDBRANCH   4   6
TORSDOF 1
ENDMDL
MODEL      151
REMARK 921   NORMALIZED FREE ENERGY PREDICTED BY IDOCK:   -2.16 KCAL/MOL
REMARK 922        TOTAL FREE ENERGY PREDICTED BY IDOCK:   -2.46 KCAL/MOL
REMARK 923 INTER-LIGAND FREE ENERGY PREDICTED BY IDOCK:   -2.29 KCAL/MOL
REMARK 924 INTRA-LIGAND FREE ENERGY PREDICTED BY IDOCK:   -0.17 KCAL/MOL
REMARK 927      BINDING AFFINITY PREDICTED BY RF-SCORE:    0.00 PKD
ROOT
HETATM    1  C   UNL     1      -6.390   5.482  64.513  1.00  0.00    -0.029 C  
HETATM    2  C   UNL     1      -7.643   6.318  64.490  1.00  0.00    -0.099 C  
HETATM    3  O   UNL     1      -8.748   5.791  64.425  1.00  0.00    -0.017 OA 
HETATM    4  N   UNL     1      -7.368   7.675  64.533  1.00  0.00    -0.080 N  
HETATM    5  H   UNL     1      -6.386   7.944  64.592  1.00  0.00     0.000 HD 
ENDROOT
BRANCH   4   6
HETATM    6  C   UNL     1      -8.314   8.722  64.502  1.00  0.00    -0.162 A  
HETATM    7  C   UNL     1      -9.025   9.153  65.625  1.00  0.00    -0.249 A  
HETATM    8  C   UNL     1      -9.998  10.152  65.517  1.00  0.00    -0.363 A  
HETATM    9  C   UNL     1     -10.255  10.723  64.277  1.00  0.00    -0.354 A  
HETATM   10  C   UNL     1      -9.528  10.342  63.158  1.00  0.00    -0.362 A  
HETATM   11  O   UNL     1     -11.229  11.663  64.119  1.00  0.00    -0.352 OA 
HETATM   12  H   UNL     1     -11.404  12.054  63.272  1.00  0.00     0.000 HD 
HETATM   13  C   UNL     1      -8.551   9.348  63.271  1.00  0.00    -0.218 A  
ENDBRANCH   4   6
TORSDOF 1
ENDMDL
MODEL      152
REMARK 921   NORMALIZED FREE ENERGY PREDICTED BY IDOCK:   -2.13 KCAL/MOL
REMARK 922        TOTAL FREE ENERGY PREDICTED BY IDOCK:   -2.42 KCAL/MOL
REMARK 923 INTER-LIGAND FREE ENERGY PREDICTED BY IDOCK:   -2.26 KCAL/MOL
REMARK 924 INTRA-LIGAND FREE ENERGY PREDICTED BY IDOCK:   -0.16 KCAL/MOL
REMARK 927      BINDING AFFINITY PREDICTED BY RF-SCORE:    0.00 PKD
ROOT
HETATM    1  C   UNL     1     -11.971  11.979  70.072  1.00  0.00    -0.400 C  
HETATM    2  C   UNL     1     -11.203  11.945  68.777  1.00  0.00    -0.259 C  
HETATM    3  O   UNL     1     -11.381  12.803  67.919  1.00  0.00    -0.256 OA 
HETATM    4  N   UNL     1     -10.342  10.864  68.706  1.00  0.00    -0.189 N  
HETATM    5  H   UNL     1     -10.312  10.245  69.517  1.00  0.00     0.000 HD 
ENDROOT
BRANCH   4   6
HETATM    6  C   UNL     1      -9.502  10.532  67.621  1.00  0.00    -0.149 A  
HETATM    7  C   UNL     1      -9.959   9.918  66.451  1.00  0.00    -0.309 A  
HETATM    8  C   UNL     1      -9.065   9.554  65.439  1.00  0.00    -0.273 A  
HETATM    9  C   UNL     1      -7.710   9.810  65.599  1.00  0.00    -0.115 A  
HETATM   10  C   UNL     1      -7.241  10.459  66.732  1.00  0.00    -0.109 A  
HETATM   11  O   UNL     1      -6.801   9.425  64.660  1.00  0.00    -0.089 OA 
HETATM   12  H   UNL     1      -5.874   9.600  64.769  1.00  0.00     0.000 HD 
HETATM   13  C   UNL     1      -8.138  10.829  67.740  1.00  0.00    -0.111 A  
ENDBRANCH   4   6
TORSDOF 1
ENDMDL
MODEL      153
REMARK 921   NORMALIZED FREE ENERGY PREDICTED BY IDOCK:   -2.08 KCAL/MOL
REMARK 922        TOTAL FREE ENERGY PREDICTED BY IDOCK:   -2.38 KCAL/MOL
REMARK 923 INTER-LIGAND FREE ENERGY PREDICTED BY IDOCK:   -2.21 KCAL/MOL
REMARK 924 INTRA-LIGAND FREE ENERGY PREDICTED BY IDOCK:   -0.17 KCAL/MOL
REMARK 927      BINDING AFFINITY PREDICTED BY RF-SCORE:    0.00 PKD
ROOT
HETATM    1  C   UNL     1     -10.801   6.122  67.093  1.00  0.00    -0.442 C  
HETATM    2  C   UNL     1      -9.819   7.228  67.379  1.00  0.00    -0.159 C  
HETATM    3  O   UNL     1      -8.798   7.010  68.021  1.00  0.00    -0.125 OA 
HETATM    4  N   UNL     1     -10.231   8.443  66.856  1.00  0.00    -0.294 N  
HETATM    5  H   UNL     1     -11.110   8.447  66.339  1.00  0.00     0.000 HD 
ENDROOT
BRANCH   4   6
HETATM    6  C   UNL     1      -9.553   9.676  66.969  1.00  0.00    -0.173 A  
HETATM    7  C   UNL     1      -9.729  10.557  68.040  1.00  0.00    -0.162 A  
HETATM    8  C   UNL     1      -9.078  11.795  68.061  1.00  0.00    -0.180 A  
HETATM    9  C   UNL     1      -8.246  12.148  67.007  1.00  0.00    -0.164 A  
HETATM   10  C   UNL     1      -8.023  11.268  65.957  1.00  0.00     0.020 A  
HETATM   11  O   UNL     1      -7.634  13.364  66.965  1.00  0.00    -0.371 OA 
HETATM   12  H   UNL     1      -7.065  13.606  66.244  1.00  0.00     0.000 HD 
HETATM   13  C   UNL     1      -8.669  10.028  65.941  1.00  0.00    -0.154 A  
ENDBRANCH   4   6
TORSDOF 1
ENDMDL
MODEL      154
REMARK 921   NORMALIZED FREE ENERGY PREDICTED BY IDOCK:   -2.08 KCAL/MOL
REMARK 922        TOTAL FREE ENERGY PREDICTED BY IDOCK:   -2.38 KCAL/MOL
REMARK 923 INTER-LIGAND FREE ENERGY PREDICTED BY IDOCK:   -2.22 KCAL/MOL
REMARK 924 INTRA-LIGAND FREE ENERGY PREDICTED BY IDOCK:   -0.16 KCAL/MOL
REMARK 927      BINDING AFFINITY PREDICTED BY RF-SCORE:    0.00 PKD
ROOT
HETATM    1  C   UNL     1      -9.930   5.723  67.727  1.00  0.00    -0.166 C  
HETATM    2  C   UNL     1      -9.383   7.126  67.700  1.00  0.00    -0.127 C  
HETATM    3  O   UNL     1      -8.188   7.336  67.872  1.00  0.00    -0.118 OA 
HETATM    4  N   UNL     1     -10.373   8.070  67.484  1.00  0.00    -0.241 N  
HETATM    5  H   UNL     1     -11.322   7.720  67.354  1.00  0.00     0.000 HD 
ENDROOT
BRANCH   4   6
HETATM    6  C   UNL     1     -10.197   9.469  67.428  1.00  0.00    -0.227 A  
HETATM    7  C   UNL     1      -9.636  10.133  66.333  1.00  0.00    -0.242 A  
HETATM    8  C   UNL     1      -9.428  11.516  66.365  1.00  0.00    -0.230 A  
HETATM    9  C   UNL     1      -9.787  12.235  67.497  1.00  0.00    -0.193 A  
HETATM   10  C   UNL     1     -10.388  11.602  68.576  1.00  0.00    -0.224 A  
HETATM   11  O   UNL     1      -9.555  13.574  67.588  1.00  0.00    -0.210 OA 
HETATM   12  H   UNL     1      -9.801  14.067  68.362  1.00  0.00     0.000 HD 
HETATM   13  C   UNL     1     -10.602  10.221  68.539  1.00  0.00    -0.240 A  
ENDBRANCH   4   6
TORSDOF 1
ENDMDL
MODEL      155
REMARK 921   NORMALIZED FREE ENERGY PREDICTED BY IDOCK:   -2.08 KCAL/MOL
REMARK 922        TOTAL FREE ENERGY PREDICTED BY IDOCK:   -2.37 KCAL/MOL
REMARK 923 INTER-LIGAND FREE ENERGY PREDICTED BY IDOCK:   -2.23 KCAL/MOL
REMARK 924 INTRA-LIGAND FREE ENERGY PREDICTED BY IDOCK:   -0.14 KCAL/MOL
REMARK 927      BINDING AFFINITY PREDICTED BY RF-SCORE:    0.00 PKD
ROOT
HETATM    1  C   UNL     1      -6.671  12.040  69.119  1.00  0.00    -0.101 C  
HETATM    2  C   UNL     1      -7.429  10.739  69.140  1.00  0.00    -0.123 C  
HETATM    3  O   UNL     1      -7.500  10.072  70.166  1.00  0.00    -0.157 OA 
HETATM    4  N   UNL     1      -7.974  10.429  67.905  1.00  0.00    -0.101 N  
HETATM    5  H   UNL     1      -7.823  11.102  67.154  1.00  0.00     0.000 HD 
ENDROOT
BRANCH   4   6
HETATM    6  C   UNL     1      -8.717   9.273  67.585  1.00  0.00    -0.116 A  
HETATM    7  C   UNL     1      -8.195   8.196  66.863  1.00  0.00    -0.111 A  
HETATM    8  C   UNL     1      -9.002   7.106  66.519  1.00  0.00    -0.172 A  
HETATM    9  C   UNL     1     -10.336   7.096  66.904  1.00  0.00    -0.279 A  
HETATM   10  C   UNL     1     -10.862   8.134  67.661  1.00  0.00    -0.093 A  
HETATM   11  O   UNL     1     -11.168   6.079  66.546  1.00  0.00    -0.741 OA 
HETATM   12  H   UNL     1     -12.081   6.071  66.810  1.00  0.00     0.000 HD 
HETATM   13  C   UNL     1     -10.051   9.218  68.009  1.00  0.00    -0.234 A  
ENDBRANCH   4   6
TORSDOF 1
ENDMDL
MODEL      156
REMARK 921   NORMALIZED FREE ENERGY PREDICTED BY IDOCK:   -2.08 KCAL/MOL
REMARK 922        TOTAL FREE ENERGY PREDICTED BY IDOCK:   -2.37 KCAL/MOL
REMARK 923 INTER-LIGAND FREE ENERGY PREDICTED BY IDOCK:   -2.42 KCAL/MOL
REMARK 924 INTRA-LIGAND FREE ENERGY PREDICTED BY IDOCK:    0.05 KCAL/MOL
REMARK 927      BINDING AFFINITY PREDICTED BY RF-SCORE:    0.00 PKD
ROOT
HETATM    1  C   UNL     1      -8.163   1.613  69.649  1.00  0.00    -0.064 C  
HETATM    2  C   UNL     1      -9.022   2.833  69.858  1.00  0.00    -0.102 C  
HETATM    3  O   UNL     1      -9.607   3.356  68.917  1.00  0.00    -0.163 OA 
HETATM    4  N   UNL     1      -9.029   3.249  71.179  1.00  0.00    -0.090 N  
HETATM    5  H   UNL     1      -8.488   2.691  71.840  1.00  0.00     0.000 HD 
ENDROOT
BRANCH   4   6
HETATM    6  C   UNL     1      -9.711   4.368  71.701  1.00  0.00    -0.171 A  
HETATM    7  C   UNL     1     -10.584   4.301  72.791  1.00  0.00    -0.240 A  
HETATM    8  C   UNL     1     -11.281   5.435  73.220  1.00  0.00    -0.322 A  
HETATM    9  C   UNL     1     -11.100   6.641  72.555  1.00  0.00    -0.261 A  
HETATM   10  C   UNL     1     -10.204   6.739  71.500  1.00  0.00    -0.210 A  
HETATM   11  O   UNL     1     -11.798   7.756  72.909  1.00  0.00    -0.597 OA 
HETATM   12  H   UNL     1     -11.674   8.581  72.455  1.00  0.00     0.000 HD 
HETATM   13  C   UNL     1      -9.502   5.606  71.078  1.00  0.00    -0.200 A  
ENDBRANCH   4   6
TORSDOF 1
ENDMDL
MODEL      157
REMARK 921   NORMALIZED FREE ENERGY PREDICTED BY IDOCK:   -2.07 KCAL/MOL
REMARK 922        TOTAL FREE ENERGY PREDICTED BY IDOCK:   -2.36 KCAL/MOL
REMARK 923 INTER-LIGAND FREE ENERGY PREDICTED BY IDOCK:   -2.23 KCAL/MOL
REMARK 924 INTRA-LIGAND FREE ENERGY PREDICTED BY IDOCK:   -0.13 KCAL/MOL
REMARK 927      BINDING AFFINITY PREDICTED BY RF-SCORE:    0.00 PKD
ROOT
HETATM    1  C   UNL     1      -8.531  10.308  63.431  1.00  0.00    -0.185 C  
HETATM    2  C   UNL     1      -8.383   9.765  64.828  1.00  0.00    -0.155 C  
HETATM    3  O   UNL     1      -7.446  10.111  65.539  1.00  0.00    -0.133 OA 
HETATM    4  N   UNL     1      -9.387   8.868  65.151  1.00  0.00    -0.442 N  
HETATM    5  H   UNL     1     -10.098   8.697  64.439  1.00  0.00     0.000 HD 
ENDROOT
BRANCH   4   6
HETATM    6  C   UNL     1      -9.524   8.166  66.368  1.00  0.00    -0.218 A  
HETATM    7  C   UNL     1     -10.491   8.471  67.330  1.00  0.00    -0.366 A  
HETATM    8  C   UNL     1     -10.533   7.781  68.546  1.00  0.00    -0.202 A  
HETATM    9  C   UNL     1      -9.604   6.779  68.795  1.00  0.00    -0.132 A  
HETATM   10  C   UNL     1      -8.665   6.429  67.835  1.00  0.00    -0.115 A  
HETATM   11  O   UNL     1      -9.579   6.118  69.986  1.00  0.00    -0.158 OA 
HETATM   12  H   UNL     1      -8.944   5.432  70.157  1.00  0.00     0.000 HD 
HETATM   13  C   UNL     1      -8.630   7.116  66.617  1.00  0.00    -0.124 A  
ENDBRANCH   4   6
TORSDOF 1
ENDMDL
MODEL      158
REMARK 921   NORMALIZED FREE ENERGY PREDICTED BY IDOCK:   -2.07 KCAL/MOL
REMARK 922        TOTAL FREE ENERGY PREDICTED BY IDOCK:   -2.36 KCAL/MOL
REMARK 923 INTER-LIGAND FREE ENERGY PREDICTED BY IDOCK:   -2.19 KCAL/MOL
REMARK 924 INTRA-LIGAND FREE ENERGY PREDICTED BY IDOCK:   -0.16 KCAL/MOL
REMARK 927      BINDING AFFINITY PREDICTED BY RF-SCORE:    0.00 PKD
ROOT
HETATM    1  C   UNL     1      -7.736   5.321  64.937  1.00  0.00    -0.087 C  
HETATM    2  C   UNL     1      -8.704   5.919  65.923  1.00  0.00    -0.150 C  
HETATM    3  O   UNL     1      -9.706   5.303  66.271  1.00  0.00    -0.153 OA 
HETATM    4  N   UNL     1      -8.323   7.186  66.331  1.00  0.00    -0.119 N  
HETATM    5  H   UNL     1      -7.451   7.550  65.946  1.00  0.00     0.000 HD 
ENDROOT
BRANCH   4   6
HETATM    6  C   UNL     1      -9.021   8.023  67.226  1.00  0.00    -0.138 A  
HETATM    7  C   UNL     1     -10.145   8.772  66.865  1.00  0.00    -0.348 A  
HETATM    8  C   UNL     1     -10.755   9.635  67.782  1.00  0.00    -0.316 A  
HETATM    9  C   UNL     1     -10.237   9.745  69.065  1.00  0.00    -0.203 A  
HETATM   10  C   UNL     1      -9.150   8.976  69.458  1.00  0.00    -0.151 A  
HETATM   11  O   UNL     1     -10.770  10.611  69.972  1.00  0.00    -0.397 OA 
HETATM   12  H   UNL     1     -10.416  10.686  70.850  1.00  0.00     0.000 HD 
HETATM   13  C   UNL     1      -8.547   8.108  68.542  1.00  0.00    -0.130 A  
ENDBRANCH   4   6
TORSDOF 1
ENDMDL
MODEL      159
REMARK 921   NORMALIZED FREE ENERGY PREDICTED BY IDOCK:   -2.01 KCAL/MOL
REMARK 922        TOTAL FREE ENERGY PREDICTED BY IDOCK:   -2.29 KCAL/MOL
REMARK 923 INTER-LIGAND FREE ENERGY PREDICTED BY IDOCK:   -2.16 KCAL/MOL
REMARK 924 INTRA-LIGAND FREE ENERGY PREDICTED BY IDOCK:   -0.13 KCAL/MOL
REMARK 927      BINDING AFFINITY PREDICTED BY RF-SCORE:    0.00 PKD
ROOT
HETATM    1  C   UNL     1     -10.476  11.276  68.482  1.00  0.00    -0.218 C  
HETATM    2  C   UNL     1     -10.430   9.808  68.149  1.00  0.00    -0.216 C  
HETATM    3  O   UNL     1     -10.840   9.397  67.069  1.00  0.00    -0.187 OA 
HETATM    4  N   UNL     1      -9.908   9.052  69.185  1.00  0.00    -0.171 N  
HETATM    5  H   UNL     1      -9.608   9.558  70.018  1.00  0.00     0.000 HD 
ENDROOT
BRANCH   4   6
HETATM    6  C   UNL     1      -9.753   7.649  69.201  1.00  0.00    -0.164 A  
HETATM    7  C   UNL     1      -8.831   6.966  68.403  1.00  0.00    -0.123 A  
HETATM    8  C   UNL     1      -8.770   5.569  68.416  1.00  0.00    -0.105 A  
HETATM    9  C   UNL     1      -9.634   4.855  69.236  1.00  0.00    -0.171 A  
HETATM   10  C   UNL     1     -10.525   5.515  70.071  1.00  0.00    -0.373 A  
HETATM   11  O   UNL     1      -9.642   3.493  69.241  1.00  0.00    -0.180 OA 
HETATM   12  H   UNL     1     -10.232   3.004  69.802  1.00  0.00     0.000 HD 
HETATM   13  C   UNL     1     -10.579   6.913  70.061  1.00  0.00    -0.254 A  
ENDBRANCH   4   6
TORSDOF 1
ENDMDL
MODEL      160
REMARK 921   NORMALIZED FREE ENERGY PREDICTED BY IDOCK:   -2.00 KCAL/MOL
REMARK 922        TOTAL FREE ENERGY PREDICTED BY IDOCK:   -2.28 KCAL/MOL
REMARK 923 INTER-LIGAND FREE ENERGY PREDICTED BY IDOCK:   -2.24 KCAL/MOL
REMARK 924 INTRA-LIGAND FREE ENERGY PREDICTED BY IDOCK:   -0.04 KCAL/MOL
REMARK 927      BINDING AFFINITY PREDICTED BY RF-SCORE:    0.00 PKD
ROOT
HETATM    1  C   UNL     1      -6.417   4.065  64.697  1.00  0.00    -0.042 C  
HETATM    2  C   UNL     1      -7.186   4.818  65.751  1.00  0.00    -0.076 C  
HETATM    3  O   UNL     1      -7.129   4.482  66.929  1.00  0.00    -0.065 OA 
HETATM    4  N   UNL     1      -7.926   5.859  65.217  1.00  0.00    -0.108 N  
HETATM    5  H   UNL     1      -7.855   6.005  64.210  1.00  0.00     0.000 HD 
ENDROOT
BRANCH   4   6
HETATM    6  C   UNL     1      -8.771   6.737  65.929  1.00  0.00    -0.137 A  
HETATM    7  C   UNL     1      -9.812   6.306  66.755  1.00  0.00    -0.208 A  
HETATM    8  C   UNL     1     -10.657   7.228  67.383  1.00  0.00    -0.370 A  
HETATM    9  C   UNL     1     -10.453   8.587  67.183  1.00  0.00    -0.299 A  
HETATM   10  C   UNL     1      -9.397   9.037  66.403  1.00  0.00    -0.264 A  
HETATM   11  O   UNL     1     -11.284   9.515  67.734  1.00  0.00    -0.500 OA 
HETATM   12  H   UNL     1     -11.144  10.445  67.598  1.00  0.00     0.000 HD 
HETATM   13  C   UNL     1      -8.550   8.113  65.783  1.00  0.00    -0.175 A  
ENDBRANCH   4   6
TORSDOF 1
ENDMDL
MODEL      161
REMARK 921   NORMALIZED FREE ENERGY PREDICTED BY IDOCK:   -1.98 KCAL/MOL
REMARK 922        TOTAL FREE ENERGY PREDICTED BY IDOCK:   -2.27 KCAL/MOL
REMARK 923 INTER-LIGAND FREE ENERGY PREDICTED BY IDOCK:   -2.21 KCAL/MOL
REMARK 924 INTRA-LIGAND FREE ENERGY PREDICTED BY IDOCK:   -0.05 KCAL/MOL
REMARK 927      BINDING AFFINITY PREDICTED BY RF-SCORE:    0.00 PKD
ROOT
HETATM    1  C   UNL     1     -10.848  13.336  66.130  1.00  0.00    -0.290 C  
HETATM    2  C   UNL     1     -10.271  12.114  65.465  1.00  0.00    -0.265 C  
HETATM    3  O   UNL     1     -10.263  12.011  64.243  1.00  0.00    -0.287 OA 
HETATM    4  N   UNL     1      -9.803  11.189  66.382  1.00  0.00    -0.205 N  
HETATM    5  H   UNL     1      -9.882  11.438  67.368  1.00  0.00     0.000 HD 
ENDROOT
BRANCH   4   6
HETATM    6  C   UNL     1      -9.229   9.934  66.087  1.00  0.00    -0.168 A  
HETATM    7  C   UNL     1      -8.113   9.771  65.261  1.00  0.00    -0.126 A  
HETATM    8  C   UNL     1      -7.631   8.495  64.954  1.00  0.00    -0.098 A  
HETATM    9  C   UNL     1      -8.267   7.379  65.480  1.00  0.00    -0.135 A  
HETATM   10  C   UNL     1      -9.347   7.520  66.340  1.00  0.00    -0.211 A  
HETATM   11  O   UNL     1      -7.860   6.117  65.165  1.00  0.00    -0.094 OA 
HETATM   12  H   UNL     1      -8.295   5.354  65.525  1.00  0.00     0.000 HD 
HETATM   13  C   UNL     1      -9.824   8.797  66.651  1.00  0.00    -0.335 A  
ENDBRANCH   4   6
TORSDOF 1
ENDMDL
MODEL      162
REMARK 921   NORMALIZED FREE ENERGY PREDICTED BY IDOCK:   -1.97 KCAL/MOL
REMARK 922        TOTAL FREE ENERGY PREDICTED BY IDOCK:   -2.25 KCAL/MOL
REMARK 923 INTER-LIGAND FREE ENERGY PREDICTED BY IDOCK:   -2.14 KCAL/MOL
REMARK 924 INTRA-LIGAND FREE ENERGY PREDICTED BY IDOCK:   -0.11 KCAL/MOL
REMARK 927      BINDING AFFINITY PREDICTED BY RF-SCORE:    0.00 PKD
ROOT
HETATM    1  C   UNL     1     -10.584   4.877  66.553  1.00  0.00    -0.240 C  
HETATM    2  C   UNL     1     -10.348   6.284  67.035  1.00  0.00    -0.240 C  
HETATM    3  O   UNL     1     -11.136   7.182  66.758  1.00  0.00    -0.254 OA 
HETATM    4  N   UNL     1      -9.180   6.399  67.769  1.00  0.00    -0.114 N  
HETATM    5  H   UNL     1      -8.640   5.545  67.911  1.00  0.00     0.000 HD 
ENDROOT
BRANCH   4   6
HETATM    6  C   UNL     1      -8.661   7.581  68.338  1.00  0.00    -0.124 A  
HETATM    7  C   UNL     1      -7.520   8.232  67.859  1.00  0.00    -0.098 A  
HETATM    8  C   UNL     1      -7.017   9.365  68.508  1.00  0.00    -0.066 A  
HETATM    9  C   UNL     1      -7.663   9.848  69.639  1.00  0.00    -0.149 A  
HETATM   10  C   UNL     1      -8.823   9.244  70.103  1.00  0.00    -0.235 A  
HETATM   11  O   UNL     1      -7.177  10.917  70.329  1.00  0.00    -0.461 OA 
HETATM   12  H   UNL     1      -7.619  11.247  71.103  1.00  0.00     0.000 HD 
HETATM   13  C   UNL     1      -9.328   8.116  69.449  1.00  0.00    -0.155 A  
ENDBRANCH   4   6
TORSDOF 1
ENDMDL
MODEL      163
REMARK 921   NORMALIZED FREE ENERGY PREDICTED BY IDOCK:   -1.94 KCAL/MOL
REMARK 922        TOTAL FREE ENERGY PREDICTED BY IDOCK:   -2.22 KCAL/MOL
REMARK 923 INTER-LIGAND FREE ENERGY PREDICTED BY IDOCK:   -2.05 KCAL/MOL
REMARK 924 INTRA-LIGAND FREE ENERGY PREDICTED BY IDOCK:   -0.17 KCAL/MOL
REMARK 927      BINDING AFFINITY PREDICTED BY RF-SCORE:    0.00 PKD
ROOT
HETATM    1  C   UNL     1      -7.792   9.929  69.587  1.00  0.00    -0.156 C  
HETATM    2  C   UNL     1      -8.171   8.538  69.150  1.00  0.00    -0.119 C  
HETATM    3  O   UNL     1      -7.896   7.566  69.844  1.00  0.00    -0.103 OA 
HETATM    4  N   UNL     1      -8.814   8.531  67.923  1.00  0.00    -0.137 N  
HETATM    5  H   UNL     1      -8.969   9.436  67.480  1.00  0.00     0.000 HD 
ENDROOT
BRANCH   4   6
HETATM    6  C   UNL     1      -9.275   7.394  67.226  1.00  0.00    -0.131 A  
HETATM    7  C   UNL     1     -10.541   6.833  67.416  1.00  0.00    -0.372 A  
HETATM    8  C   UNL     1     -10.915   5.666  66.742  1.00  0.00    -0.180 A  
HETATM    9  C   UNL     1     -10.017   5.061  65.873  1.00  0.00    -0.167 A  
HETATM   10  C   UNL     1      -8.772   5.626  65.636  1.00  0.00    -0.151 A  
HETATM   11  O   UNL     1     -10.323   3.896  65.237  1.00  0.00    -0.411 OA 
HETATM   12  H   UNL     1      -9.709   3.482  64.642  1.00  0.00     0.000 HD 
HETATM   13  C   UNL     1      -8.403   6.798  66.305  1.00  0.00    -0.126 A  
ENDBRANCH   4   6
TORSDOF 1
ENDMDL
MODEL      164
REMARK 921   NORMALIZED FREE ENERGY PREDICTED BY IDOCK:   -1.92 KCAL/MOL
REMARK 922        TOTAL FREE ENERGY PREDICTED BY IDOCK:   -2.20 KCAL/MOL
REMARK 923 INTER-LIGAND FREE ENERGY PREDICTED BY IDOCK:   -2.05 KCAL/MOL
REMARK 924 INTRA-LIGAND FREE ENERGY PREDICTED BY IDOCK:   -0.15 KCAL/MOL
REMARK 927      BINDING AFFINITY PREDICTED BY RF-SCORE:    0.00 PKD
ROOT
HETATM    1  C   UNL     1     -11.654   6.207  69.919  1.00  0.00    -0.239 C  
HETATM    2  C   UNL     1     -10.548   5.809  68.977  1.00  0.00    -0.281 C  
HETATM    3  O   UNL     1      -9.465   5.429  69.407  1.00  0.00    -0.121 OA 
HETATM    4  N   UNL     1     -10.915   5.948  67.649  1.00  0.00    -0.351 N  
HETATM    5  H   UNL     1     -11.864   6.274  67.466  1.00  0.00     0.000 HD 
ENDROOT
BRANCH   4   6
HETATM    6  C   UNL     1     -10.104   5.685  66.525  1.00  0.00    -0.185 A  
HETATM    7  C   UNL     1      -9.034   6.497  66.138  1.00  0.00    -0.161 A  
HETATM    8  C   UNL     1      -8.308   6.218  64.975  1.00  0.00    -0.099 A  
HETATM    9  C   UNL     1      -8.656   5.120  64.199  1.00  0.00    -0.101 A  
HETATM   10  C   UNL     1      -9.686   4.276  64.590  1.00  0.00    -0.152 A  
HETATM   11  O   UNL     1      -8.009   4.844  63.033  1.00  0.00    -0.073 OA 
HETATM   12  H   UNL     1      -8.246   4.093  62.502  1.00  0.00     0.000 HD 
HETATM   13  C   UNL     1     -10.405   4.552  65.757  1.00  0.00    -0.287 A  
ENDBRANCH   4   6
TORSDOF 1
ENDMDL
MODEL      165
REMARK 921   NORMALIZED FREE ENERGY PREDICTED BY IDOCK:   -1.90 KCAL/MOL
REMARK 922        TOTAL FREE ENERGY PREDICTED BY IDOCK:   -2.18 KCAL/MOL
REMARK 923 INTER-LIGAND FREE ENERGY PREDICTED BY IDOCK:   -2.07 KCAL/MOL
REMARK 924 INTRA-LIGAND FREE ENERGY PREDICTED BY IDOCK:   -0.11 KCAL/MOL
REMARK 927      BINDING AFFINITY PREDICTED BY RF-SCORE:    0.00 PKD
ROOT
HETATM    1  C   UNL     1      -9.055  10.779  67.112  1.00  0.00    -0.153 C  
HETATM    2  C   UNL     1      -8.989  12.187  67.645  1.00  0.00    -0.178 C  
HETATM    3  O   UNL     1      -9.701  12.537  68.580  1.00  0.00    -0.163 OA 
HETATM    4  N   UNL     1      -8.080  12.968  66.952  1.00  0.00    -0.402 N  
HETATM    5  H   UNL     1      -7.563  12.513  66.199  1.00  0.00     0.000 HD 
ENDROOT
BRANCH   4   6
HETATM    6  C   UNL     1      -7.800  14.331  67.184  1.00  0.00    -0.056 A  
HETATM    7  C   UNL     1      -8.737  15.353  67.005  1.00  0.00    -0.256 A  
HETATM    8  C   UNL     1      -8.378  16.693  67.188  1.00  0.00    -0.202 A  
HETATM    9  C   UNL     1      -7.076  17.008  67.555  1.00  0.00    -0.152 A  
HETATM   10  C   UNL     1      -6.143  16.006  67.782  1.00  0.00    -0.162 A  
HETATM   11  O   UNL     1      -6.673  18.302  67.693  1.00  0.00    -0.193 OA 
HETATM   12  H   UNL     1      -5.783  18.517  67.944  1.00  0.00     0.000 HD 
HETATM   13  C   UNL     1      -6.506  14.667  67.605  1.00  0.00    -0.157 A  
ENDBRANCH   4   6
TORSDOF 1
ENDMDL
MODEL      166
REMARK 921   NORMALIZED FREE ENERGY PREDICTED BY IDOCK:   -1.88 KCAL/MOL
REMARK 922        TOTAL FREE ENERGY PREDICTED BY IDOCK:   -2.16 KCAL/MOL
REMARK 923 INTER-LIGAND FREE ENERGY PREDICTED BY IDOCK:   -2.28 KCAL/MOL
REMARK 924 INTRA-LIGAND FREE ENERGY PREDICTED BY IDOCK:    0.11 KCAL/MOL
REMARK 927      BINDING AFFINITY PREDICTED BY RF-SCORE:    0.00 PKD
ROOT
HETATM    1  C   UNL     1      -9.384   3.176  67.311  1.00  0.00    -0.217 C  
HETATM    2  C   UNL     1      -9.637   4.625  67.634  1.00  0.00    -0.161 C  
HETATM    3  O   UNL     1     -10.012   4.962  68.752  1.00  0.00    -0.167 OA 
HETATM    4  N   UNL     1      -9.415   5.452  66.546  1.00  0.00    -0.143 N  
HETATM    5  H   UNL     1      -9.098   5.005  65.686  1.00  0.00     0.000 HD 
ENDROOT
BRANCH   4   6
HETATM    6  C   UNL     1      -9.585   6.852  66.510  1.00  0.00    -0.143 A  
HETATM    7  C   UNL     1     -10.612   7.523  67.181  1.00  0.00    -0.415 A  
HETATM    8  C   UNL     1     -10.766   8.907  67.053  1.00  0.00    -0.180 A  
HETATM    9  C   UNL     1      -9.885   9.621  66.252  1.00  0.00    -0.256 A  
HETATM   10  C   UNL     1      -8.831   8.982  65.614  1.00  0.00    -0.224 A  
HETATM   11  O   UNL     1     -10.031  10.962  66.059  1.00  0.00    -0.221 OA 
HETATM   12  H   UNL     1      -9.428  11.451  65.512  1.00  0.00     0.000 HD 
HETATM   13  C   UNL     1      -8.675   7.599  65.750  1.00  0.00    -0.151 A  
ENDBRANCH   4   6
TORSDOF 1
ENDMDL
MODEL      167
REMARK 921   NORMALIZED FREE ENERGY PREDICTED BY IDOCK:   -1.88 KCAL/MOL
REMARK 922        TOTAL FREE ENERGY PREDICTED BY IDOCK:   -2.16 KCAL/MOL
REMARK 923 INTER-LIGAND FREE ENERGY PREDICTED BY IDOCK:   -2.30 KCAL/MOL
REMARK 924 INTRA-LIGAND FREE ENERGY PREDICTED BY IDOCK:    0.14 KCAL/MOL
REMARK 927      BINDING AFFINITY PREDICTED BY RF-SCORE:    0.00 PKD
ROOT
HETATM    1  C   UNL     1      -8.094   7.059  65.048  1.00  0.00    -0.119 C  
HETATM    2  C   UNL     1      -8.879   7.902  66.018  1.00  0.00    -0.158 C  
HETATM    3  O   UNL     1      -9.754   7.404  66.717  1.00  0.00    -0.185 OA 
HETATM    4  N   UNL     1      -8.498   9.233  65.984  1.00  0.00    -0.132 N  
HETATM    5  H   UNL     1      -7.743   9.479  65.343  1.00  0.00     0.000 HD 
ENDROOT
BRANCH   4   6
HETATM    6  C   UNL     1      -9.052  10.283  66.747  1.00  0.00    -0.143 A  
HETATM    7  C   UNL     1      -8.283  11.248  67.403  1.00  0.00    -0.135 A  
HETATM    8  C   UNL     1      -8.888  12.226  68.200  1.00  0.00    -0.187 A  
HETATM    9  C   UNL     1     -10.270  12.236  68.335  1.00  0.00    -0.217 A  
HETATM   10  C   UNL     1     -11.055  11.315  67.656  1.00  0.00    -0.336 A  
HETATM   11  O   UNL     1     -10.896  13.139  69.142  1.00  0.00    -0.389 OA 
HETATM   12  H   UNL     1     -11.841  13.147  69.234  1.00  0.00     0.000 HD 
HETATM   13  C   UNL     1     -10.448  10.344  66.854  1.00  0.00    -0.300 A  
ENDBRANCH   4   6
TORSDOF 1
ENDMDL
MODEL      168
REMARK 921   NORMALIZED FREE ENERGY PREDICTED BY IDOCK:   -1.84 KCAL/MOL
REMARK 922        TOTAL FREE ENERGY PREDICTED BY IDOCK:   -2.12 KCAL/MOL
REMARK 923 INTER-LIGAND FREE ENERGY PREDICTED BY IDOCK:   -1.95 KCAL/MOL
REMARK 924 INTRA-LIGAND FREE ENERGY PREDICTED BY IDOCK:   -0.17 KCAL/MOL
REMARK 927      BINDING AFFINITY PREDICTED BY RF-SCORE:    0.00 PKD
ROOT
HETATM    1  C   UNL     1     -10.623   5.655  72.121  1.00  0.00    -0.274 C  
HETATM    2  C   UNL     1      -9.772   5.702  70.879  1.00  0.00    -0.173 C  
HETATM    3  O   UNL     1      -8.631   6.150  70.917  1.00  0.00    -0.129 OA 
HETATM    4  N   UNL     1     -10.439   5.213  69.769  1.00  0.00    -0.265 N  
HETATM    5  H   UNL     1     -11.389   4.871  69.916  1.00  0.00     0.000 HD 
ENDROOT
BRANCH   4   6
HETATM    6  C   UNL     1      -9.934   5.141  68.453  1.00  0.00    -0.149 A  
HETATM    7  C   UNL     1      -9.956   6.215  67.559  1.00  0.00    -0.159 A  
HETATM    8  C   UNL     1      -9.499   6.062  66.245  1.00  0.00    -0.153 A  
HETATM    9  C   UNL     1      -9.016   4.829  65.829  1.00  0.00    -0.138 A  
HETATM   10  C   UNL     1      -8.943   3.762  66.714  1.00  0.00    -0.150 A  
HETATM   11  O   UNL     1      -8.610   4.624  64.545  1.00  0.00    -0.129 OA 
HETATM   12  H   UNL     1      -8.279   3.780  64.260  1.00  0.00     0.000 HD 
HETATM   13  C   UNL     1      -9.393   3.920  68.029  1.00  0.00    -0.226 A  
ENDBRANCH   4   6
TORSDOF 1
ENDMDL
MODEL      169
REMARK 921   NORMALIZED FREE ENERGY PREDICTED BY IDOCK:   -1.78 KCAL/MOL
REMARK 922        TOTAL FREE ENERGY PREDICTED BY IDOCK:   -2.06 KCAL/MOL
REMARK 923 INTER-LIGAND FREE ENERGY PREDICTED BY IDOCK:   -2.18 KCAL/MOL
REMARK 924 INTRA-LIGAND FREE ENERGY PREDICTED BY IDOCK:    0.12 KCAL/MOL
REMARK 927      BINDING AFFINITY PREDICTED BY RF-SCORE:    0.00 PKD
ROOT
HETATM    1  C   UNL     1      -5.204  12.791  70.718  1.00  0.00    -0.147 C  
HETATM    2  C   UNL     1      -6.313  12.386  69.784  1.00  0.00    -0.081 C  
HETATM    3  O   UNL     1      -6.707  13.151  68.910  1.00  0.00    -0.091 OA 
HETATM    4  N   UNL     1      -6.794  11.117  70.058  1.00  0.00    -0.329 N  
HETATM    5  H   UNL     1      -6.346  10.611  70.822  1.00  0.00     0.000 HD 
ENDROOT
BRANCH   4   6
HETATM    6  C   UNL     1      -7.844  10.456  69.386  1.00  0.00    -0.161 A  
HETATM    7  C   UNL     1      -8.074  10.572  68.012  1.00  0.00    -0.111 A  
HETATM    8  C   UNL     1      -9.171   9.943  67.415  1.00  0.00    -0.151 A  
HETATM    9  C   UNL     1     -10.039   9.193  68.198  1.00  0.00    -0.189 A  
HETATM   10  C   UNL     1      -9.803   9.028  69.556  1.00  0.00    -0.181 A  
HETATM   11  O   UNL     1     -11.147   8.607  67.665  1.00  0.00    -0.474 OA 
HETATM   12  H   UNL     1     -11.740   8.094  68.200  1.00  0.00     0.000 HD 
HETATM   13  C   UNL     1      -8.701   9.651  70.149  1.00  0.00    -0.263 A  
ENDBRANCH   4   6
TORSDOF 1
ENDMDL
MODEL      170
REMARK 921   NORMALIZED FREE ENERGY PREDICTED BY IDOCK:   -1.71 KCAL/MOL
REMARK 922        TOTAL FREE ENERGY PREDICTED BY IDOCK:   -1.98 KCAL/MOL
REMARK 923 INTER-LIGAND FREE ENERGY PREDICTED BY IDOCK:   -1.81 KCAL/MOL
REMARK 924 INTRA-LIGAND FREE ENERGY PREDICTED BY IDOCK:   -0.16 KCAL/MOL
REMARK 927      BINDING AFFINITY PREDICTED BY RF-SCORE:    0.00 PKD
ROOT
HETATM    1  C   UNL     1      -6.541   6.597  68.340  1.00  0.00    -0.059 C  
HETATM    2  C   UNL     1      -7.603   7.372  67.605  1.00  0.00    -0.106 C  
HETATM    3  O   UNL     1      -8.015   6.991  66.514  1.00  0.00    -0.103 OA 
HETATM    4  N   UNL     1      -7.997   8.506  68.294  1.00  0.00    -0.113 N  
HETATM    5  H   UNL     1      -7.554   8.672  69.198  1.00  0.00     0.000 HD 
ENDROOT
BRANCH   4   6
HETATM    6  C   UNL     1      -8.951   9.455  67.869  1.00  0.00    -0.123 A  
HETATM    7  C   UNL     1     -10.331   9.247  67.940  1.00  0.00    -0.279 A  
HETATM    8  C   UNL     1     -11.225  10.200  67.441  1.00  0.00    -0.080 A  
HETATM    9  C   UNL     1     -10.733  11.367  66.873  1.00  0.00    -0.265 A  
HETATM   10  C   UNL     1      -9.367  11.614  66.834  1.00  0.00    -0.195 A  
HETATM   11  O   UNL     1     -11.567  12.297  66.330  1.00  0.00    -0.366 OA 
HETATM   12  H   UNL     1     -11.230  13.096  65.941  1.00  0.00     0.000 HD 
HETATM   13  C   UNL     1      -8.476  10.663  67.340  1.00  0.00    -0.122 A  
ENDBRANCH   4   6
TORSDOF 1
ENDMDL
MODEL      171
REMARK 921   NORMALIZED FREE ENERGY PREDICTED BY IDOCK:   -1.70 KCAL/MOL
REMARK 922        TOTAL FREE ENERGY PREDICTED BY IDOCK:   -1.97 KCAL/MOL
REMARK 923 INTER-LIGAND FREE ENERGY PREDICTED BY IDOCK:   -1.81 KCAL/MOL
REMARK 924 INTRA-LIGAND FREE ENERGY PREDICTED BY IDOCK:   -0.15 KCAL/MOL
REMARK 927      BINDING AFFINITY PREDICTED BY RF-SCORE:    0.00 PKD
ROOT
HETATM    1  C   UNL     1      -8.776   4.449  62.729  1.00  0.00    -0.113 C  
HETATM    2  C   UNL     1      -9.135   4.455  64.192  1.00  0.00    -0.149 C  
HETATM    3  O   UNL     1      -9.691   3.490  64.705  1.00  0.00    -0.158 OA 
HETATM    4  N   UNL     1      -8.781   5.640  64.814  1.00  0.00    -0.324 N  
HETATM    5  H   UNL     1      -8.317   6.342  64.237  1.00  0.00     0.000 HD 
ENDROOT
BRANCH   4   6
HETATM    6  C   UNL     1      -9.000   5.973  66.168  1.00  0.00    -0.152 A  
HETATM    7  C   UNL     1     -10.030   6.814  66.599  1.00  0.00    -0.207 A  
HETATM    8  C   UNL     1     -10.155   7.159  67.948  1.00  0.00    -0.211 A  
HETATM    9  C   UNL     1      -9.245   6.656  68.869  1.00  0.00    -0.130 A  
HETATM   10  C   UNL     1      -8.244   5.782  68.469  1.00  0.00    -0.108 A  
HETATM   11  O   UNL     1      -9.301   7.008  70.184  1.00  0.00    -0.161 OA 
HETATM   12  H   UNL     1      -8.679   6.663  70.814  1.00  0.00     0.000 HD 
HETATM   13  C   UNL     1      -8.125   5.433  67.120  1.00  0.00    -0.101 A  
ENDBRANCH   4   6
TORSDOF 1
ENDMDL
MODEL      172
REMARK 921   NORMALIZED FREE ENERGY PREDICTED BY IDOCK:   -1.65 KCAL/MOL
REMARK 922        TOTAL FREE ENERGY PREDICTED BY IDOCK:   -1.91 KCAL/MOL
REMARK 923 INTER-LIGAND FREE ENERGY PREDICTED BY IDOCK:   -1.93 KCAL/MOL
REMARK 924 INTRA-LIGAND FREE ENERGY PREDICTED BY IDOCK:    0.02 KCAL/MOL
REMARK 927      BINDING AFFINITY PREDICTED BY RF-SCORE:    0.00 PKD
ROOT
HETATM    1  C   UNL     1      -7.056   2.297  63.477  1.00  0.00    -0.037 C  
HETATM    2  C   UNL     1      -7.939   2.844  64.568  1.00  0.00    -0.082 C  
HETATM    3  O   UNL     1      -8.430   2.100  65.410  1.00  0.00    -0.091 OA 
HETATM    4  N   UNL     1      -8.110   4.215  64.467  1.00  0.00    -0.092 N  
HETATM    5  H   UNL     1      -7.621   4.684  63.704  1.00  0.00     0.000 HD 
ENDROOT
BRANCH   4   6
HETATM    6  C   UNL     1      -8.894   5.026  65.314  1.00  0.00    -0.153 A  
HETATM    7  C   UNL     1     -10.206   4.715  65.682  1.00  0.00    -0.255 A  
HETATM    8  C   UNL     1     -10.955   5.593  66.472  1.00  0.00    -0.140 A  
HETATM    9  C   UNL     1     -10.384   6.785  66.898  1.00  0.00    -0.254 A  
HETATM   10  C   UNL     1      -9.068   7.091  66.583  1.00  0.00    -0.175 A  
HETATM   11  O   UNL     1     -11.096   7.691  67.626  1.00  0.00    -0.508 OA 
HETATM   12  H   UNL     1     -10.705   8.506  67.918  1.00  0.00     0.000 HD 
HETATM   13  C   UNL     1      -8.319   6.208  65.799  1.00  0.00    -0.143 A  
ENDBRANCH   4   6
TORSDOF 1
ENDMDL
MODEL      173
REMARK 921   NORMALIZED FREE ENERGY PREDICTED BY IDOCK:   -1.57 KCAL/MOL
REMARK 922        TOTAL FREE ENERGY PREDICTED BY IDOCK:   -1.83 KCAL/MOL
REMARK 923 INTER-LIGAND FREE ENERGY PREDICTED BY IDOCK:   -1.66 KCAL/MOL
REMARK 924 INTRA-LIGAND FREE ENERGY PREDICTED BY IDOCK:   -0.17 KCAL/MOL
REMARK 927      BINDING AFFINITY PREDICTED BY RF-SCORE:    0.00 PKD
ROOT
HETATM    1  C   UNL     1     -11.001  11.945  66.839  1.00  0.00    -0.335 C  
HETATM    2  C   UNL     1     -10.272  10.628  66.848  1.00  0.00    -0.223 C  
HETATM    3  O   UNL     1     -10.284   9.897  65.863  1.00  0.00    -0.261 OA 
HETATM    4  N   UNL     1      -9.647  10.382  68.059  1.00  0.00    -0.142 N  
HETATM    5  H   UNL     1      -9.733  11.104  68.775  1.00  0.00     0.000 HD 
ENDROOT
BRANCH   4   6
HETATM    6  C   UNL     1      -8.905   9.232  68.401  1.00  0.00    -0.129 A  
HETATM    7  C   UNL     1      -9.449   8.135  69.075  1.00  0.00    -0.155 A  
HETATM    8  C   UNL     1      -8.645   7.051  69.444  1.00  0.00    -0.134 A  
HETATM    9  C   UNL     1      -7.292   7.067  69.132  1.00  0.00    -0.092 A  
HETATM   10  C   UNL     1      -6.741   8.126  68.423  1.00  0.00    -0.064 A  
HETATM   11  O   UNL     1      -6.464   6.056  69.518  1.00  0.00    -0.039 OA 
HETATM   12  H   UNL     1      -5.539   6.066  69.304  1.00  0.00     0.000 HD 
HETATM   13  C   UNL     1      -7.549   9.204  68.048  1.00  0.00    -0.085 A  
ENDBRANCH   4   6
TORSDOF 1
ENDMDL
MODEL      174
REMARK 921   NORMALIZED FREE ENERGY PREDICTED BY IDOCK:   -1.55 KCAL/MOL
REMARK 922        TOTAL FREE ENERGY PREDICTED BY IDOCK:   -1.82 KCAL/MOL
REMARK 923 INTER-LIGAND FREE ENERGY PREDICTED BY IDOCK:   -1.83 KCAL/MOL
REMARK 924 INTRA-LIGAND FREE ENERGY PREDICTED BY IDOCK:    0.01 KCAL/MOL
REMARK 927      BINDING AFFINITY PREDICTED BY RF-SCORE:    0.00 PKD
ROOT
HETATM    1  C   UNL     1      -6.414  12.572  68.844  1.00  0.00    -0.091 C  
HETATM    2  C   UNL     1      -6.105  14.043  68.941  1.00  0.00    -0.086 C  
HETATM    3  O   UNL     1      -5.369  14.472  69.823  1.00  0.00    -0.092 OA 
HETATM    4  N   UNL     1      -6.748  14.780  67.961  1.00  0.00    -0.128 N  
HETATM    5  H   UNL     1      -7.323  14.260  67.297  1.00  0.00     0.000 HD 
ENDROOT
BRANCH   4   6
HETATM    6  C   UNL     1      -6.689  16.180  67.791  1.00  0.00    -0.148 A  
HETATM    7  C   UNL     1      -6.278  16.796  66.605  1.00  0.00    -0.130 A  
HETATM    8  C   UNL     1      -6.177  18.188  66.520  1.00  0.00    -0.215 A  
HETATM    9  C   UNL     1      -6.492  18.965  67.627  1.00  0.00    -0.202 A  
HETATM   10  C   UNL     1      -6.946  18.376  68.799  1.00  0.00    -0.291 A  
HETATM   11  O   UNL     1      -6.359  20.320  67.602  1.00  0.00    -0.213 OA 
HETATM   12  H   UNL     1      -6.575  20.852  68.359  1.00  0.00     0.000 HD 
HETATM   13  C   UNL     1      -7.053  16.984  68.879  1.00  0.00    -0.233 A  
ENDBRANCH   4   6
TORSDOF 1
ENDMDL
MODEL      175
REMARK 921   NORMALIZED FREE ENERGY PREDICTED BY IDOCK:   -1.49 KCAL/MOL
REMARK 922        TOTAL FREE ENERGY PREDICTED BY IDOCK:   -1.75 KCAL/MOL
REMARK 923 INTER-LIGAND FREE ENERGY PREDICTED BY IDOCK:   -1.77 KCAL/MOL
REMARK 924 INTRA-LIGAND FREE ENERGY PREDICTED BY IDOCK:    0.02 KCAL/MOL
REMARK 927      BINDING AFFINITY PREDICTED BY RF-SCORE:    0.00 PKD
ROOT
HETATM    1  C   UNL     1      -8.252   9.621  68.404  1.00  0.00    -0.106 C  
HETATM    2  C   UNL     1      -8.154   8.139  68.651  1.00  0.00    -0.124 C  
HETATM    3  O   UNL     1      -7.418   7.696  69.527  1.00  0.00    -0.087 OA 
HETATM    4  N   UNL     1      -8.951   7.409  67.786  1.00  0.00    -0.127 N  
HETATM    5  H   UNL     1      -9.509   7.939  67.116  1.00  0.00     0.000 HD 
ENDROOT
BRANCH   4   6
HETATM    6  C   UNL     1      -9.068   6.003  67.739  1.00  0.00    -0.109 A  
HETATM    7  C   UNL     1      -8.843   5.249  66.584  1.00  0.00    -0.113 A  
HETATM    8  C   UNL     1      -9.039   3.864  66.585  1.00  0.00    -0.160 A  
HETATM    9  C   UNL     1      -9.458   3.234  67.749  1.00  0.00    -0.164 A  
HETATM   10  C   UNL     1      -9.642   3.958  68.918  1.00  0.00    -0.200 A  
HETATM   11  O   UNL     1      -9.710   1.895  67.778  1.00  0.00    -0.408 OA 
HETATM   12  H   UNL     1      -9.996   1.464  68.574  1.00  0.00     0.000 HD 
HETATM   13  C   UNL     1      -9.439   5.341  68.917  1.00  0.00    -0.173 A  
ENDBRANCH   4   6
TORSDOF 1
ENDMDL
MODEL      176
REMARK 921   NORMALIZED FREE ENERGY PREDICTED BY IDOCK:   -1.33 KCAL/MOL
REMARK 922        TOTAL FREE ENERGY PREDICTED BY IDOCK:   -1.57 KCAL/MOL
REMARK 923 INTER-LIGAND FREE ENERGY PREDICTED BY IDOCK:   -1.40 KCAL/MOL
REMARK 924 INTRA-LIGAND FREE ENERGY PREDICTED BY IDOCK:   -0.17 KCAL/MOL
REMARK 927      BINDING AFFINITY PREDICTED BY RF-SCORE:    0.00 PKD
ROOT
HETATM    1  C   UNL     1     -10.658   8.089  69.792  1.00  0.00    -0.238 C  
HETATM    2  C   UNL     1     -10.033   6.784  70.211  1.00  0.00    -0.178 C  
HETATM    3  O   UNL     1     -10.063   5.808  69.470  1.00  0.00    -0.179 OA 
HETATM    4  N   UNL     1      -9.478   6.851  71.478  1.00  0.00    -0.156 N  
HETATM    5  H   UNL     1      -9.535   7.749  71.958  1.00  0.00     0.000 HD 
ENDROOT
BRANCH   4   6
HETATM    6  C   UNL     1      -8.840   5.799  72.169  1.00  0.00    -0.137 A  
HETATM    7  C   UNL     1      -7.492   5.469  72.000  1.00  0.00    -0.095 A  
HETATM    8  C   UNL     1      -6.935   4.373  72.666  1.00  0.00    -0.061 A  
HETATM    9  C   UNL     1      -7.731   3.607  73.507  1.00  0.00    -0.070 A  
HETATM   10  C   UNL     1      -9.059   3.945  73.725  1.00  0.00    -0.093 A  
HETATM   11  O   UNL     1      -7.240   2.502  74.134  1.00  0.00    -0.035 OA 
HETATM   12  H   UNL     1      -7.784   1.978  74.710  1.00  0.00     0.000 HD 
HETATM   13  C   UNL     1      -9.612   5.046  73.064  1.00  0.00    -0.160 A  
ENDBRANCH   4   6
TORSDOF 1
ENDMDL
MODEL      177
REMARK 921   NORMALIZED FREE ENERGY PREDICTED BY IDOCK:   -1.30 KCAL/MOL
REMARK 922        TOTAL FREE ENERGY PREDICTED BY IDOCK:   -1.55 KCAL/MOL
REMARK 923 INTER-LIGAND FREE ENERGY PREDICTED BY IDOCK:   -1.39 KCAL/MOL
REMARK 924 INTRA-LIGAND FREE ENERGY PREDICTED BY IDOCK:   -0.16 KCAL/MOL
REMARK 927      BINDING AFFINITY PREDICTED BY RF-SCORE:    0.00 PKD
ROOT
HETATM    1  C   UNL     1     -10.018   5.601  67.145  1.00  0.00    -0.188 C  
HETATM    2  C   UNL     1      -9.860   5.770  68.634  1.00  0.00    -0.138 C  
HETATM    3  O   UNL     1     -10.843   5.839  69.364  1.00  0.00    -0.318 OA 
HETATM    4  N   UNL     1      -8.532   5.848  69.016  1.00  0.00    -0.105 N  
HETATM    5  H   UNL     1      -7.835   5.765  68.275  1.00  0.00     0.000 HD 
ENDROOT
BRANCH   4   6
HETATM    6  C   UNL     1      -8.047   6.030  70.328  1.00  0.00    -0.111 A  
HETATM    7  C   UNL     1      -8.018   5.014  71.288  1.00  0.00    -0.109 A  
HETATM    8  C   UNL     1      -7.586   5.274  72.593  1.00  0.00    -0.097 A  
HETATM    9  C   UNL     1      -7.179   6.557  72.935  1.00  0.00    -0.082 A  
HETATM   10  C   UNL     1      -7.157   7.569  71.985  1.00  0.00    -0.064 A  
HETATM   11  O   UNL     1      -6.800   6.864  74.207  1.00  0.00    -0.085 OA 
HETATM   12  H   UNL     1      -6.521   7.741  74.441  1.00  0.00     0.000 HD 
HETATM   13  C   UNL     1      -7.582   7.304  70.679  1.00  0.00    -0.091 A  
ENDBRANCH   4   6
TORSDOF 1
ENDMDL
MODEL      178
REMARK 921   NORMALIZED FREE ENERGY PREDICTED BY IDOCK:   -1.30 KCAL/MOL
REMARK 922        TOTAL FREE ENERGY PREDICTED BY IDOCK:   -1.54 KCAL/MOL
REMARK 923 INTER-LIGAND FREE ENERGY PREDICTED BY IDOCK:   -1.37 KCAL/MOL
REMARK 924 INTRA-LIGAND FREE ENERGY PREDICTED BY IDOCK:   -0.17 KCAL/MOL
REMARK 927      BINDING AFFINITY PREDICTED BY RF-SCORE:    0.00 PKD
ROOT
HETATM    1  C   UNL     1     -10.180   8.829  66.657  1.00  0.00    -0.340 C  
HETATM    2  C   UNL     1      -8.993   8.031  66.185  1.00  0.00    -0.175 C  
HETATM    3  O   UNL     1      -7.851   8.438  66.370  1.00  0.00    -0.095 OA 
HETATM    4  N   UNL     1      -9.368   6.864  65.541  1.00  0.00    -0.277 N  
HETATM    5  H   UNL     1     -10.368   6.674  65.479  1.00  0.00     0.000 HD 
ENDROOT
BRANCH   4   6
HETATM    6  C   UNL     1      -8.502   5.912  64.962  1.00  0.00    -0.111 A  
HETATM    7  C   UNL     1      -8.113   5.939  63.620  1.00  0.00    -0.094 A  
HETATM    8  C   UNL     1      -7.304   4.929  63.088  1.00  0.00    -0.049 A  
HETATM    9  C   UNL     1      -6.881   3.891  63.908  1.00  0.00    -0.044 A  
HETATM   10  C   UNL     1      -7.218   3.870  65.254  1.00  0.00    -0.068 A  
HETATM   11  O   UNL     1      -6.136   2.861  63.418  1.00  0.00    -0.013 OA 
HETATM   12  H   UNL     1      -5.846   2.151  63.979  1.00  0.00     0.000 HD 
HETATM   13  C   UNL     1      -8.020   4.885  65.784  1.00  0.00    -0.106 A  
ENDBRANCH   4   6
TORSDOF 1
ENDMDL
MODEL      179
REMARK 921   NORMALIZED FREE ENERGY PREDICTED BY IDOCK:   -1.23 KCAL/MOL
REMARK 922        TOTAL FREE ENERGY PREDICTED BY IDOCK:   -1.48 KCAL/MOL
REMARK 923 INTER-LIGAND FREE ENERGY PREDICTED BY IDOCK:   -1.34 KCAL/MOL
REMARK 924 INTRA-LIGAND FREE ENERGY PREDICTED BY IDOCK:   -0.13 KCAL/MOL
REMARK 927      BINDING AFFINITY PREDICTED BY RF-SCORE:    0.00 PKD
ROOT
HETATM    1  C   UNL     1      -7.490  11.012  69.615  1.00  0.00     0.029 C  
HETATM    2  C   UNL     1      -7.544   9.561  70.017  1.00  0.00    -0.133 C  
HETATM    3  O   UNL     1      -6.894   9.151  70.972  1.00  0.00    -0.083 OA 
HETATM    4  N   UNL     1      -8.368   8.818  69.189  1.00  0.00    -0.123 N  
HETATM    5  H   UNL     1      -8.842   9.322  68.439  1.00  0.00     0.000 HD 
ENDROOT
BRANCH   4   6
HETATM    6  C   UNL     1      -8.615   7.431  69.278  1.00  0.00    -0.137 A  
HETATM    7  C   UNL     1      -8.070   6.492  68.398  1.00  0.00    -0.111 A  
HETATM    8  C   UNL     1      -8.405   5.138  68.499  1.00  0.00    -0.089 A  
HETATM    9  C   UNL     1      -9.287   4.724  69.489  1.00  0.00    -0.133 A  
HETATM   10  C   UNL     1      -9.803   5.634  70.402  1.00  0.00    -0.253 A  
HETATM   11  O   UNL     1      -9.679   3.423  69.589  1.00  0.00    -0.144 OA 
HETATM   12  H   UNL     1     -10.282   3.140  70.267  1.00  0.00     0.000 HD 
HETATM   13  C   UNL     1      -9.460   6.986  70.303  1.00  0.00    -0.165 A  
ENDBRANCH   4   6
TORSDOF 1
ENDMDL
MODEL      180
REMARK 921   NORMALIZED FREE ENERGY PREDICTED BY IDOCK:   -0.61 KCAL/MOL
REMARK 922        TOTAL FREE ENERGY PREDICTED BY IDOCK:   -0.82 KCAL/MOL
REMARK 923 INTER-LIGAND FREE ENERGY PREDICTED BY IDOCK:   -0.65 KCAL/MOL
REMARK 924 INTRA-LIGAND FREE ENERGY PREDICTED BY IDOCK:   -0.17 KCAL/MOL
REMARK 927      BINDING AFFINITY PREDICTED BY RF-SCORE:    0.00 PKD
ROOT
HETATM    1  C   UNL     1      -8.484  18.658  69.748  1.00  0.00     0.991 C  
HETATM    2  C   UNL     1      -7.536  19.213  68.718  1.00  0.00    -0.353 C  
HETATM    3  O   UNL     1      -6.680  20.033  69.031  1.00  0.00    -0.312 OA 
HETATM    4  N   UNL     1      -7.778  18.704  67.454  1.00  0.00    -0.227 N  
HETATM    5  H   UNL     1      -8.531  18.020  67.370  1.00  0.00     0.000 HD 
ENDROOT
BRANCH   4   6
HETATM    6  C   UNL     1      -7.086  19.037  66.270  1.00  0.00    -0.241 A  
HETATM    7  C   UNL     1      -5.830  18.520  65.939  1.00  0.00    -0.218 A  
HETATM    8  C   UNL     1      -5.166  18.940  64.782  1.00  0.00    -0.227 A  
HETATM    9  C   UNL     1      -5.766  19.879  63.952  1.00  0.00    -0.270 A  
HETATM   10  C   UNL     1      -7.032  20.370  64.239  1.00  0.00     0.294 A  
HETATM   11  O   UNL     1      -5.131  20.352  62.844  1.00  0.00    -0.173 OA 
HETATM   12  H   UNL     1      -5.541  20.994  62.276  1.00  0.00     0.000 HD 
HETATM   13  C   UNL     1      -7.697  19.943  65.392  1.00  0.00     0.084 A  
ENDBRANCH   4   6
TORSDOF 1
ENDMDL
