MODEL        1
REMARK 921   NORMALIZED FREE ENERGY PREDICTED BY IDOCK:   -4.32 KCAL/MOL
REMARK 922        TOTAL FREE ENERGY PREDICTED BY IDOCK:   -4.98 KCAL/MOL
REMARK 923 INTER-LIGAND FREE ENERGY PREDICTED BY IDOCK:   -4.82 KCAL/MOL
REMARK 924 INTRA-LIGAND FREE ENERGY PREDICTED BY IDOCK:   -0.16 KCAL/MOL
REMARK 927      BINDING AFFINITY PREDICTED BY RF-SCORE:    0.00 PKD
ROOT
HETATM    1  C   UNK A   0     -12.457  12.015  63.427  1.00  0.00    -0.625 C  
HETATM    2  C   UNK A   0     -12.146  12.868  64.625  1.00  0.00    -0.418 C  
HETATM    3  O   UNK A   0     -12.636  12.668  65.728  1.00  0.00    -0.575 OA 
ATOM      4  N   CYS A   1     -11.358  13.968  64.349  1.00  0.00    -0.533 N  
ATOM      5  H   CYS A   1     -11.103  14.183  63.385  1.00  0.00     0.000 HD 
ENDROOT
BRANCH   4   6
ATOM      6  CA  CYS A   1     -10.883  14.834  65.451  1.00  0.00    -0.363 C  
ATOM      7  O   CYS A   1     -11.469  16.546  63.835  1.00  0.00    -1.145 OA 
ATOM      8  C   CYS A   1     -10.970  16.318  65.072  1.00  0.00    -0.298 C  
ATOM      9  OXT CYS A   1     -10.585  17.227  65.794  1.00  0.00    -0.438 OA 
BRANCH   6  10
ATOM     10  CB  CYS A   1      -9.426  14.544  65.831  1.00  0.00    -0.184 C  
ATOM     11  SG  CYS A   1      -9.304  13.206  67.069  1.00  0.00    -0.243 SA 
ATOM     12  HG  CYS A   1      -7.983  12.943  67.413  1.00  0.00     0.000 H  
ENDBRANCH   6  10
ENDBRANCH   4   6
TORSDOF 2
ENDMDL
MODEL        2
REMARK 921   NORMALIZED FREE ENERGY PREDICTED BY IDOCK:   -4.23 KCAL/MOL
REMARK 922        TOTAL FREE ENERGY PREDICTED BY IDOCK:   -4.89 KCAL/MOL
REMARK 923 INTER-LIGAND FREE ENERGY PREDICTED BY IDOCK:   -4.75 KCAL/MOL
REMARK 924 INTRA-LIGAND FREE ENERGY PREDICTED BY IDOCK:   -0.14 KCAL/MOL
REMARK 927      BINDING AFFINITY PREDICTED BY RF-SCORE:    0.00 PKD
ROOT
HETATM    1  C   UNK A   0     -10.482  16.981  65.906  1.00  0.00    -0.282 C  
HETATM    2  C   UNK A   0     -10.981  16.023  64.860  1.00  0.00    -0.384 C  
HETATM    3  O   UNK A   0     -11.566  16.388  63.849  1.00  0.00    -1.100 OA 
ATOM      4  N   CYS A   1     -10.834  14.691  65.194  1.00  0.00    -0.373 N  
ATOM      5  H   CYS A   1     -10.485  14.433  66.117  1.00  0.00     0.000 HD 
ENDROOT
BRANCH   4   6
ATOM      6  CA  CYS A   1     -11.181  13.638  64.213  1.00  0.00    -0.336 C  
ATOM      7  O   CYS A   1     -13.243  13.675  65.490  1.00  0.00    -0.608 OA 
ATOM      8  C   CYS A   1     -12.593  13.091  64.457  1.00  0.00    -0.320 C  
ATOM      9  OXT CYS A   1     -13.087  12.176  63.813  1.00  0.00    -0.774 OA 
BRANCH   6  10
ATOM     10  CB  CYS A   1     -10.213  12.450  64.271  1.00  0.00    -0.332 C  
ATOM     11  SG  CYS A   1     -10.037  11.803  65.970  1.00  0.00    -0.240 SA 
ATOM     12  HG  CYS A   1      -9.159  10.726  66.022  1.00  0.00     0.000 H  
ENDBRANCH   6  10
ENDBRANCH   4   6
TORSDOF 2
ENDMDL
MODEL        3
REMARK 921   NORMALIZED FREE ENERGY PREDICTED BY IDOCK:   -4.23 KCAL/MOL
REMARK 922        TOTAL FREE ENERGY PREDICTED BY IDOCK:   -4.88 KCAL/MOL
REMARK 923 INTER-LIGAND FREE ENERGY PREDICTED BY IDOCK:   -4.72 KCAL/MOL
REMARK 924 INTRA-LIGAND FREE ENERGY PREDICTED BY IDOCK:   -0.16 KCAL/MOL
REMARK 927      BINDING AFFINITY PREDICTED BY RF-SCORE:    0.00 PKD
ROOT
HETATM    1  C   UNK A   0      -9.076  15.556  66.402  1.00  0.00    -0.351 C  
HETATM    2  C   UNK A   0     -10.051  15.126  65.342  1.00  0.00    -0.350 C  
HETATM    3  O   UNK A   0     -10.782  15.912  64.754  1.00  0.00    -0.559 OA 
ATOM      4  N   CYS A   1     -10.141  13.759  65.173  1.00  0.00    -0.538 N  
ATOM      5  H   CYS A   1      -9.628  13.134  65.795  1.00  0.00     0.000 HD 
ENDROOT
BRANCH   4   6
ATOM      6  CA  CYS A   1     -10.979  13.198  64.090  1.00  0.00    -0.390 C  
ATOM      7  O   CYS A   1     -12.504  12.904  65.953  1.00  0.00    -0.527 OA 
ATOM      8  C   CYS A   1     -12.333  12.714  64.623  1.00  0.00    -0.476 C  
ATOM      9  OXT CYS A   1     -13.178  12.163  63.933  1.00  0.00    -0.748 OA 
BRANCH   6  10
ATOM     10  CB  CYS A   1     -10.309  12.006  63.395  1.00  0.00    -0.434 C  
ATOM     11  SG  CYS A   1      -9.892  10.680  64.579  1.00  0.00    -0.349 SA 
ATOM     12  HG  CYS A   1      -9.285   9.600  63.949  1.00  0.00     0.000 H  
ENDBRANCH   6  10
ENDBRANCH   4   6
TORSDOF 2
ENDMDL
MODEL        4
REMARK 921   NORMALIZED FREE ENERGY PREDICTED BY IDOCK:   -4.14 KCAL/MOL
REMARK 922        TOTAL FREE ENERGY PREDICTED BY IDOCK:   -4.79 KCAL/MOL
REMARK 923 INTER-LIGAND FREE ENERGY PREDICTED BY IDOCK:   -4.76 KCAL/MOL
REMARK 924 INTRA-LIGAND FREE ENERGY PREDICTED BY IDOCK:   -0.02 KCAL/MOL
REMARK 927      BINDING AFFINITY PREDICTED BY RF-SCORE:    0.00 PKD
ROOT
HETATM    1  C   UNK A   0     -12.331  12.307  63.558  1.00  0.00    -0.670 C  
HETATM    2  C   UNK A   0     -12.207  13.403  64.580  1.00  0.00    -0.398 C  
HETATM    3  O   UNK A   0     -13.153  13.797  65.250  1.00  0.00    -0.756 OA 
ATOM      4  N   CYS A   1     -10.968  14.010  64.614  1.00  0.00    -0.463 N  
ATOM      5  H   CYS A   1     -10.257  13.756  63.928  1.00  0.00     0.000 HD 
ENDROOT
BRANCH   4   6
ATOM      6  CA  CYS A   1     -10.670  15.030  65.644  1.00  0.00    -0.354 C  
ATOM      7  O   CYS A   1     -11.495  16.484  63.887  1.00  0.00    -1.145 OA 
ATOM      8  C   CYS A   1     -10.994  16.443  65.144  1.00  0.00    -0.232 C  
ATOM      9  OXT CYS A   1     -10.782  17.458  65.792  1.00  0.00    -0.361 OA 
BRANCH   6  10
ATOM     10  CB  CYS A   1      -9.193  15.019  66.061  1.00  0.00    -0.210 C  
ATOM     11  SG  CYS A   1      -9.001  15.125  67.874  1.00  0.00    -0.177 SA 
ATOM     12  HG  CYS A   1      -7.663  15.116  68.251  1.00  0.00     0.000 H  
ENDBRANCH   6  10
ENDBRANCH   4   6
TORSDOF 2
ENDMDL
MODEL        5
REMARK 921   NORMALIZED FREE ENERGY PREDICTED BY IDOCK:   -4.12 KCAL/MOL
REMARK 922        TOTAL FREE ENERGY PREDICTED BY IDOCK:   -4.77 KCAL/MOL
REMARK 923 INTER-LIGAND FREE ENERGY PREDICTED BY IDOCK:   -4.59 KCAL/MOL
REMARK 924 INTRA-LIGAND FREE ENERGY PREDICTED BY IDOCK:   -0.18 KCAL/MOL
REMARK 927      BINDING AFFINITY PREDICTED BY RF-SCORE:    0.00 PKD
ROOT
HETATM    1  C   UNK A   0     -11.744  12.146  69.369  1.00  0.00    -0.391 C  
HETATM    2  C   UNK A   0     -11.817  13.365  68.492  1.00  0.00    -0.366 C  
HETATM    3  O   UNK A   0     -11.938  14.498  68.939  1.00  0.00    -0.315 OA 
ATOM      4  N   CYS A   1     -11.858  13.091  67.140  1.00  0.00    -0.379 N  
ATOM      5  H   CYS A   1     -11.914  12.124  66.818  1.00  0.00     0.000 HD 
ENDROOT
BRANCH   4   6
ATOM      6  CA  CYS A   1     -11.820  14.197  66.157  1.00  0.00    -0.407 C  
ATOM      7  O   CYS A   1     -13.065  12.568  64.862  1.00  0.00    -0.833 OA 
ATOM      8  C   CYS A   1     -12.534  13.813  64.856  1.00  0.00    -0.386 C  
ATOM      9  OXT CYS A   1     -12.591  14.537  63.872  1.00  0.00    -0.827 OA 
BRANCH   6  10
ATOM     10  CB  CYS A   1     -10.385  14.598  65.791  1.00  0.00    -0.332 C  
ATOM     11  SG  CYS A   1     -10.116  16.395  65.982  1.00  0.00    -0.355 SA 
ATOM     12  HG  CYS A   1      -8.817  16.758  65.650  1.00  0.00     0.000 H  
ENDBRANCH   6  10
ENDBRANCH   4   6
TORSDOF 2
ENDMDL
MODEL        6
REMARK 921   NORMALIZED FREE ENERGY PREDICTED BY IDOCK:   -4.08 KCAL/MOL
REMARK 922        TOTAL FREE ENERGY PREDICTED BY IDOCK:   -4.72 KCAL/MOL
REMARK 923 INTER-LIGAND FREE ENERGY PREDICTED BY IDOCK:   -4.58 KCAL/MOL
REMARK 924 INTRA-LIGAND FREE ENERGY PREDICTED BY IDOCK:   -0.14 KCAL/MOL
REMARK 927      BINDING AFFINITY PREDICTED BY RF-SCORE:    0.00 PKD
ROOT
HETATM    1  C   UNK A   0      -9.944  20.018  66.642  1.00  0.00    -0.598 C  
HETATM    2  C   UNK A   0      -9.523  18.601  66.367  1.00  0.00    -0.311 C  
HETATM    3  O   UNK A   0      -8.375  18.294  66.074  1.00  0.00    -0.486 OA 
ATOM      4  N   CYS A   1     -10.562  17.693  66.352  1.00  0.00    -0.267 N  
ATOM      5  H   CYS A   1     -11.525  18.018  66.445  1.00  0.00     0.000 HD 
ENDROOT
BRANCH   4   6
ATOM      6  CA  CYS A   1     -10.282  16.247  66.201  1.00  0.00    -0.346 C  
ATOM      7  O   CYS A   1     -11.408  16.646  64.091  1.00  0.00    -1.141 OA 
ATOM      8  C   CYS A   1     -10.812  15.710  64.866  1.00  0.00    -0.418 C  
ATOM      9  OXT CYS A   1     -10.750  14.535  64.534  1.00  0.00    -0.356 OA 
BRANCH   6  10
ATOM     10  CB  CYS A   1     -10.923  15.412  67.317  1.00  0.00    -0.317 C  
ATOM     11  SG  CYS A   1     -10.786  16.236  68.942  1.00  0.00    -0.338 SA 
ATOM     12  HG  CYS A   1     -11.368  15.479  69.953  1.00  0.00     0.000 H  
ENDBRANCH   6  10
ENDBRANCH   4   6
TORSDOF 2
ENDMDL
MODEL        7
REMARK 921   NORMALIZED FREE ENERGY PREDICTED BY IDOCK:   -4.06 KCAL/MOL
REMARK 922        TOTAL FREE ENERGY PREDICTED BY IDOCK:   -4.70 KCAL/MOL
REMARK 923 INTER-LIGAND FREE ENERGY PREDICTED BY IDOCK:   -4.52 KCAL/MOL
REMARK 924 INTRA-LIGAND FREE ENERGY PREDICTED BY IDOCK:   -0.18 KCAL/MOL
REMARK 927      BINDING AFFINITY PREDICTED BY RF-SCORE:    0.00 PKD
ROOT
HETATM    1  C   UNK A   0     -10.844  14.572  64.840  1.00  0.00    -0.436 C  
HETATM    2  C   UNK A   0     -10.825  16.059  65.057  1.00  0.00    -0.404 C  
HETATM    3  O   UNK A   0     -11.325  16.852  64.271  1.00  0.00    -1.202 OA 
ATOM      4  N   CYS A   1     -10.091  16.463  66.155  1.00  0.00    -0.328 N  
ATOM      5  H   CYS A   1      -9.559  15.778  66.692  1.00  0.00     0.000 HD 
ENDROOT
BRANCH   4   6
ATOM      6  CA  CYS A   1     -10.075  17.889  66.553  1.00  0.00    -0.370 C  
ATOM      7  O   CYS A   1      -7.755  17.645  65.890  1.00  0.00    -0.508 OA 
ATOM      8  C   CYS A   1      -8.681  18.503  66.379  1.00  0.00    -0.260 C  
ATOM      9  OXT CYS A   1      -8.400  19.651  66.692  1.00  0.00    -0.289 OA 
BRANCH   6  10
ATOM     10  CB  CYS A   1     -10.483  18.087  68.018  1.00  0.00    -0.375 C  
ATOM     11  SG  CYS A   1     -10.578  16.498  68.915  1.00  0.00    -0.348 SA 
ATOM     12  HG  CYS A   1     -10.948  16.678  70.243  1.00  0.00     0.000 H  
ENDBRANCH   6  10
ENDBRANCH   4   6
TORSDOF 2
ENDMDL
MODEL        8
REMARK 921   NORMALIZED FREE ENERGY PREDICTED BY IDOCK:   -3.96 KCAL/MOL
REMARK 922        TOTAL FREE ENERGY PREDICTED BY IDOCK:   -4.59 KCAL/MOL
REMARK 923 INTER-LIGAND FREE ENERGY PREDICTED BY IDOCK:   -4.42 KCAL/MOL
REMARK 924 INTRA-LIGAND FREE ENERGY PREDICTED BY IDOCK:   -0.17 KCAL/MOL
REMARK 927      BINDING AFFINITY PREDICTED BY RF-SCORE:    0.00 PKD
ROOT
HETATM    1  C   UNK A   0      -8.800  11.052  62.424  1.00  0.00    -0.358 C  
HETATM    2  C   UNK A   0      -9.673  11.278  63.627  1.00  0.00    -0.321 C  
HETATM    3  O   UNK A   0     -10.050  10.369  64.355  1.00  0.00    -0.343 OA 
ATOM      4  N   CYS A   1     -10.115  12.577  63.771  1.00  0.00    -0.555 N  
ATOM      5  H   CYS A   1      -9.906  13.270  63.051  1.00  0.00     0.000 HD 
ENDROOT
BRANCH   4   6
ATOM      6  CA  CYS A   1     -10.892  12.968  64.968  1.00  0.00    -0.308 C  
ATOM      7  O   CYS A   1     -12.486  13.594  63.250  1.00  0.00    -0.801 OA 
ATOM      8  C   CYS A   1     -12.254  13.559  64.583  1.00  0.00    -0.406 C  
ATOM      9  OXT CYS A   1     -13.055  14.005  65.393  1.00  0.00    -0.763 OA 
BRANCH   6  10
ATOM     10  CB  CYS A   1     -10.162  14.017  65.818  1.00  0.00    -0.328 C  
ATOM     11  SG  CYS A   1      -9.332  13.262  67.258  1.00  0.00    -0.235 SA 
ATOM     12  HG  CYS A   1      -8.670  14.212  68.027  1.00  0.00     0.000 H  
ENDBRANCH   6  10
ENDBRANCH   4   6
TORSDOF 2
ENDMDL
MODEL        9
REMARK 921   NORMALIZED FREE ENERGY PREDICTED BY IDOCK:   -3.88 KCAL/MOL
REMARK 922        TOTAL FREE ENERGY PREDICTED BY IDOCK:   -4.50 KCAL/MOL
REMARK 923 INTER-LIGAND FREE ENERGY PREDICTED BY IDOCK:   -4.31 KCAL/MOL
REMARK 924 INTRA-LIGAND FREE ENERGY PREDICTED BY IDOCK:   -0.19 KCAL/MOL
REMARK 927      BINDING AFFINITY PREDICTED BY RF-SCORE:    0.00 PKD
ROOT
HETATM    1  C   UNK A   0     -11.253  11.172  67.294  1.00  0.00    -0.347 C  
HETATM    2  C   UNK A   0     -11.557  12.642  67.209  1.00  0.00    -0.364 C  
HETATM    3  O   UNK A   0     -11.962  13.292  68.163  1.00  0.00    -0.344 OA 
ATOM      4  N   CYS A   1     -11.459  13.170  65.938  1.00  0.00    -0.322 N  
ATOM      5  H   CYS A   1     -11.272  12.556  65.144  1.00  0.00     0.000 HD 
ENDROOT
BRANCH   4   6
ATOM      6  CA  CYS A   1     -11.624  14.625  65.724  1.00  0.00    -0.328 C  
ATOM      7  O   CYS A   1     -12.478  13.821  63.601  1.00  0.00    -0.718 OA 
ATOM      8  C   CYS A   1     -12.213  14.924  64.340  1.00  0.00    -0.381 C  
ATOM      9  OXT CYS A   1     -12.392  16.053  63.907  1.00  0.00    -0.855 OA 
BRANCH   6  10
ATOM     10  CB  CYS A   1     -10.293  15.381  65.828  1.00  0.00    -0.361 C  
ATOM     11  SG  CYS A   1     -10.359  16.693  67.097  1.00  0.00    -0.289 SA 
ATOM     12  HG  CYS A   1      -9.153  17.378  67.191  1.00  0.00     0.000 H  
ENDBRANCH   6  10
ENDBRANCH   4   6
TORSDOF 2
ENDMDL
MODEL       10
REMARK 921   NORMALIZED FREE ENERGY PREDICTED BY IDOCK:   -3.87 KCAL/MOL
REMARK 922        TOTAL FREE ENERGY PREDICTED BY IDOCK:   -4.48 KCAL/MOL
REMARK 923 INTER-LIGAND FREE ENERGY PREDICTED BY IDOCK:   -4.36 KCAL/MOL
REMARK 924 INTRA-LIGAND FREE ENERGY PREDICTED BY IDOCK:   -0.13 KCAL/MOL
REMARK 927      BINDING AFFINITY PREDICTED BY RF-SCORE:    0.00 PKD
ROOT
HETATM    1  C   UNK A   0     -10.161  10.195  67.329  1.00  0.00    -0.254 C  
HETATM    2  C   UNK A   0     -11.217  11.234  67.074  1.00  0.00    -0.255 C  
HETATM    3  O   UNK A   0     -12.161  11.421  67.831  1.00  0.00    -0.646 OA 
ATOM      4  N   CYS A   1     -11.102  11.874  65.857  1.00  0.00    -0.312 N  
ATOM      5  H   CYS A   1     -10.391  11.574  65.189  1.00  0.00     0.000 HD 
ENDROOT
BRANCH   4   6
ATOM      6  CA  CYS A   1     -12.007  12.995  65.520  1.00  0.00    -0.424 C  
ATOM      7  O   CYS A   1     -11.209  12.457  63.294  1.00  0.00    -0.441 OA 
ATOM      8  C   CYS A   1     -12.008  13.280  64.013  1.00  0.00    -0.465 C  
ATOM      9  OXT CYS A   1     -12.634  14.193  63.494  1.00  0.00    -0.834 OA 
BRANCH   6  10
ATOM     10  CB  CYS A   1     -11.610  14.296  66.230  1.00  0.00    -0.372 C  
ATOM     11  SG  CYS A   1      -9.919  14.821  65.785  1.00  0.00    -0.354 SA 
ATOM     12  HG  CYS A   1      -9.560  16.000  66.429  1.00  0.00     0.000 H  
ENDBRANCH   6  10
ENDBRANCH   4   6
TORSDOF 2
ENDMDL
MODEL       11
REMARK 921   NORMALIZED FREE ENERGY PREDICTED BY IDOCK:   -3.76 KCAL/MOL
REMARK 922        TOTAL FREE ENERGY PREDICTED BY IDOCK:   -4.36 KCAL/MOL
REMARK 923 INTER-LIGAND FREE ENERGY PREDICTED BY IDOCK:   -4.18 KCAL/MOL
REMARK 924 INTRA-LIGAND FREE ENERGY PREDICTED BY IDOCK:   -0.18 KCAL/MOL
REMARK 927      BINDING AFFINITY PREDICTED BY RF-SCORE:    0.00 PKD
ROOT
HETATM    1  C   UNK A   0      -8.977  17.575  66.869  1.00  0.00    -0.264 C  
HETATM    2  C   UNK A   0      -9.399  16.207  66.410  1.00  0.00    -0.298 C  
HETATM    3  O   UNK A   0      -8.631  15.255  66.364  1.00  0.00    -0.276 OA 
ATOM      4  N   CYS A   1     -10.691  16.143  65.930  1.00  0.00    -0.292 N  
ATOM      5  H   CYS A   1     -11.244  16.995  65.839  1.00  0.00     0.000 HD 
ENDROOT
BRANCH   4   6
ATOM      6  CA  CYS A   1     -11.277  14.838  65.546  1.00  0.00    -0.346 C  
ATOM      7  O   CYS A   1     -12.154  16.202  63.743  1.00  0.00    -0.946 OA 
ATOM      8  C   CYS A   1     -12.120  14.956  64.271  1.00  0.00    -0.353 C  
ATOM      9  OXT CYS A   1     -12.750  14.028  63.785  1.00  0.00    -0.734 OA 
BRANCH   6  10
ATOM     10  CB  CYS A   1     -12.183  14.264  66.643  1.00  0.00    -0.381 C  
ATOM     11  SG  CYS A   1     -11.263  13.162  67.772  1.00  0.00    -0.294 SA 
ATOM     12  HG  CYS A   1     -12.085  12.641  68.765  1.00  0.00     0.000 H  
ENDBRANCH   6  10
ENDBRANCH   4   6
TORSDOF 2
ENDMDL
MODEL       12
REMARK 921   NORMALIZED FREE ENERGY PREDICTED BY IDOCK:   -3.69 KCAL/MOL
REMARK 922        TOTAL FREE ENERGY PREDICTED BY IDOCK:   -4.28 KCAL/MOL
REMARK 923 INTER-LIGAND FREE ENERGY PREDICTED BY IDOCK:   -4.15 KCAL/MOL
REMARK 924 INTRA-LIGAND FREE ENERGY PREDICTED BY IDOCK:   -0.13 KCAL/MOL
REMARK 927      BINDING AFFINITY PREDICTED BY RF-SCORE:    0.00 PKD
ROOT
HETATM    1  C   UNK A   0     -11.717  13.093  69.499  1.00  0.00    -0.382 C  
HETATM    2  C   UNK A   0     -11.773  14.176  68.457  1.00  0.00    -0.345 C  
HETATM    3  O   UNK A   0     -12.104  15.326  68.712  1.00  0.00    -0.273 OA 
ATOM      4  N   CYS A   1     -11.537  13.739  67.170  1.00  0.00    -0.343 N  
ATOM      5  H   CYS A   1     -11.421  12.742  66.984  1.00  0.00     0.000 HD 
ENDROOT
BRANCH   4   6
ATOM      6  CA  CYS A   1     -11.453  14.713  66.059  1.00  0.00    -0.332 C  
ATOM      7  O   CYS A   1     -13.222  13.294  65.198  1.00  0.00    -0.658 OA 
ATOM      8  C   CYS A   1     -12.457  14.382  64.947  1.00  0.00    -0.357 C  
ATOM      9  OXT CYS A   1     -12.542  15.008  63.900  1.00  0.00    -0.813 OA 
BRANCH   6  10
ATOM     10  CB  CYS A   1     -10.059  14.746  65.420  1.00  0.00    -0.374 C  
ATOM     11  SG  CYS A   1      -8.775  15.232  66.625  1.00  0.00    -0.272 SA 
ATOM     12  HG  CYS A   1      -7.511  15.262  66.046  1.00  0.00     0.000 H  
ENDBRANCH   6  10
ENDBRANCH   4   6
TORSDOF 2
ENDMDL
MODEL       13
REMARK 921   NORMALIZED FREE ENERGY PREDICTED BY IDOCK:   -3.69 KCAL/MOL
REMARK 922        TOTAL FREE ENERGY PREDICTED BY IDOCK:   -4.28 KCAL/MOL
REMARK 923 INTER-LIGAND FREE ENERGY PREDICTED BY IDOCK:   -4.10 KCAL/MOL
REMARK 924 INTRA-LIGAND FREE ENERGY PREDICTED BY IDOCK:   -0.18 KCAL/MOL
REMARK 927      BINDING AFFINITY PREDICTED BY RF-SCORE:    0.00 PKD
ROOT
HETATM    1  C   UNK A   0     -11.093  13.478  68.405  1.00  0.00    -0.298 C  
HETATM    2  C   UNK A   0     -11.585  12.101  68.754  1.00  0.00    -0.327 C  
HETATM    3  O   UNK A   0     -12.013  11.318  67.917  1.00  0.00    -0.630 OA 
ATOM      4  N   CYS A   1     -11.626  11.839  70.108  1.00  0.00    -0.508 N  
ATOM      5  H   CYS A   1     -11.409  12.579  70.777  1.00  0.00     0.000 HD 
ENDROOT
BRANCH   4   6
ATOM      6  CA  CYS A   1     -11.986  10.488  70.592  1.00  0.00    -0.357 C  
ATOM      7  O   CYS A   1     -13.290  11.816  72.147  1.00  0.00    -0.497 OA 
ATOM      8  C   CYS A   1     -12.948  10.557  71.784  1.00  0.00    -0.476 C  
ATOM      9  OXT CYS A   1     -13.348   9.575  72.393  1.00  0.00    -0.446 OA 
BRANCH   6  10
ATOM     10  CB  CYS A   1     -10.757   9.686  71.042  1.00  0.00    -0.323 C  
ATOM     11  SG  CYS A   1     -10.468   8.234  69.973  1.00  0.00    -0.233 SA 
ATOM     12  HG  CYS A   1      -9.355   7.508  70.381  1.00  0.00     0.000 H  
ENDBRANCH   6  10
ENDBRANCH   4   6
TORSDOF 2
ENDMDL
MODEL       14
REMARK 921   NORMALIZED FREE ENERGY PREDICTED BY IDOCK:   -3.67 KCAL/MOL
REMARK 922        TOTAL FREE ENERGY PREDICTED BY IDOCK:   -4.27 KCAL/MOL
REMARK 923 INTER-LIGAND FREE ENERGY PREDICTED BY IDOCK:   -4.13 KCAL/MOL
REMARK 924 INTRA-LIGAND FREE ENERGY PREDICTED BY IDOCK:   -0.13 KCAL/MOL
REMARK 927      BINDING AFFINITY PREDICTED BY RF-SCORE:    0.00 PKD
ROOT
HETATM    1  C   UNK A   0     -12.333  15.431  74.335  1.00  0.00    -0.766 C  
HETATM    2  C   UNK A   0     -12.627  15.488  72.861  1.00  0.00    -0.428 C  
HETATM    3  O   UNK A   0     -13.719  15.812  72.414  1.00  0.00    -0.504 OA 
ATOM      4  N   CYS A   1     -11.601  15.029  72.060  1.00  0.00    -0.444 N  
ATOM      5  H   CYS A   1     -10.768  14.620  72.483  1.00  0.00     0.000 HD 
ENDROOT
BRANCH   4   6
ATOM      6  CA  CYS A   1     -11.709  15.129  70.587  1.00  0.00    -0.312 C  
ATOM      7  O   CYS A   1     -12.195  12.768  70.853  1.00  0.00    -0.349 OA 
ATOM      8  C   CYS A   1     -12.048  13.772  69.957  1.00  0.00    -0.349 C  
ATOM      9  OXT CYS A   1     -12.136  13.585  68.752  1.00  0.00    -0.344 OA 
BRANCH   6  10
ATOM     10  CB  CYS A   1     -10.407  15.621  69.942  1.00  0.00    -0.315 C  
ATOM     11  SG  CYS A   1     -10.720  16.908  68.684  1.00  0.00    -0.322 SA 
ATOM     12  HG  CYS A   1      -9.540  17.353  68.099  1.00  0.00     0.000 H  
ENDBRANCH   6  10
ENDBRANCH   4   6
TORSDOF 2
ENDMDL
MODEL       15
REMARK 921   NORMALIZED FREE ENERGY PREDICTED BY IDOCK:   -3.67 KCAL/MOL
REMARK 922        TOTAL FREE ENERGY PREDICTED BY IDOCK:   -4.26 KCAL/MOL
REMARK 923 INTER-LIGAND FREE ENERGY PREDICTED BY IDOCK:   -4.12 KCAL/MOL
REMARK 924 INTRA-LIGAND FREE ENERGY PREDICTED BY IDOCK:   -0.13 KCAL/MOL
REMARK 927      BINDING AFFINITY PREDICTED BY RF-SCORE:    0.00 PKD
ROOT
HETATM    1  C   UNK A   0     -11.858  12.549  63.377  1.00  0.00    -0.587 C  
HETATM    2  C   UNK A   0     -12.089  13.700  64.316  1.00  0.00    -0.434 C  
HETATM    3  O   UNK A   0     -12.644  14.736  63.973  1.00  0.00    -0.822 OA 
ATOM      4  N   CYS A   1     -11.515  13.541  65.561  1.00  0.00    -0.301 N  
ATOM      5  H   CYS A   1     -10.926  12.730  65.750  1.00  0.00     0.000 HD 
ENDROOT
BRANCH   4   6
ATOM      6  CA  CYS A   1     -11.753  14.546  66.621  1.00  0.00    -0.371 C  
ATOM      7  O   CYS A   1      -9.566  15.282  65.872  1.00  0.00    -0.313 OA 
ATOM      8  C   CYS A   1     -10.572  15.517  66.748  1.00  0.00    -0.307 C  
ATOM      9  OXT CYS A   1     -10.507  16.402  67.588  1.00  0.00    -0.288 OA 
BRANCH   6  10
ATOM     10  CB  CYS A   1     -11.963  13.900  67.997  1.00  0.00    -0.355 C  
ATOM     11  SG  CYS A   1     -11.579  12.115  67.971  1.00  0.00    -0.349 SA 
ATOM     12  HG  CYS A   1     -11.770  11.529  69.217  1.00  0.00     0.000 H  
ENDBRANCH   6  10
ENDBRANCH   4   6
TORSDOF 2
ENDMDL
MODEL       16
REMARK 921   NORMALIZED FREE ENERGY PREDICTED BY IDOCK:   -3.66 KCAL/MOL
REMARK 922        TOTAL FREE ENERGY PREDICTED BY IDOCK:   -4.25 KCAL/MOL
REMARK 923 INTER-LIGAND FREE ENERGY PREDICTED BY IDOCK:   -4.04 KCAL/MOL
REMARK 924 INTRA-LIGAND FREE ENERGY PREDICTED BY IDOCK:   -0.20 KCAL/MOL
REMARK 927      BINDING AFFINITY PREDICTED BY RF-SCORE:    0.00 PKD
ROOT
HETATM    1  C   UNK A   0     -10.873  16.421  68.155  1.00  0.00    -0.346 C  
HETATM    2  C   UNK A   0     -10.713  15.943  66.739  1.00  0.00    -0.281 C  
HETATM    3  O   UNK A   0     -10.306  16.662  65.836  1.00  0.00    -0.342 OA 
ATOM      4  N   CYS A   1     -11.180  14.663  66.516  1.00  0.00    -0.341 N  
ATOM      5  H   CYS A   1     -11.657  14.157  67.263  1.00  0.00     0.000 HD 
ENDROOT
BRANCH   4   6
ATOM      6  CA  CYS A   1     -10.988  14.023  65.195  1.00  0.00    -0.353 C  
ATOM      7  O   CYS A   1     -13.410  14.147  65.218  1.00  0.00    -0.715 OA 
ATOM      8  C   CYS A   1     -12.330  13.746  64.507  1.00  0.00    -0.358 C  
ATOM      9  OXT CYS A   1     -12.437  13.175  63.431  1.00  0.00    -0.730 OA 
BRANCH   6  10
ATOM     10  CB  CYS A   1     -10.244  12.685  65.301  1.00  0.00    -0.284 C  
ATOM     11  SG  CYS A   1     -10.906  11.648  66.651  1.00  0.00    -0.293 SA 
ATOM     12  HG  CYS A   1     -10.231  10.436  66.747  1.00  0.00     0.000 H  
ENDBRANCH   6  10
ENDBRANCH   4   6
TORSDOF 2
ENDMDL
MODEL       17
REMARK 921   NORMALIZED FREE ENERGY PREDICTED BY IDOCK:   -3.65 KCAL/MOL
REMARK 922        TOTAL FREE ENERGY PREDICTED BY IDOCK:   -4.24 KCAL/MOL
REMARK 923 INTER-LIGAND FREE ENERGY PREDICTED BY IDOCK:   -4.05 KCAL/MOL
REMARK 924 INTRA-LIGAND FREE ENERGY PREDICTED BY IDOCK:   -0.19 KCAL/MOL
REMARK 927      BINDING AFFINITY PREDICTED BY RF-SCORE:    0.00 PKD
ROOT
HETATM    1  C   UNK A   0     -12.503  12.102  63.694  1.00  0.00    -0.658 C  
HETATM    2  C   UNK A   0     -12.563  12.881  64.979  1.00  0.00    -0.472 C  
HETATM    3  O   UNK A   0     -13.285  13.857  65.131  1.00  0.00    -0.768 OA 
ATOM      4  N   CYS A   1     -11.647  12.478  65.929  1.00  0.00    -0.384 N  
ATOM      5  H   CYS A   1     -10.956  11.762  65.701  1.00  0.00     0.000 HD 
ENDROOT
BRANCH   4   6
ATOM      6  CA  CYS A   1     -11.665  13.082  67.280  1.00  0.00    -0.375 C  
ATOM      7  O   CYS A   1      -9.521  13.915  66.512  1.00  0.00    -0.276 OA 
ATOM      8  C   CYS A   1     -10.392  13.894  67.548  1.00  0.00    -0.245 C  
ATOM      9  OXT CYS A   1     -10.148  14.444  68.612  1.00  0.00    -0.233 OA 
BRANCH   6  10
ATOM     10  CB  CYS A   1     -11.775  12.026  68.388  1.00  0.00    -0.332 C  
ATOM     11  SG  CYS A   1     -10.913  10.481  67.936  1.00  0.00    -0.306 SA 
ATOM     12  HG  CYS A   1     -11.013   9.524  68.939  1.00  0.00     0.000 H  
ENDBRANCH   6  10
ENDBRANCH   4   6
TORSDOF 2
ENDMDL
MODEL       18
REMARK 921   NORMALIZED FREE ENERGY PREDICTED BY IDOCK:   -3.63 KCAL/MOL
REMARK 922        TOTAL FREE ENERGY PREDICTED BY IDOCK:   -4.22 KCAL/MOL
REMARK 923 INTER-LIGAND FREE ENERGY PREDICTED BY IDOCK:   -4.03 KCAL/MOL
REMARK 924 INTRA-LIGAND FREE ENERGY PREDICTED BY IDOCK:   -0.19 KCAL/MOL
REMARK 927      BINDING AFFINITY PREDICTED BY RF-SCORE:    0.00 PKD
ROOT
HETATM    1  C   UNK A   0     -12.032  14.081  69.907  1.00  0.00    -0.399 C  
HETATM    2  C   UNK A   0     -11.681  14.835  68.654  1.00  0.00    -0.325 C  
HETATM    3  O   UNK A   0     -11.327  16.006  68.660  1.00  0.00    -0.349 OA 
ATOM      4  N   CYS A   1     -11.909  14.133  67.487  1.00  0.00    -0.387 N  
ATOM      5  H   CYS A   1     -12.354  13.216  67.523  1.00  0.00     0.000 HD 
ENDROOT
BRANCH   4   6
ATOM      6  CA  CYS A   1     -11.508  14.709  66.184  1.00  0.00    -0.339 C  
ATOM      7  O   CYS A   1     -13.658  13.783  65.553  1.00  0.00    -0.511 OA 
ATOM      8  C   CYS A   1     -12.572  14.457  65.109  1.00  0.00    -0.315 C  
ATOM      9  OXT CYS A   1     -12.447  14.788  63.939  1.00  0.00    -0.811 OA 
BRANCH   6  10
ATOM     10  CB  CYS A   1     -10.188  14.119  65.670  1.00  0.00    -0.339 C  
ATOM     11  SG  CYS A   1      -9.970  12.385  66.201  1.00  0.00    -0.255 SA 
ATOM     12  HG  CYS A   1      -8.775  11.851  65.735  1.00  0.00     0.000 H  
ENDBRANCH   6  10
ENDBRANCH   4   6
TORSDOF 2
ENDMDL
MODEL       19
REMARK 921   NORMALIZED FREE ENERGY PREDICTED BY IDOCK:   -3.63 KCAL/MOL
REMARK 922        TOTAL FREE ENERGY PREDICTED BY IDOCK:   -4.22 KCAL/MOL
REMARK 923 INTER-LIGAND FREE ENERGY PREDICTED BY IDOCK:   -4.02 KCAL/MOL
REMARK 924 INTRA-LIGAND FREE ENERGY PREDICTED BY IDOCK:   -0.20 KCAL/MOL
REMARK 927      BINDING AFFINITY PREDICTED BY RF-SCORE:    0.00 PKD
ROOT
HETATM    1  C   UNK A   0     -11.760  11.893  68.797  1.00  0.00    -0.379 C  
HETATM    2  C   UNK A   0     -11.655  12.910  67.695  1.00  0.00    -0.355 C  
HETATM    3  O   UNK A   0     -11.780  14.112  67.887  1.00  0.00    -0.326 OA 
ATOM      4  N   CYS A   1     -11.526  12.368  66.432  1.00  0.00    -0.352 N  
ATOM      5  H   CYS A   1     -11.585  11.358  66.303  1.00  0.00     0.000 HD 
ENDROOT
BRANCH   4   6
ATOM      6  CA  CYS A   1     -11.303  13.251  65.266  1.00  0.00    -0.295 C  
ATOM      7  O   CYS A   1     -13.523  12.439  64.720  1.00  0.00    -0.600 OA 
ATOM      8  C   CYS A   1     -12.504  13.231  64.311  1.00  0.00    -0.269 C  
ATOM      9  OXT CYS A   1     -12.538  13.836  63.249  1.00  0.00    -0.830 OA 
BRANCH   6  10
ATOM     10  CB  CYS A   1     -10.068  12.839  64.454  1.00  0.00    -0.249 C  
ATOM     11  SG  CYS A   1     -10.006  11.034  64.184  1.00  0.00    -0.359 SA 
ATOM     12  HG  CYS A   1      -8.887  10.662  63.449  1.00  0.00     0.000 H  
ENDBRANCH   6  10
ENDBRANCH   4   6
TORSDOF 2
ENDMDL
MODEL       20
REMARK 921   NORMALIZED FREE ENERGY PREDICTED BY IDOCK:   -3.61 KCAL/MOL
REMARK 922        TOTAL FREE ENERGY PREDICTED BY IDOCK:   -4.20 KCAL/MOL
REMARK 923 INTER-LIGAND FREE ENERGY PREDICTED BY IDOCK:   -4.01 KCAL/MOL
REMARK 924 INTRA-LIGAND FREE ENERGY PREDICTED BY IDOCK:   -0.19 KCAL/MOL
REMARK 927      BINDING AFFINITY PREDICTED BY RF-SCORE:    0.00 PKD
ROOT
HETATM    1  C   UNK A   0     -12.620  15.246  73.190  1.00  0.00    -0.577 C  
HETATM    2  C   UNK A   0     -12.833  15.049  71.715  1.00  0.00    -0.338 C  
HETATM    3  O   UNK A   0     -13.726  15.607  71.093  1.00  0.00    -0.591 OA 
ATOM      4  N   CYS A   1     -12.015  14.094  71.146  1.00  0.00    -0.469 N  
ATOM      5  H   CYS A   1     -11.393  13.540  71.735  1.00  0.00     0.000 HD 
ENDROOT
BRANCH   4   6
ATOM      6  CA  CYS A   1     -12.040  13.873  69.683  1.00  0.00    -0.349 C  
ATOM      7  O   CYS A   1     -12.010  11.564  70.424  1.00  0.00    -0.349 OA 
ATOM      8  C   CYS A   1     -12.025  12.377  69.343  1.00  0.00    -0.260 C  
ATOM      9  OXT CYS A   1     -11.986  11.941  68.201  1.00  0.00    -0.496 OA 
BRANCH   6  10
ATOM     10  CB  CYS A   1     -10.837  14.514  68.979  1.00  0.00    -0.254 C  
ATOM     11  SG  CYS A   1     -11.218  16.199  68.387  1.00  0.00    -0.330 SA 
ATOM     12  HG  CYS A   1     -10.128  16.779  67.749  1.00  0.00     0.000 H  
ENDBRANCH   6  10
ENDBRANCH   4   6
TORSDOF 2
ENDMDL
MODEL       21
REMARK 921   NORMALIZED FREE ENERGY PREDICTED BY IDOCK:   -3.56 KCAL/MOL
REMARK 922        TOTAL FREE ENERGY PREDICTED BY IDOCK:   -4.13 KCAL/MOL
REMARK 923 INTER-LIGAND FREE ENERGY PREDICTED BY IDOCK:   -3.98 KCAL/MOL
REMARK 924 INTRA-LIGAND FREE ENERGY PREDICTED BY IDOCK:   -0.16 KCAL/MOL
REMARK 927      BINDING AFFINITY PREDICTED BY RF-SCORE:    0.00 PKD
ROOT
HETATM    1  C   UNK A   0     -10.214   9.697  67.034  1.00  0.00    -0.308 C  
HETATM    2  C   UNK A   0     -11.098  10.893  67.256  1.00  0.00    -0.283 C  
HETATM    3  O   UNK A   0     -11.958  10.931  68.125  1.00  0.00    -0.581 OA 
ATOM      4  N   CYS A   1     -10.941  11.896  66.320  1.00  0.00    -0.290 N  
ATOM      5  H   CYS A   1     -10.324  11.754  65.520  1.00  0.00     0.000 HD 
ENDROOT
BRANCH   4   6
ATOM      6  CA  CYS A   1     -11.667  13.176  66.477  1.00  0.00    -0.382 C  
ATOM      7  O   CYS A   1     -12.814  12.316  64.521  1.00  0.00    -0.654 OA 
ATOM      8  C   CYS A   1     -12.732  13.352  65.388  1.00  0.00    -0.426 C  
ATOM      9  OXT CYS A   1     -13.426  14.352  65.271  1.00  0.00    -0.483 OA 
BRANCH   6  10
ATOM     10  CB  CYS A   1     -10.729  14.388  66.399  1.00  0.00    -0.306 C  
ATOM     11  SG  CYS A   1     -10.542  15.204  68.022  1.00  0.00    -0.264 SA 
ATOM     12  HG  CYS A   1      -9.692  16.302  67.951  1.00  0.00     0.000 H  
ENDBRANCH   6  10
ENDBRANCH   4   6
TORSDOF 2
ENDMDL
MODEL       22
REMARK 921   NORMALIZED FREE ENERGY PREDICTED BY IDOCK:   -3.54 KCAL/MOL
REMARK 922        TOTAL FREE ENERGY PREDICTED BY IDOCK:   -4.12 KCAL/MOL
REMARK 923 INTER-LIGAND FREE ENERGY PREDICTED BY IDOCK:   -3.93 KCAL/MOL
REMARK 924 INTRA-LIGAND FREE ENERGY PREDICTED BY IDOCK:   -0.19 KCAL/MOL
REMARK 927      BINDING AFFINITY PREDICTED BY RF-SCORE:    0.00 PKD
ROOT
HETATM    1  C   UNK A   0     -12.610  12.000  63.247  1.00  0.00    -0.512 C  
HETATM    2  C   UNK A   0     -11.590  12.517  64.222  1.00  0.00    -0.371 C  
HETATM    3  O   UNK A   0     -10.431  12.753  63.908  1.00  0.00    -0.418 OA 
ATOM      4  N   CYS A   1     -12.035  12.588  65.526  1.00  0.00    -0.440 N  
ATOM      5  H   CYS A   1     -12.960  12.231  65.769  1.00  0.00     0.000 HD 
ENDROOT
BRANCH   4   6
ATOM      6  CA  CYS A   1     -11.174  13.181  66.573  1.00  0.00    -0.310 C  
ATOM      7  O   CYS A   1     -12.136  11.357  67.850  1.00  0.00    -0.646 OA 
ATOM      8  C   CYS A   1     -11.294  12.416  67.897  1.00  0.00    -0.289 C  
ATOM      9  OXT CYS A   1     -10.723  12.745  68.927  1.00  0.00    -0.230 OA 
BRANCH   6  10
ATOM     10  CB  CYS A   1     -11.531  14.646  66.858  1.00  0.00    -0.363 C  
ATOM     11  SG  CYS A   1     -10.435  15.796  65.956  1.00  0.00    -0.350 SA 
ATOM     12  HG  CYS A   1     -10.759  17.124  66.214  1.00  0.00     0.000 H  
ENDBRANCH   6  10
ENDBRANCH   4   6
TORSDOF 2
ENDMDL
MODEL       23
REMARK 921   NORMALIZED FREE ENERGY PREDICTED BY IDOCK:   -3.52 KCAL/MOL
REMARK 922        TOTAL FREE ENERGY PREDICTED BY IDOCK:   -4.09 KCAL/MOL
REMARK 923 INTER-LIGAND FREE ENERGY PREDICTED BY IDOCK:   -3.94 KCAL/MOL
REMARK 924 INTRA-LIGAND FREE ENERGY PREDICTED BY IDOCK:   -0.15 KCAL/MOL
REMARK 927      BINDING AFFINITY PREDICTED BY RF-SCORE:    0.00 PKD
ROOT
HETATM    1  C   UNK A   0     -12.023  15.566  69.357  1.00  0.00    -0.358 C  
HETATM    2  C   UNK A   0     -11.413  14.980  68.114  1.00  0.00    -0.339 C  
HETATM    3  O   UNK A   0     -10.482  15.506  67.519  1.00  0.00    -0.269 OA 
ATOM      4  N   CYS A   1     -12.068  13.865  67.632  1.00  0.00    -0.463 N  
ATOM      5  H   CYS A   1     -12.934  13.553  68.070  1.00  0.00     0.000 HD 
ENDROOT
BRANCH   4   6
ATOM      6  CA  CYS A   1     -11.514  13.120  66.479  1.00  0.00    -0.338 C  
ATOM      7  O   CYS A   1     -13.511  14.019  65.437  1.00  0.00    -0.679 OA 
ATOM      8  C   CYS A   1     -12.414  13.250  65.244  1.00  0.00    -0.489 C  
ATOM      9  OXT CYS A   1     -12.198  12.681  64.183  1.00  0.00    -0.400 OA 
BRANCH   6  10
ATOM     10  CB  CYS A   1     -11.358  11.623  66.775  1.00  0.00    -0.286 C  
ATOM     11  SG  CYS A   1     -11.531  11.265  68.558  1.00  0.00    -0.324 SA 
ATOM     12  HG  CYS A   1     -11.390   9.908  68.826  1.00  0.00     0.000 H  
ENDBRANCH   6  10
ENDBRANCH   4   6
TORSDOF 2
ENDMDL
MODEL       24
REMARK 921   NORMALIZED FREE ENERGY PREDICTED BY IDOCK:   -3.51 KCAL/MOL
REMARK 922        TOTAL FREE ENERGY PREDICTED BY IDOCK:   -4.08 KCAL/MOL
REMARK 923 INTER-LIGAND FREE ENERGY PREDICTED BY IDOCK:   -3.89 KCAL/MOL
REMARK 924 INTRA-LIGAND FREE ENERGY PREDICTED BY IDOCK:   -0.19 KCAL/MOL
REMARK 927      BINDING AFFINITY PREDICTED BY RF-SCORE:    0.00 PKD
ROOT
HETATM    1  C   UNK A   0     -12.952  15.726  73.258  1.00  0.00    -0.675 C  
HETATM    2  C   UNK A   0     -13.245  15.591  71.790  1.00  0.00    -0.481 C  
HETATM    3  O   UNK A   0     -14.382  15.570  71.339  1.00  0.00    -0.531 OA 
ATOM      4  N   CYS A   1     -12.130  15.371  71.007  1.00  0.00    -0.329 N  
ATOM      5  H   CYS A   1     -11.218  15.238  71.445  1.00  0.00     0.000 HD 
ENDROOT
BRANCH   4   6
ATOM      6  CA  CYS A   1     -12.255  15.327  69.533  1.00  0.00    -0.239 C  
ATOM      7  O   CYS A   1     -11.906  12.966  69.963  1.00  0.00    -0.326 OA 
ATOM      8  C   CYS A   1     -12.105  13.897  69.000  1.00  0.00    -0.329 C  
ATOM      9  OXT CYS A   1     -12.116  13.610  67.812  1.00  0.00    -0.358 OA 
BRANCH   6  10
ATOM     10  CB  CYS A   1     -11.196  16.189  68.834  1.00  0.00    -0.351 C  
ATOM     11  SG  CYS A   1      -9.503  15.704  69.317  1.00  0.00    -0.273 SA 
ATOM     12  HG  CYS A   1      -8.543  16.485  68.684  1.00  0.00     0.000 H  
ENDBRANCH   6  10
ENDBRANCH   4   6
TORSDOF 2
ENDMDL
MODEL       25
REMARK 921   NORMALIZED FREE ENERGY PREDICTED BY IDOCK:   -3.50 KCAL/MOL
REMARK 922        TOTAL FREE ENERGY PREDICTED BY IDOCK:   -4.07 KCAL/MOL
REMARK 923 INTER-LIGAND FREE ENERGY PREDICTED BY IDOCK:   -3.93 KCAL/MOL
REMARK 924 INTRA-LIGAND FREE ENERGY PREDICTED BY IDOCK:   -0.15 KCAL/MOL
REMARK 927      BINDING AFFINITY PREDICTED BY RF-SCORE:    0.00 PKD
ROOT
HETATM    1  C   UNK A   0     -11.719  14.494  64.611  1.00  0.00    -0.438 C  
HETATM    2  C   UNK A   0     -11.051  15.831  64.770  1.00  0.00    -0.400 C  
HETATM    3  O   UNK A   0     -11.263  16.773  64.018  1.00  0.00    -1.089 OA 
ATOM      4  N   CYS A   1     -10.089  15.872  65.759  1.00  0.00    -0.337 N  
ATOM      5  H   CYS A   1      -9.833  15.018  66.256  1.00  0.00     0.000 HD 
ENDROOT
BRANCH   4   6
ATOM      6  CA  CYS A   1      -9.428  17.152  66.099  1.00  0.00    -0.201 C  
ATOM      7  O   CYS A   1      -7.610  15.629  66.608  1.00  0.00    -0.161 OA 
ATOM      8  C   CYS A   1      -7.994  16.927  66.593  1.00  0.00    -0.265 C  
ATOM      9  OXT CYS A   1      -7.262  17.824  66.986  1.00  0.00    -0.171 OA 
BRANCH   6  10
ATOM     10  CB  CYS A   1     -10.176  17.917  67.198  1.00  0.00    -0.353 C  
ATOM     11  SG  CYS A   1     -10.298  19.699  66.818  1.00  0.00    -0.511 SA 
ATOM     12  HG  CYS A   1     -10.976  20.392  67.815  1.00  0.00     0.000 H  
ENDBRANCH   6  10
ENDBRANCH   4   6
TORSDOF 2
ENDMDL
MODEL       26
REMARK 921   NORMALIZED FREE ENERGY PREDICTED BY IDOCK:   -3.48 KCAL/MOL
REMARK 922        TOTAL FREE ENERGY PREDICTED BY IDOCK:   -4.05 KCAL/MOL
REMARK 923 INTER-LIGAND FREE ENERGY PREDICTED BY IDOCK:   -4.05 KCAL/MOL
REMARK 924 INTRA-LIGAND FREE ENERGY PREDICTED BY IDOCK:   -0.01 KCAL/MOL
REMARK 927      BINDING AFFINITY PREDICTED BY RF-SCORE:    0.00 PKD
ROOT
HETATM    1  C   UNK A   0     -11.989  12.289  69.363  1.00  0.00    -0.318 C  
HETATM    2  C   UNK A   0     -11.705  12.404  67.891  1.00  0.00    -0.360 C  
HETATM    3  O   UNK A   0     -11.590  11.430  67.159  1.00  0.00    -0.519 OA 
ATOM      4  N   CYS A   1     -11.466  13.692  67.458  1.00  0.00    -0.311 N  
ATOM      5  H   CYS A   1     -11.416  14.455  68.133  1.00  0.00     0.000 HD 
ENDROOT
BRANCH   4   6
ATOM      6  CA  CYS A   1     -11.281  13.967  66.016  1.00  0.00    -0.310 C  
ATOM      7  O   CYS A   1     -10.723  16.154  66.903  1.00  0.00    -0.314 OA 
ATOM      8  C   CYS A   1     -10.858  15.422  65.773  1.00  0.00    -0.343 C  
ATOM      9  OXT CYS A   1     -10.697  15.906  64.662  1.00  0.00    -0.553 OA 
BRANCH   6  10
ATOM     10  CB  CYS A   1     -12.563  13.723  65.209  1.00  0.00    -0.473 C  
ATOM     11  SG  CYS A   1     -12.275  12.586  63.810  1.00  0.00    -0.544 SA 
ATOM     12  HG  CYS A   1     -13.437  12.365  63.079  1.00  0.00     0.000 H  
ENDBRANCH   6  10
ENDBRANCH   4   6
TORSDOF 2
ENDMDL
MODEL       27
REMARK 921   NORMALIZED FREE ENERGY PREDICTED BY IDOCK:   -3.48 KCAL/MOL
REMARK 922        TOTAL FREE ENERGY PREDICTED BY IDOCK:   -4.05 KCAL/MOL
REMARK 923 INTER-LIGAND FREE ENERGY PREDICTED BY IDOCK:   -3.87 KCAL/MOL
REMARK 924 INTRA-LIGAND FREE ENERGY PREDICTED BY IDOCK:   -0.19 KCAL/MOL
REMARK 927      BINDING AFFINITY PREDICTED BY RF-SCORE:    0.00 PKD
ROOT
HETATM    1  C   UNK A   0     -12.160  14.809  64.214  1.00  0.00    -0.415 C  
HETATM    2  C   UNK A   0     -12.420  13.715  65.212  1.00  0.00    -0.479 C  
HETATM    3  O   UNK A   0     -13.106  12.734  64.958  1.00  0.00    -0.811 OA 
ATOM      4  N   CYS A   1     -11.921  13.967  66.474  1.00  0.00    -0.424 N  
ATOM      5  H   CYS A   1     -11.493  14.870  66.681  1.00  0.00     0.000 HD 
ENDROOT
BRANCH   4   6
ATOM      6  CA  CYS A   1     -12.008  12.931  67.526  1.00  0.00    -0.296 C  
ATOM      7  O   CYS A   1     -11.900  14.904  68.932  1.00  0.00    -0.311 OA 
ATOM      8  C   CYS A   1     -11.980  13.553  68.928  1.00  0.00    -0.341 C  
ATOM      9  OXT CYS A   1     -11.984  12.900  69.962  1.00  0.00    -0.334 OA 
BRANCH   6  10
ATOM     10  CB  CYS A   1     -10.850  11.927  67.449  1.00  0.00    -0.243 C  
ATOM     11  SG  CYS A   1      -9.237  12.766  67.282  1.00  0.00    -0.211 SA 
ATOM     12  HG  CYS A   1      -8.188  11.856  67.211  1.00  0.00     0.000 H  
ENDBRANCH   6  10
ENDBRANCH   4   6
TORSDOF 2
ENDMDL
MODEL       28
REMARK 921   NORMALIZED FREE ENERGY PREDICTED BY IDOCK:   -3.47 KCAL/MOL
REMARK 922        TOTAL FREE ENERGY PREDICTED BY IDOCK:   -4.04 KCAL/MOL
REMARK 923 INTER-LIGAND FREE ENERGY PREDICTED BY IDOCK:   -3.83 KCAL/MOL
REMARK 924 INTRA-LIGAND FREE ENERGY PREDICTED BY IDOCK:   -0.21 KCAL/MOL
REMARK 927      BINDING AFFINITY PREDICTED BY RF-SCORE:    0.00 PKD
ROOT
HETATM    1  C   UNK A   0     -10.455  17.882  66.476  1.00  0.00    -0.315 C  
HETATM    2  C   UNK A   0     -10.100  16.460  66.141  1.00  0.00    -0.346 C  
HETATM    3  O   UNK A   0      -9.025  16.142  65.652  1.00  0.00    -0.370 OA 
ATOM      4  N   CYS A   1     -11.133  15.561  66.316  1.00  0.00    -0.240 N  
ATOM      5  H   CYS A   1     -12.061  15.896  66.575  1.00  0.00     0.000 HD 
ENDROOT
BRANCH   4   6
ATOM      6  CA  CYS A   1     -10.895  14.112  66.129  1.00  0.00    -0.296 C  
ATOM      7  O   CYS A   1     -13.134  14.259  65.211  1.00  0.00    -0.707 OA 
ATOM      8  C   CYS A   1     -12.107  13.424  65.490  1.00  0.00    -0.428 C  
ATOM      9  OXT CYS A   1     -12.174  12.220  65.285  1.00  0.00    -0.508 OA 
BRANCH   6  10
ATOM     10  CB  CYS A   1     -10.608  13.396  67.455  1.00  0.00    -0.250 C  
ATOM     11  SG  CYS A   1     -11.851  13.806  68.729  1.00  0.00    -0.372 SA 
ATOM     12  HG  CYS A   1     -11.591  13.156  69.930  1.00  0.00     0.000 H  
ENDBRANCH   6  10
ENDBRANCH   4   6
TORSDOF 2
ENDMDL
MODEL       29
REMARK 921   NORMALIZED FREE ENERGY PREDICTED BY IDOCK:   -3.47 KCAL/MOL
REMARK 922        TOTAL FREE ENERGY PREDICTED BY IDOCK:   -4.03 KCAL/MOL
REMARK 923 INTER-LIGAND FREE ENERGY PREDICTED BY IDOCK:   -3.83 KCAL/MOL
REMARK 924 INTRA-LIGAND FREE ENERGY PREDICTED BY IDOCK:   -0.20 KCAL/MOL
REMARK 927      BINDING AFFINITY PREDICTED BY RF-SCORE:    0.00 PKD
ROOT
HETATM    1  C   UNK A   0     -12.122  11.460  70.212  1.00  0.00    -0.459 C  
HETATM    2  C   UNK A   0     -12.486  10.439  71.255  1.00  0.00    -0.415 C  
HETATM    3  O   UNK A   0     -13.401  10.600  72.051  1.00  0.00    -0.440 OA 
ATOM      4  N   CYS A   1     -11.625   9.362  71.319  1.00  0.00    -0.333 N  
ATOM      5  H   CYS A   1     -10.784   9.347  70.741  1.00  0.00     0.000 HD 
ENDROOT
BRANCH   4   6
ATOM      6  CA  CYS A   1     -11.922   8.228  72.223  1.00  0.00    -0.386 C  
ATOM      7  O   CYS A   1      -9.554   8.482  72.682  1.00  0.00    -0.280 OA 
ATOM      8  C   CYS A   1     -10.666   7.768  72.973  1.00  0.00    -0.384 C  
ATOM      9  OXT CYS A   1     -10.642   6.813  73.737  1.00  0.00    -0.337 OA 
BRANCH   6  10
ATOM     10  CB  CYS A   1     -12.475   7.013  71.468  1.00  0.00    -0.386 C  
ATOM     11  SG  CYS A   1     -11.348   6.474  70.136  1.00  0.00    -0.414 SA 
ATOM     12  HG  CYS A   1     -11.850   5.372  69.452  1.00  0.00     0.000 H  
ENDBRANCH   6  10
ENDBRANCH   4   6
TORSDOF 2
ENDMDL
MODEL       30
REMARK 921   NORMALIZED FREE ENERGY PREDICTED BY IDOCK:   -3.45 KCAL/MOL
REMARK 922        TOTAL FREE ENERGY PREDICTED BY IDOCK:   -4.02 KCAL/MOL
REMARK 923 INTER-LIGAND FREE ENERGY PREDICTED BY IDOCK:   -3.86 KCAL/MOL
REMARK 924 INTRA-LIGAND FREE ENERGY PREDICTED BY IDOCK:   -0.16 KCAL/MOL
REMARK 927      BINDING AFFINITY PREDICTED BY RF-SCORE:    0.00 PKD
ROOT
HETATM    1  C   UNK A   0     -11.184  10.389  70.380  1.00  0.00    -0.399 C  
HETATM    2  C   UNK A   0     -11.820  11.528  69.633  1.00  0.00    -0.354 C  
HETATM    3  O   UNK A   0     -12.284  11.408  68.507  1.00  0.00    -0.557 OA 
ATOM      4  N   CYS A   1     -11.729  12.748  70.273  1.00  0.00    -0.548 N  
ATOM      5  H   CYS A   1     -11.195  12.831  71.138  1.00  0.00     0.000 HD 
ENDROOT
BRANCH   4   6
ATOM      6  CA  CYS A   1     -12.407  13.935  69.706  1.00  0.00    -0.275 C  
ATOM      7  O   CYS A   1     -10.143  14.386  68.961  1.00  0.00    -0.221 OA 
ATOM      8  C   CYS A   1     -11.417  14.844  68.966  1.00  0.00    -0.301 C  
ATOM      9  OXT CYS A   1     -11.724  15.913  68.459  1.00  0.00    -0.383 OA 
BRANCH   6  10
ATOM     10  CB  CYS A   1     -13.089  14.786  70.786  1.00  0.00    -0.336 C  
ATOM     11  SG  CYS A   1     -11.890  15.406  72.016  1.00  0.00    -0.484 SA 
ATOM     12  HG  CYS A   1     -12.509  16.176  72.994  1.00  0.00     0.000 H  
ENDBRANCH   6  10
ENDBRANCH   4   6
TORSDOF 2
ENDMDL
MODEL       31
REMARK 921   NORMALIZED FREE ENERGY PREDICTED BY IDOCK:   -3.42 KCAL/MOL
REMARK 922        TOTAL FREE ENERGY PREDICTED BY IDOCK:   -3.98 KCAL/MOL
REMARK 923 INTER-LIGAND FREE ENERGY PREDICTED BY IDOCK:   -3.84 KCAL/MOL
REMARK 924 INTRA-LIGAND FREE ENERGY PREDICTED BY IDOCK:   -0.14 KCAL/MOL
REMARK 927      BINDING AFFINITY PREDICTED BY RF-SCORE:    0.00 PKD
ROOT
HETATM    1  C   UNK A   0     -12.772  14.370  70.409  1.00  0.00    -0.362 C  
HETATM    2  C   UNK A   0     -11.993  13.952  69.193  1.00  0.00    -0.363 C  
HETATM    3  O   UNK A   0     -11.108  13.108  69.228  1.00  0.00    -0.226 OA 
ATOM      4  N   CYS A   1     -12.275  14.686  68.058  1.00  0.00    -0.601 N  
ATOM      5  H   CYS A   1     -12.906  15.486  68.113  1.00  0.00     0.000 HD 
ENDROOT
BRANCH   4   6
ATOM      6  CA  CYS A   1     -11.663  14.315  66.763  1.00  0.00    -0.405 C  
ATOM      7  O   CYS A   1     -10.739  16.544  67.003  1.00  0.00    -0.286 OA 
ATOM      8  C   CYS A   1     -10.793  15.449  66.209  1.00  0.00    -0.301 C  
ATOM      9  OXT CYS A   1     -10.225  15.404  65.127  1.00  0.00    -0.364 OA 
BRANCH   6  10
ATOM     10  CB  CYS A   1     -12.716  13.984  65.697  1.00  0.00    -0.481 C  
ATOM     11  SG  CYS A   1     -12.244  12.521  64.711  1.00  0.00    -0.453 SA 
ATOM     12  HG  CYS A   1     -13.199  12.222  63.745  1.00  0.00     0.000 H  
ENDBRANCH   6  10
ENDBRANCH   4   6
TORSDOF 2
ENDMDL
MODEL       32
REMARK 921   NORMALIZED FREE ENERGY PREDICTED BY IDOCK:   -3.36 KCAL/MOL
REMARK 922        TOTAL FREE ENERGY PREDICTED BY IDOCK:   -3.92 KCAL/MOL
REMARK 923 INTER-LIGAND FREE ENERGY PREDICTED BY IDOCK:   -3.71 KCAL/MOL
REMARK 924 INTRA-LIGAND FREE ENERGY PREDICTED BY IDOCK:   -0.20 KCAL/MOL
REMARK 927      BINDING AFFINITY PREDICTED BY RF-SCORE:    0.00 PKD
ROOT
HETATM    1  C   UNK A   0      -9.715  18.899  66.228  1.00  0.00    -0.374 C  
HETATM    2  C   UNK A   0     -10.373  17.625  65.777  1.00  0.00    -0.188 C  
HETATM    3  O   UNK A   0     -11.000  17.535  64.731  1.00  0.00    -0.950 OA 
ATOM      4  N   CYS A   1     -10.313  16.599  66.699  1.00  0.00    -0.301 N  
ATOM      5  H   CYS A   1      -9.917  16.767  67.624  1.00  0.00     0.000 HD 
ENDROOT
BRANCH   4   6
ATOM      6  CA  CYS A   1     -10.823  15.255  66.347  1.00  0.00    -0.317 C  
ATOM      7  O   CYS A   1     -11.752  15.450  68.578  1.00  0.00    -0.352 OA 
ATOM      8  C   CYS A   1     -11.642  14.649  67.493  1.00  0.00    -0.375 C  
ATOM      9  OXT CYS A   1     -12.122  13.525  67.465  1.00  0.00    -0.357 OA 
BRANCH   6  10
ATOM     10  CB  CYS A   1      -9.690  14.271  66.023  1.00  0.00    -0.287 C  
ATOM     11  SG  CYS A   1      -8.440  14.218  67.353  1.00  0.00    -0.213 SA 
ATOM     12  HG  CYS A   1      -7.414  13.327  67.060  1.00  0.00     0.000 H  
ENDBRANCH   6  10
ENDBRANCH   4   6
TORSDOF 2
ENDMDL
MODEL       33
REMARK 921   NORMALIZED FREE ENERGY PREDICTED BY IDOCK:   -3.34 KCAL/MOL
REMARK 922        TOTAL FREE ENERGY PREDICTED BY IDOCK:   -3.89 KCAL/MOL
REMARK 923 INTER-LIGAND FREE ENERGY PREDICTED BY IDOCK:   -3.69 KCAL/MOL
REMARK 924 INTRA-LIGAND FREE ENERGY PREDICTED BY IDOCK:   -0.20 KCAL/MOL
REMARK 927      BINDING AFFINITY PREDICTED BY RF-SCORE:    0.00 PKD
ROOT
HETATM    1  C   UNK A   0      -9.116  16.718  66.371  1.00  0.00    -0.321 C  
HETATM    2  C   UNK A   0     -10.258  15.947  66.971  1.00  0.00    -0.283 C  
HETATM    3  O   UNK A   0     -10.772  16.247  68.040  1.00  0.00    -0.308 OA 
ATOM      4  N   CYS A   1     -10.599  14.804  66.277  1.00  0.00    -0.297 N  
ATOM      5  H   CYS A   1     -10.039  14.508  65.477  1.00  0.00     0.000 HD 
ENDROOT
BRANCH   4   6
ATOM      6  CA  CYS A   1     -11.775  14.007  66.692  1.00  0.00    -0.399 C  
ATOM      7  O   CYS A   1     -10.018  12.447  67.291  1.00  0.00    -0.204 OA 
ATOM      8  C   CYS A   1     -11.357  12.647  67.263  1.00  0.00    -0.318 C  
ATOM      9  OXT CYS A   1     -12.149  11.788  67.623  1.00  0.00    -0.598 OA 
BRANCH   6  10
ATOM     10  CB  CYS A   1     -12.735  13.738  65.525  1.00  0.00    -0.488 C  
ATOM     11  SG  CYS A   1     -11.849  13.139  64.045  1.00  0.00    -0.477 SA 
ATOM     12  HG  CYS A   1     -12.718  12.896  62.988  1.00  0.00     0.000 H  
ENDBRANCH   6  10
ENDBRANCH   4   6
TORSDOF 2
ENDMDL
MODEL       34
REMARK 921   NORMALIZED FREE ENERGY PREDICTED BY IDOCK:   -3.32 KCAL/MOL
REMARK 922        TOTAL FREE ENERGY PREDICTED BY IDOCK:   -3.88 KCAL/MOL
REMARK 923 INTER-LIGAND FREE ENERGY PREDICTED BY IDOCK:   -3.72 KCAL/MOL
REMARK 924 INTRA-LIGAND FREE ENERGY PREDICTED BY IDOCK:   -0.15 KCAL/MOL
REMARK 927      BINDING AFFINITY PREDICTED BY RF-SCORE:    0.00 PKD
ROOT
HETATM    1  C   UNK A   0     -10.803  16.011  64.917  1.00  0.00    -0.391 C  
HETATM    2  C   UNK A   0     -11.373  14.628  65.069  1.00  0.00    -0.390 C  
HETATM    3  O   UNK A   0     -12.427  14.284  64.552  1.00  0.00    -0.607 OA 
ATOM      4  N   CYS A   1     -10.671  13.818  65.939  1.00  0.00    -0.282 N  
ATOM      5  H   CYS A   1      -9.887  14.198  66.470  1.00  0.00     0.000 HD 
ENDROOT
BRANCH   4   6
ATOM      6  CA  CYS A   1     -11.054  12.398  66.101  1.00  0.00    -0.302 C  
ATOM      7  O   CYS A   1     -11.781  13.245  68.254  1.00  0.00    -0.312 OA 
ATOM      8  C   CYS A   1     -11.684  12.142  67.476  1.00  0.00    -0.315 C  
ATOM      9  OXT CYS A   1     -12.033  11.038  67.869  1.00  0.00    -0.620 OA 
BRANCH   6  10
ATOM     10  CB  CYS A   1      -9.852  11.453  65.966  1.00  0.00    -0.223 C  
ATOM     11  SG  CYS A   1      -9.978  10.409  64.473  1.00  0.00    -0.281 SA 
ATOM     12  HG  CYS A   1      -8.889   9.553  64.351  1.00  0.00     0.000 H  
ENDBRANCH   6  10
ENDBRANCH   4   6
TORSDOF 2
ENDMDL
MODEL       35
REMARK 921   NORMALIZED FREE ENERGY PREDICTED BY IDOCK:   -3.31 KCAL/MOL
REMARK 922        TOTAL FREE ENERGY PREDICTED BY IDOCK:   -3.85 KCAL/MOL
REMARK 923 INTER-LIGAND FREE ENERGY PREDICTED BY IDOCK:   -3.69 KCAL/MOL
REMARK 924 INTRA-LIGAND FREE ENERGY PREDICTED BY IDOCK:   -0.17 KCAL/MOL
REMARK 927      BINDING AFFINITY PREDICTED BY RF-SCORE:    0.00 PKD
ROOT
HETATM    1  C   UNK A   0     -11.741  13.438  69.350  1.00  0.00    -0.382 C  
HETATM    2  C   UNK A   0     -11.843  11.938  69.325  1.00  0.00    -0.318 C  
HETATM    3  O   UNK A   0     -12.164  11.311  68.325  1.00  0.00    -0.611 OA 
ATOM      4  N   CYS A   1     -11.663  11.336  70.554  1.00  0.00    -0.450 N  
ATOM      5  H   CYS A   1     -11.554  11.909  71.391  1.00  0.00     0.000 HD 
ENDROOT
BRANCH   4   6
ATOM      6  CA  CYS A   1     -11.628   9.860  70.659  1.00  0.00    -0.335 C  
ATOM      7  O   CYS A   1     -13.372  10.323  72.279  1.00  0.00    -0.407 OA 
ATOM      8  C   CYS A   1     -12.643   9.348  71.688  1.00  0.00    -0.375 C  
ATOM      9  OXT CYS A   1     -12.766   8.170  71.994  1.00  0.00    -0.318 OA 
BRANCH   6  10
ATOM     10  CB  CYS A   1     -10.247   9.341  71.081  1.00  0.00    -0.317 C  
ATOM     11  SG  CYS A   1      -9.539   8.213  69.832  1.00  0.00    -0.175 SA 
ATOM     12  HG  CYS A   1      -8.288   7.742  70.215  1.00  0.00     0.000 H  
ENDBRANCH   6  10
ENDBRANCH   4   6
TORSDOF 2
ENDMDL
MODEL       36
REMARK 921   NORMALIZED FREE ENERGY PREDICTED BY IDOCK:   -3.29 KCAL/MOL
REMARK 922        TOTAL FREE ENERGY PREDICTED BY IDOCK:   -3.84 KCAL/MOL
REMARK 923 INTER-LIGAND FREE ENERGY PREDICTED BY IDOCK:   -3.67 KCAL/MOL
REMARK 924 INTRA-LIGAND FREE ENERGY PREDICTED BY IDOCK:   -0.17 KCAL/MOL
REMARK 927      BINDING AFFINITY PREDICTED BY RF-SCORE:    0.00 PKD
ROOT
HETATM    1  C   UNK A   0     -11.264   5.341  73.276  1.00  0.00    -0.359 C  
HETATM    2  C   UNK A   0     -11.049   6.826  73.176  1.00  0.00    -0.187 C  
HETATM    3  O   UNK A   0     -10.162   7.411  73.782  1.00  0.00    -0.342 OA 
ATOM      4  N   CYS A   1     -12.010   7.490  72.440  1.00  0.00    -0.474 N  
ATOM      5  H   CYS A   1     -12.820   6.982  72.084  1.00  0.00     0.000 HD 
ENDROOT
BRANCH   4   6
ATOM      6  CA  CYS A   1     -11.866   8.937  72.167  1.00  0.00    -0.347 C  
ATOM      7  O   CYS A   1     -14.240   8.870  72.661  1.00  0.00    -0.563 OA 
ATOM      8  C   CYS A   1     -13.207   9.669  72.307  1.00  0.00    -0.404 C  
ATOM      9  OXT CYS A   1     -13.357  10.861  72.078  1.00  0.00    -0.448 OA 
BRANCH   6  10
ATOM     10  CB  CYS A   1     -11.341   9.212  70.752  1.00  0.00    -0.280 C  
ATOM     11  SG  CYS A   1      -9.515   9.250  70.704  1.00  0.00    -0.268 SA 
ATOM     12  HG  CYS A   1      -9.040   9.498  69.422  1.00  0.00     0.000 H  
ENDBRANCH   6  10
ENDBRANCH   4   6
TORSDOF 2
ENDMDL
MODEL       37
REMARK 921   NORMALIZED FREE ENERGY PREDICTED BY IDOCK:   -3.26 KCAL/MOL
REMARK 922        TOTAL FREE ENERGY PREDICTED BY IDOCK:   -3.81 KCAL/MOL
REMARK 923 INTER-LIGAND FREE ENERGY PREDICTED BY IDOCK:   -3.63 KCAL/MOL
REMARK 924 INTRA-LIGAND FREE ENERGY PREDICTED BY IDOCK:   -0.18 KCAL/MOL
REMARK 927      BINDING AFFINITY PREDICTED BY RF-SCORE:    0.00 PKD
ROOT
HETATM    1  C   UNK A   0     -10.624  13.984  64.957  1.00  0.00    -0.426 C  
HETATM    2  C   UNK A   0     -10.967  14.861  66.129  1.00  0.00    -0.334 C  
HETATM    3  O   UNK A   0     -11.856  14.589  66.924  1.00  0.00    -0.392 OA 
ATOM      4  N   CYS A   1     -10.277  16.056  66.164  1.00  0.00    -0.306 N  
ATOM      5  H   CYS A   1      -9.659  16.311  65.394  1.00  0.00     0.000 HD 
ENDROOT
BRANCH   4   6
ATOM      6  CA  CYS A   1     -10.434  16.969  67.319  1.00  0.00    -0.301 C  
ATOM      7  O   CYS A   1     -10.657  18.579  65.519  1.00  0.00    -0.621 OA 
ATOM      8  C   CYS A   1     -10.641  18.418  66.863  1.00  0.00    -0.347 C  
ATOM      9  OXT CYS A   1     -10.740  19.365  67.631  1.00  0.00    -0.453 OA 
BRANCH   6  10
ATOM     10  CB  CYS A   1      -9.209  16.951  68.243  1.00  0.00    -0.241 C  
ATOM     11  SG  CYS A   1      -9.339  15.645  69.514  1.00  0.00    -0.204 SA 
ATOM     12  HG  CYS A   1      -8.229  15.629  70.351  1.00  0.00     0.000 H  
ENDBRANCH   6  10
ENDBRANCH   4   6
TORSDOF 2
ENDMDL
MODEL       38
REMARK 921   NORMALIZED FREE ENERGY PREDICTED BY IDOCK:   -3.26 KCAL/MOL
REMARK 922        TOTAL FREE ENERGY PREDICTED BY IDOCK:   -3.80 KCAL/MOL
REMARK 923 INTER-LIGAND FREE ENERGY PREDICTED BY IDOCK:   -3.70 KCAL/MOL
REMARK 924 INTRA-LIGAND FREE ENERGY PREDICTED BY IDOCK:   -0.11 KCAL/MOL
REMARK 927      BINDING AFFINITY PREDICTED BY RF-SCORE:    0.00 PKD
ROOT
HETATM    1  C   UNK A   0     -11.385   6.379  70.544  1.00  0.00    -0.438 C  
HETATM    2  C   UNK A   0     -11.262   7.788  71.053  1.00  0.00    -0.266 C  
HETATM    3  O   UNK A   0     -10.586   8.085  72.029  1.00  0.00    -0.218 OA 
ATOM      4  N   CYS A   1     -12.069   8.700  70.404  1.00  0.00    -0.454 N  
ATOM      5  H   CYS A   1     -12.734   8.380  69.699  1.00  0.00     0.000 HD 
ENDROOT
BRANCH   4   6
ATOM      6  CA  CYS A   1     -11.970  10.141  70.726  1.00  0.00    -0.348 C  
ATOM      7  O   CYS A   1     -13.881   9.564  72.105  1.00  0.00    -0.390 OA 
ATOM      8  C   CYS A   1     -13.063  10.569  71.714  1.00  0.00    -0.464 C  
ATOM      9  OXT CYS A   1     -13.224  11.721  72.092  1.00  0.00    -0.498 OA 
BRANCH   6  10
ATOM     10  CB  CYS A   1     -12.107  11.026  69.481  1.00  0.00    -0.329 C  
ATOM     11  SG  CYS A   1     -10.962  10.510  68.155  1.00  0.00    -0.290 SA 
ATOM     12  HG  CYS A   1     -11.086  11.312  67.027  1.00  0.00     0.000 H  
ENDBRANCH   6  10
ENDBRANCH   4   6
TORSDOF 2
ENDMDL
MODEL       39
REMARK 921   NORMALIZED FREE ENERGY PREDICTED BY IDOCK:   -3.26 KCAL/MOL
REMARK 922        TOTAL FREE ENERGY PREDICTED BY IDOCK:   -3.80 KCAL/MOL
REMARK 923 INTER-LIGAND FREE ENERGY PREDICTED BY IDOCK:   -3.64 KCAL/MOL
REMARK 924 INTRA-LIGAND FREE ENERGY PREDICTED BY IDOCK:   -0.16 KCAL/MOL
REMARK 927      BINDING AFFINITY PREDICTED BY RF-SCORE:    0.00 PKD
ROOT
HETATM    1  C   UNK A   0     -14.295   8.459  71.397  1.00  0.00    -0.425 C  
HETATM    2  C   UNK A   0     -13.257   9.546  71.395  1.00  0.00    -0.372 C  
HETATM    3  O   UNK A   0     -13.350  10.554  72.083  1.00  0.00    -0.437 OA 
ATOM      4  N   CYS A   1     -12.253   9.372  70.464  1.00  0.00    -0.477 N  
ATOM      5  H   CYS A   1     -12.301   8.598  69.802  1.00  0.00     0.000 HD 
ENDROOT
BRANCH   4   6
ATOM      6  CA  CYS A   1     -11.107  10.308  70.425  1.00  0.00    -0.319 C  
ATOM      7  O   CYS A   1     -12.235  10.991  68.389  1.00  0.00    -0.586 OA 
ATOM      8  C   CYS A   1     -11.162  11.209  69.185  1.00  0.00    -0.264 C  
ATOM      9  OXT CYS A   1     -10.299  12.027  68.900  1.00  0.00    -0.188 OA 
BRANCH   6  10
ATOM     10  CB  CYS A   1      -9.760   9.575  70.398  1.00  0.00    -0.271 C  
ATOM     11  SG  CYS A   1      -9.495   8.591  71.914  1.00  0.00    -0.302 SA 
ATOM     12  HG  CYS A   1      -8.274   7.927  71.889  1.00  0.00     0.000 H  
ENDBRANCH   6  10
ENDBRANCH   4   6
TORSDOF 2
ENDMDL
MODEL       40
REMARK 921   NORMALIZED FREE ENERGY PREDICTED BY IDOCK:   -3.25 KCAL/MOL
REMARK 922        TOTAL FREE ENERGY PREDICTED BY IDOCK:   -3.80 KCAL/MOL
REMARK 923 INTER-LIGAND FREE ENERGY PREDICTED BY IDOCK:   -3.65 KCAL/MOL
REMARK 924 INTRA-LIGAND FREE ENERGY PREDICTED BY IDOCK:   -0.15 KCAL/MOL
REMARK 927      BINDING AFFINITY PREDICTED BY RF-SCORE:    0.00 PKD
ROOT
HETATM    1  C   UNK A   0      -8.118  15.951  69.255  1.00  0.00    -0.228 C  
HETATM    2  C   UNK A   0      -9.603  15.959  69.022  1.00  0.00    -0.247 C  
HETATM    3  O   UNK A   0     -10.133  16.609  68.131  1.00  0.00    -0.249 OA 
ATOM      4  N   CYS A   1     -10.330  15.269  69.972  1.00  0.00    -0.440 N  
ATOM      5  H   CYS A   1      -9.859  14.874  70.786  1.00  0.00     0.000 HD 
ENDROOT
BRANCH   4   6
ATOM      6  CA  CYS A   1     -11.792  15.101  69.809  1.00  0.00    -0.333 C  
ATOM      7  O   CYS A   1     -11.767  16.227  71.957  1.00  0.00    -0.496 OA 
ATOM      8  C   CYS A   1     -12.558  15.674  71.008  1.00  0.00    -0.459 C  
ATOM      9  OXT CYS A   1     -13.772  15.607  71.133  1.00  0.00    -0.591 OA 
BRANCH   6  10
ATOM     10  CB  CYS A   1     -12.195  13.627  69.672  1.00  0.00    -0.270 C  
ATOM     11  SG  CYS A   1     -11.457  12.859  68.188  1.00  0.00    -0.338 SA 
ATOM     12  HG  CYS A   1     -11.822  11.524  68.064  1.00  0.00     0.000 H  
ENDBRANCH   6  10
ENDBRANCH   4   6
TORSDOF 2
ENDMDL
MODEL       41
REMARK 921   NORMALIZED FREE ENERGY PREDICTED BY IDOCK:   -3.25 KCAL/MOL
REMARK 922        TOTAL FREE ENERGY PREDICTED BY IDOCK:   -3.79 KCAL/MOL
REMARK 923 INTER-LIGAND FREE ENERGY PREDICTED BY IDOCK:   -3.61 KCAL/MOL
REMARK 924 INTRA-LIGAND FREE ENERGY PREDICTED BY IDOCK:   -0.19 KCAL/MOL
REMARK 927      BINDING AFFINITY PREDICTED BY RF-SCORE:    0.00 PKD
ROOT
HETATM    1  C   UNK A   0     -11.122   9.874  70.425  1.00  0.00    -0.382 C  
HETATM    2  C   UNK A   0     -11.680  11.242  70.148  1.00  0.00    -0.343 C  
HETATM    3  O   UNK A   0     -12.412  11.831  70.932  1.00  0.00    -0.372 OA 
ATOM      4  N   CYS A   1     -11.398  11.726  68.887  1.00  0.00    -0.242 N  
ATOM      5  H   CYS A   1     -10.918  11.133  68.209  1.00  0.00     0.000 HD 
ENDROOT
BRANCH   4   6
ATOM      6  CA  CYS A   1     -11.791  13.103  68.516  1.00  0.00    -0.342 C  
ATOM      7  O   CYS A   1     -11.883  12.069  66.324  1.00  0.00    -0.563 OA 
ATOM      8  C   CYS A   1     -12.047  13.225  67.008  1.00  0.00    -0.320 C  
ATOM      9  OXT CYS A   1     -12.331  14.276  66.450  1.00  0.00    -0.448 OA 
BRANCH   6  10
ATOM     10  CB  CYS A   1     -10.714  14.133  68.882  1.00  0.00    -0.256 C  
ATOM     11  SG  CYS A   1     -11.338  15.371  70.070  1.00  0.00    -0.338 SA 
ATOM     12  HG  CYS A   1     -10.362  16.303  70.402  1.00  0.00     0.000 H  
ENDBRANCH   6  10
ENDBRANCH   4   6
TORSDOF 2
ENDMDL
MODEL       42
REMARK 921   NORMALIZED FREE ENERGY PREDICTED BY IDOCK:   -3.24 KCAL/MOL
REMARK 922        TOTAL FREE ENERGY PREDICTED BY IDOCK:   -3.78 KCAL/MOL
REMARK 923 INTER-LIGAND FREE ENERGY PREDICTED BY IDOCK:   -4.70 KCAL/MOL
REMARK 924 INTRA-LIGAND FREE ENERGY PREDICTED BY IDOCK:    0.92 KCAL/MOL
REMARK 927      BINDING AFFINITY PREDICTED BY RF-SCORE:    0.00 PKD
ROOT
HETATM    1  C   UNK A   0     -10.167  16.297  65.734  1.00  0.00    -0.390 C  
HETATM    2  C   UNK A   0     -10.698  14.893  65.655  1.00  0.00    -0.342 C  
HETATM    3  O   UNK A   0     -11.334  14.371  66.562  1.00  0.00    -0.331 OA 
ATOM      4  N   CYS A   1     -10.306  14.200  64.528  1.00  0.00    -0.620 N  
ATOM      5  H   CYS A   1      -9.645  14.621  63.875  1.00  0.00     0.000 HD 
ENDROOT
BRANCH   4   6
ATOM      6  CA  CYS A   1     -10.842  12.845  64.265  1.00  0.00    -0.397 C  
ATOM      7  O   CYS A   1     -12.649  14.167  63.332  1.00  0.00    -0.818 OA 
ATOM      8  C   CYS A   1     -12.211  12.910  63.576  1.00  0.00    -0.512 C  
ATOM      9  OXT CYS A   1     -12.882  11.924  63.305  1.00  0.00    -0.702 OA 
BRANCH   6  10
ATOM     10  CB  CYS A   1     -11.016  12.030  65.553  1.00  0.00    -0.298 C  
ATOM     11  SG  CYS A   1     -10.006  10.509  65.532  1.00  0.00    -0.287 SA 
ATOM     12  HG  CYS A   1     -10.164   9.770  66.699  1.00  0.00     0.000 H  
ENDBRANCH   6  10
ENDBRANCH   4   6
TORSDOF 2
ENDMDL
MODEL       43
REMARK 921   NORMALIZED FREE ENERGY PREDICTED BY IDOCK:   -3.21 KCAL/MOL
REMARK 922        TOTAL FREE ENERGY PREDICTED BY IDOCK:   -3.75 KCAL/MOL
REMARK 923 INTER-LIGAND FREE ENERGY PREDICTED BY IDOCK:   -3.66 KCAL/MOL
REMARK 924 INTRA-LIGAND FREE ENERGY PREDICTED BY IDOCK:   -0.09 KCAL/MOL
REMARK 927      BINDING AFFINITY PREDICTED BY RF-SCORE:    0.00 PKD
ROOT
HETATM    1  C   UNK A   0     -11.729  15.419  72.419  1.00  0.00    -0.565 C  
HETATM    2  C   UNK A   0     -11.949  15.814  70.986  1.00  0.00    -0.419 C  
HETATM    3  O   UNK A   0     -13.052  15.807  70.457  1.00  0.00    -0.461 OA 
ATOM      4  N   CYS A   1     -10.789  16.067  70.282  1.00  0.00    -0.333 N  
ATOM      5  H   CYS A   1      -9.882  15.907  70.720  1.00  0.00     0.000 HD 
ENDROOT
BRANCH   4   6
ATOM      6  CA  CYS A   1     -10.859  16.572  68.892  1.00  0.00    -0.336 C  
ATOM      7  O   CYS A   1     -10.063  14.324  68.449  1.00  0.00    -0.230 OA 
ATOM      8  C   CYS A   1     -10.413  15.504  67.886  1.00  0.00    -0.266 C  
ATOM      9  OXT CYS A   1     -10.332  15.697  66.681  1.00  0.00    -0.275 OA 
BRANCH   6  10
ATOM     10  CB  CYS A   1      -9.971  17.804  68.676  1.00  0.00    -0.379 C  
ATOM     11  SG  CYS A   1     -10.749  19.008  67.545  1.00  0.00    -0.392 SA 
ATOM     12  HG  CYS A   1      -9.943  20.124  67.349  1.00  0.00     0.000 H  
ENDBRANCH   6  10
ENDBRANCH   4   6
TORSDOF 2
ENDMDL
MODEL       44
REMARK 921   NORMALIZED FREE ENERGY PREDICTED BY IDOCK:   -3.18 KCAL/MOL
REMARK 922        TOTAL FREE ENERGY PREDICTED BY IDOCK:   -3.71 KCAL/MOL
REMARK 923 INTER-LIGAND FREE ENERGY PREDICTED BY IDOCK:   -3.57 KCAL/MOL
REMARK 924 INTRA-LIGAND FREE ENERGY PREDICTED BY IDOCK:   -0.15 KCAL/MOL
REMARK 927      BINDING AFFINITY PREDICTED BY RF-SCORE:    0.00 PKD
ROOT
HETATM    1  C   UNK A   0      -9.656  13.572  67.751  1.00  0.00    -0.219 C  
HETATM    2  C   UNK A   0     -11.043  13.774  68.293  1.00  0.00    -0.255 C  
HETATM    3  O   UNK A   0     -12.027  13.890  67.575  1.00  0.00    -0.377 OA 
ATOM      4  N   CYS A   1     -11.099  13.939  69.663  1.00  0.00    -0.443 N  
ATOM      5  H   CYS A   1     -10.237  13.992  70.205  1.00  0.00     0.000 HD 
ENDROOT
BRANCH   4   6
ATOM      6  CA  CYS A   1     -12.409  14.037  70.345  1.00  0.00    -0.359 C  
ATOM      7  O   CYS A   1     -11.531  16.236  70.870  1.00  0.00    -0.406 OA 
ATOM      8  C   CYS A   1     -12.581  15.398  71.031  1.00  0.00    -0.431 C  
ATOM      9  OXT CYS A   1     -13.555  15.701  71.705  1.00  0.00    -0.481 OA 
BRANCH   6  10
ATOM     10  CB  CYS A   1     -12.586  12.958  71.421  1.00  0.00    -0.220 C  
ATOM     11  SG  CYS A   1     -12.321  11.281  70.746  1.00  0.00    -0.375 SA 
ATOM     12  HG  CYS A   1     -12.481  10.303  71.721  1.00  0.00     0.000 H  
ENDBRANCH   6  10
ENDBRANCH   4   6
TORSDOF 2
ENDMDL
MODEL       45
REMARK 921   NORMALIZED FREE ENERGY PREDICTED BY IDOCK:   -3.18 KCAL/MOL
REMARK 922        TOTAL FREE ENERGY PREDICTED BY IDOCK:   -3.71 KCAL/MOL
REMARK 923 INTER-LIGAND FREE ENERGY PREDICTED BY IDOCK:   -3.52 KCAL/MOL
REMARK 924 INTRA-LIGAND FREE ENERGY PREDICTED BY IDOCK:   -0.19 KCAL/MOL
REMARK 927      BINDING AFFINITY PREDICTED BY RF-SCORE:    0.00 PKD
ROOT
HETATM    1  C   UNK A   0     -10.501  14.624  65.434  1.00  0.00    -0.400 C  
HETATM    2  C   UNK A   0     -10.507  15.677  66.507  1.00  0.00    -0.302 C  
HETATM    3  O   UNK A   0     -11.034  15.510  67.599  1.00  0.00    -0.303 OA 
ATOM      4  N   CYS A   1      -9.975  16.889  66.116  1.00  0.00    -0.316 N  
ATOM      5  H   CYS A   1      -9.691  17.032  65.147  1.00  0.00     0.000 HD 
ENDROOT
BRANCH   4   6
ATOM      6  CA  CYS A   1      -9.817  17.982  67.102  1.00  0.00    -0.316 C  
ATOM      7  O   CYS A   1     -10.865  19.229  65.305  1.00  0.00    -0.503 OA 
ATOM      8  C   CYS A   1     -10.349  19.312  66.553  1.00  0.00    -0.450 C  
ATOM      9  OXT CYS A   1     -10.280  20.373  67.158  1.00  0.00    -0.405 OA 
BRANCH   6  10
ATOM     10  CB  CYS A   1      -8.350  18.203  67.493  1.00  0.00    -0.237 C  
ATOM     11  SG  CYS A   1      -7.210  17.681  66.165  1.00  0.00    -0.291 SA 
ATOM     12  HG  CYS A   1      -5.881  17.881  66.519  1.00  0.00     0.000 H  
ENDBRANCH   6  10
ENDBRANCH   4   6
TORSDOF 2
ENDMDL
MODEL       46
REMARK 921   NORMALIZED FREE ENERGY PREDICTED BY IDOCK:   -3.15 KCAL/MOL
REMARK 922        TOTAL FREE ENERGY PREDICTED BY IDOCK:   -3.68 KCAL/MOL
REMARK 923 INTER-LIGAND FREE ENERGY PREDICTED BY IDOCK:   -3.48 KCAL/MOL
REMARK 924 INTRA-LIGAND FREE ENERGY PREDICTED BY IDOCK:   -0.20 KCAL/MOL
REMARK 927      BINDING AFFINITY PREDICTED BY RF-SCORE:    0.00 PKD
ROOT
HETATM    1  C   UNK A   0     -12.219  13.231  70.400  1.00  0.00    -0.404 C  
HETATM    2  C   UNK A   0     -11.984  14.324  69.396  1.00  0.00    -0.337 C  
HETATM    3  O   UNK A   0     -12.083  15.512  69.672  1.00  0.00    -0.351 OA 
ATOM      4  N   CYS A   1     -11.767  13.876  68.109  1.00  0.00    -0.334 N  
ATOM      5  H   CYS A   1     -11.850  12.882  67.894  1.00  0.00     0.000 HD 
ENDROOT
BRANCH   4   6
ATOM      6  CA  CYS A   1     -11.413  14.835  67.039  1.00  0.00    -0.353 C  
ATOM      7  O   CYS A   1     -12.535  13.154  65.698  1.00  0.00    -0.457 OA 
ATOM      8  C   CYS A   1     -11.885  14.341  65.665  1.00  0.00    -0.373 C  
ATOM      9  OXT CYS A   1     -11.663  14.932  64.618  1.00  0.00    -0.409 OA 
BRANCH   6  10
ATOM     10  CB  CYS A   1      -9.899  15.069  66.945  1.00  0.00    -0.238 C  
ATOM     11  SG  CYS A   1      -8.963  13.510  67.108  1.00  0.00    -0.227 SA 
ATOM     12  HG  CYS A   1      -7.592  13.722  67.023  1.00  0.00     0.000 H  
ENDBRANCH   6  10
ENDBRANCH   4   6
TORSDOF 2
ENDMDL
MODEL       47
REMARK 921   NORMALIZED FREE ENERGY PREDICTED BY IDOCK:   -3.14 KCAL/MOL
REMARK 922        TOTAL FREE ENERGY PREDICTED BY IDOCK:   -3.67 KCAL/MOL
REMARK 923 INTER-LIGAND FREE ENERGY PREDICTED BY IDOCK:   -3.49 KCAL/MOL
REMARK 924 INTRA-LIGAND FREE ENERGY PREDICTED BY IDOCK:   -0.18 KCAL/MOL
REMARK 927      BINDING AFFINITY PREDICTED BY RF-SCORE:    0.00 PKD
ROOT
HETATM    1  C   UNK A   0     -10.334  12.918  65.871  1.00  0.00    -0.297 C  
HETATM    2  C   UNK A   0     -11.058  14.113  66.427  1.00  0.00    -0.320 C  
HETATM    3  O   UNK A   0     -12.274  14.236  66.372  1.00  0.00    -0.436 OA 
ATOM      4  N   CYS A   1     -10.229  15.113  66.893  1.00  0.00    -0.256 N  
ATOM      5  H   CYS A   1      -9.219  15.035  66.774  1.00  0.00     0.000 HD 
ENDROOT
BRANCH   4   6
ATOM      6  CA  CYS A   1     -10.804  16.299  67.566  1.00  0.00    -0.268 C  
ATOM      7  O   CYS A   1      -9.395  17.420  65.941  1.00  0.00    -0.508 OA 
ATOM      8  C   CYS A   1     -10.264  17.602  66.963  1.00  0.00    -0.332 C  
ATOM      9  OXT CYS A   1     -10.547  18.714  67.384  1.00  0.00    -0.416 OA 
BRANCH   6  10
ATOM     10  CB  CYS A   1     -10.488  16.324  69.067  1.00  0.00    -0.276 C  
ATOM     11  SG  CYS A   1     -11.817  15.548  70.051  1.00  0.00    -0.377 SA 
ATOM     12  HG  CYS A   1     -11.530  15.571  71.411  1.00  0.00     0.000 H  
ENDBRANCH   6  10
ENDBRANCH   4   6
TORSDOF 2
ENDMDL
MODEL       48
REMARK 921   NORMALIZED FREE ENERGY PREDICTED BY IDOCK:   -3.13 KCAL/MOL
REMARK 922        TOTAL FREE ENERGY PREDICTED BY IDOCK:   -3.66 KCAL/MOL
REMARK 923 INTER-LIGAND FREE ENERGY PREDICTED BY IDOCK:   -3.49 KCAL/MOL
REMARK 924 INTRA-LIGAND FREE ENERGY PREDICTED BY IDOCK:   -0.18 KCAL/MOL
REMARK 927      BINDING AFFINITY PREDICTED BY RF-SCORE:    0.00 PKD
ROOT
HETATM    1  C   UNK A   0      -9.377  10.230  69.416  1.00  0.00    -0.217 C  
HETATM    2  C   UNK A   0     -10.407   9.233  69.866  1.00  0.00    -0.220 C  
HETATM    3  O   UNK A   0     -10.581   8.158  69.307  1.00  0.00    -0.222 OA 
ATOM      4  N   CYS A   1     -11.223   9.680  70.886  1.00  0.00    -0.322 N  
ATOM      5  H   CYS A   1     -11.146  10.643  71.215  1.00  0.00     0.000 HD 
ENDROOT
BRANCH   4   6
ATOM      6  CA  CYS A   1     -12.210   8.765  71.502  1.00  0.00    -0.327 C  
ATOM      7  O   CYS A   1     -13.305  10.881  71.957  1.00  0.00    -0.448 OA 
ATOM      8  C   CYS A   1     -13.386   9.539  72.111  1.00  0.00    -0.461 C  
ATOM      9  OXT CYS A   1     -14.302   9.010  72.724  1.00  0.00    -0.596 OA 
BRANCH   6  10
ATOM     10  CB  CYS A   1     -11.593   7.915  72.621  1.00  0.00    -0.377 C  
ATOM     11  SG  CYS A   1     -11.606   6.137  72.204  1.00  0.00    -0.295 SA 
ATOM     12  HG  CYS A   1     -11.048   5.367  73.218  1.00  0.00     0.000 H  
ENDBRANCH   6  10
ENDBRANCH   4   6
TORSDOF 2
ENDMDL
MODEL       49
REMARK 921   NORMALIZED FREE ENERGY PREDICTED BY IDOCK:   -3.13 KCAL/MOL
REMARK 922        TOTAL FREE ENERGY PREDICTED BY IDOCK:   -3.66 KCAL/MOL
REMARK 923 INTER-LIGAND FREE ENERGY PREDICTED BY IDOCK:   -3.53 KCAL/MOL
REMARK 924 INTRA-LIGAND FREE ENERGY PREDICTED BY IDOCK:   -0.13 KCAL/MOL
REMARK 927      BINDING AFFINITY PREDICTED BY RF-SCORE:    0.00 PKD
ROOT
HETATM    1  C   UNK A   0     -11.955  15.138  70.607  1.00  0.00    -0.371 C  
HETATM    2  C   UNK A   0     -10.927  15.417  69.546  1.00  0.00    -0.275 C  
HETATM    3  O   UNK A   0      -9.729  15.490  69.784  1.00  0.00    -0.287 OA 
ATOM      4  N   CYS A   1     -11.457  15.705  68.305  1.00  0.00    -0.362 N  
ATOM      5  H   CYS A   1     -12.467  15.789  68.189  1.00  0.00     0.000 HD 
ENDROOT
BRANCH   4   6
ATOM      6  CA  CYS A   1     -10.561  15.892  67.141  1.00  0.00    -0.316 C  
ATOM      7  O   CYS A   1     -11.031  18.217  67.647  1.00  0.00    -0.333 OA 
ATOM      8  C   CYS A   1     -10.370  17.379  66.815  1.00  0.00    -0.305 C  
ATOM      9  OXT CYS A   1      -9.718  17.788  65.865  1.00  0.00    -0.528 OA 
BRANCH   6  10
ATOM     10  CB  CYS A   1     -11.103  15.213  65.876  1.00  0.00    -0.319 C  
ATOM     11  SG  CYS A   1     -12.191  13.803  66.279  1.00  0.00    -0.433 SA 
ATOM     12  HG  CYS A   1     -12.681  13.187  65.134  1.00  0.00     0.000 H  
ENDBRANCH   6  10
ENDBRANCH   4   6
TORSDOF 2
ENDMDL
MODEL       50
REMARK 921   NORMALIZED FREE ENERGY PREDICTED BY IDOCK:   -3.12 KCAL/MOL
REMARK 922        TOTAL FREE ENERGY PREDICTED BY IDOCK:   -3.65 KCAL/MOL
REMARK 923 INTER-LIGAND FREE ENERGY PREDICTED BY IDOCK:   -3.53 KCAL/MOL
REMARK 924 INTRA-LIGAND FREE ENERGY PREDICTED BY IDOCK:   -0.12 KCAL/MOL
REMARK 927      BINDING AFFINITY PREDICTED BY RF-SCORE:    0.00 PKD
ROOT
HETATM    1  C   UNK A   0      -9.169  14.204  66.715  1.00  0.00    -0.282 C  
HETATM    2  C   UNK A   0      -9.648  15.572  67.117  1.00  0.00    -0.222 C  
HETATM    3  O   UNK A   0     -10.520  15.750  67.956  1.00  0.00    -0.256 OA 
ATOM      4  N   CYS A   1      -9.109  16.603  66.374  1.00  0.00    -0.271 N  
ATOM      5  H   CYS A   1      -8.505  16.396  65.578  1.00  0.00     0.000 HD 
ENDROOT
BRANCH   4   6
ATOM      6  CA  CYS A   1      -9.407  18.008  66.730  1.00  0.00    -0.284 C  
ATOM      7  O   CYS A   1     -11.006  17.717  64.930  1.00  0.00    -0.866 OA 
ATOM      8  C   CYS A   1     -10.513  18.589  65.840  1.00  0.00    -0.347 C  
ATOM      9  OXT CYS A   1     -10.898  19.748  65.904  1.00  0.00    -0.437 OA 
BRANCH   6  10
ATOM     10  CB  CYS A   1      -8.179  18.916  66.585  1.00  0.00    -0.286 C  
ATOM     11  SG  CYS A   1      -7.800  19.795  68.140  1.00  0.00    -0.284 SA 
ATOM     12  HG  CYS A   1      -6.688  20.618  68.008  1.00  0.00     0.000 H  
ENDBRANCH   6  10
ENDBRANCH   4   6
TORSDOF 2
ENDMDL
MODEL       51
REMARK 921   NORMALIZED FREE ENERGY PREDICTED BY IDOCK:   -3.12 KCAL/MOL
REMARK 922        TOTAL FREE ENERGY PREDICTED BY IDOCK:   -3.65 KCAL/MOL
REMARK 923 INTER-LIGAND FREE ENERGY PREDICTED BY IDOCK:   -3.50 KCAL/MOL
REMARK 924 INTRA-LIGAND FREE ENERGY PREDICTED BY IDOCK:   -0.14 KCAL/MOL
REMARK 927      BINDING AFFINITY PREDICTED BY RF-SCORE:    0.00 PKD
ROOT
HETATM    1  C   UNK A   0      -7.720  16.040  69.081  1.00  0.00    -0.231 C  
HETATM    2  C   UNK A   0      -8.110  15.926  67.634  1.00  0.00    -0.144 C  
HETATM    3  O   UNK A   0      -7.299  16.001  66.720  1.00  0.00    -0.216 OA 
ATOM      4  N   CYS A   1      -9.471  15.853  67.416  1.00  0.00    -0.218 N  
ATOM      5  H   CYS A   1     -10.118  15.953  68.199  1.00  0.00     0.000 HD 
ENDROOT
BRANCH   4   6
ATOM      6  CA  CYS A   1      -9.993  15.628  66.050  1.00  0.00    -0.333 C  
ATOM      7  O   CYS A   1     -10.535  17.979  66.291  1.00  0.00    -0.375 OA 
ATOM      8  C   CYS A   1     -10.604  16.908  65.467  1.00  0.00    -0.202 C  
ATOM      9  OXT CYS A   1     -11.149  16.964  64.374  1.00  0.00    -1.128 OA 
BRANCH   6  10
ATOM     10  CB  CYS A   1     -11.079  14.545  66.014  1.00  0.00    -0.329 C  
ATOM     11  SG  CYS A   1     -10.506  13.040  65.152  1.00  0.00    -0.327 SA 
ATOM     12  HG  CYS A   1     -11.491  12.060  65.120  1.00  0.00     0.000 H  
ENDBRANCH   6  10
ENDBRANCH   4   6
TORSDOF 2
ENDMDL
MODEL       52
REMARK 921   NORMALIZED FREE ENERGY PREDICTED BY IDOCK:   -3.11 KCAL/MOL
REMARK 922        TOTAL FREE ENERGY PREDICTED BY IDOCK:   -3.64 KCAL/MOL
REMARK 923 INTER-LIGAND FREE ENERGY PREDICTED BY IDOCK:   -3.46 KCAL/MOL
REMARK 924 INTRA-LIGAND FREE ENERGY PREDICTED BY IDOCK:   -0.18 KCAL/MOL
REMARK 927      BINDING AFFINITY PREDICTED BY RF-SCORE:    0.00 PKD
ROOT
HETATM    1  C   UNK A   0     -10.881  19.179  67.575  1.00  0.00    -0.512 C  
HETATM    2  C   UNK A   0      -9.910  19.738  66.573  1.00  0.00    -0.436 C  
HETATM    3  O   UNK A   0     -10.256  20.174  65.484  1.00  0.00    -0.364 OA 
ATOM      4  N   CYS A   1      -8.584  19.607  66.934  1.00  0.00    -0.301 N  
ATOM      5  H   CYS A   1      -8.334  19.094  67.780  1.00  0.00     0.000 HD 
ENDROOT
BRANCH   4   6
ATOM      6  CA  CYS A   1      -7.524  20.210  66.095  1.00  0.00    -0.278 C  
ATOM      7  O   CYS A   1      -7.197  17.878  65.516  1.00  0.00    -0.510 OA 
ATOM      8  C   CYS A   1      -6.756  19.140  65.308  1.00  0.00    -0.198 C  
ATOM      9  OXT CYS A   1      -5.799  19.383  64.587  1.00  0.00    -0.226 OA 
BRANCH   6  10
ATOM     10  CB  CYS A   1      -6.498  20.989  66.928  1.00  0.00    -0.323 C  
ATOM     11  SG  CYS A   1      -6.169  20.176  68.530  1.00  0.00    -0.307 SA 
ATOM     12  HG  CYS A   1      -5.240  20.883  69.284  1.00  0.00     0.000 H  
ENDBRANCH   6  10
ENDBRANCH   4   6
TORSDOF 2
ENDMDL
MODEL       53
REMARK 921   NORMALIZED FREE ENERGY PREDICTED BY IDOCK:   -3.09 KCAL/MOL
REMARK 922        TOTAL FREE ENERGY PREDICTED BY IDOCK:   -3.61 KCAL/MOL
REMARK 923 INTER-LIGAND FREE ENERGY PREDICTED BY IDOCK:   -3.45 KCAL/MOL
REMARK 924 INTRA-LIGAND FREE ENERGY PREDICTED BY IDOCK:   -0.16 KCAL/MOL
REMARK 927      BINDING AFFINITY PREDICTED BY RF-SCORE:    0.00 PKD
ROOT
HETATM    1  C   UNK A   0     -10.646  12.897  68.874  1.00  0.00    -0.154 C  
HETATM    2  C   UNK A   0     -11.468  12.441  67.701  1.00  0.00    -0.337 C  
HETATM    3  O   UNK A   0     -12.153  11.427  67.725  1.00  0.00    -0.637 OA 
ATOM      4  N   CYS A   1     -11.292  13.192  66.557  1.00  0.00    -0.303 N  
ATOM      5  H   CYS A   1     -10.591  13.934  66.537  1.00  0.00     0.000 HD 
ENDROOT
BRANCH   4   6
ATOM      6  CA  CYS A   1     -12.118  12.924  65.359  1.00  0.00    -0.454 C  
ATOM      7  O   CYS A   1     -10.086  11.781  64.692  1.00  0.00    -0.257 OA 
ATOM      8  C   CYS A   1     -11.345  12.107  64.317  1.00  0.00    -0.360 C  
ATOM      9  OXT CYS A   1     -11.793  11.806  63.220  1.00  0.00    -0.401 OA 
BRANCH   6  10
ATOM     10  CB  CYS A   1     -12.584  14.216  64.674  1.00  0.00    -0.258 C  
ATOM     11  SG  CYS A   1     -11.272  15.487  64.665  1.00  0.00    -0.290 SA 
ATOM     12  HG  CYS A   1     -11.695  16.657  64.045  1.00  0.00     0.000 H  
ENDBRANCH   6  10
ENDBRANCH   4   6
TORSDOF 2
ENDMDL
MODEL       54
REMARK 921   NORMALIZED FREE ENERGY PREDICTED BY IDOCK:   -3.09 KCAL/MOL
REMARK 922        TOTAL FREE ENERGY PREDICTED BY IDOCK:   -3.61 KCAL/MOL
REMARK 923 INTER-LIGAND FREE ENERGY PREDICTED BY IDOCK:   -3.42 KCAL/MOL
REMARK 924 INTRA-LIGAND FREE ENERGY PREDICTED BY IDOCK:   -0.19 KCAL/MOL
REMARK 927      BINDING AFFINITY PREDICTED BY RF-SCORE:    0.00 PKD
ROOT
HETATM    1  C   UNK A   0      -9.214   9.525  65.034  1.00  0.00    -0.297 C  
HETATM    2  C   UNK A   0      -9.247  10.932  65.562  1.00  0.00    -0.209 C  
HETATM    3  O   UNK A   0      -8.296  11.451  66.129  1.00  0.00    -0.155 OA 
ATOM      4  N   CYS A   1     -10.479  11.547  65.462  1.00  0.00    -0.267 N  
ATOM      5  H   CYS A   1     -11.286  11.020  65.126  1.00  0.00     0.000 HD 
ENDROOT
BRANCH   4   6
ATOM      6  CA  CYS A   1     -10.631  12.969  65.841  1.00  0.00    -0.275 C  
ATOM      7  O   CYS A   1     -12.116  11.970  67.478  1.00  0.00    -0.555 OA 
ATOM      8  C   CYS A   1     -11.605  13.135  67.014  1.00  0.00    -0.359 C  
ATOM      9  OXT CYS A   1     -11.937  14.218  67.474  1.00  0.00    -0.389 OA 
BRANCH   6  10
ATOM     10  CB  CYS A   1     -11.160  13.826  64.683  1.00  0.00    -0.388 C  
ATOM     11  SG  CYS A   1     -12.121  12.831  63.490  1.00  0.00    -0.532 SA 
ATOM     12  HG  CYS A   1     -12.599  13.607  62.441  1.00  0.00     0.000 H  
ENDBRANCH   6  10
ENDBRANCH   4   6
TORSDOF 2
ENDMDL
MODEL       55
REMARK 921   NORMALIZED FREE ENERGY PREDICTED BY IDOCK:   -3.08 KCAL/MOL
REMARK 922        TOTAL FREE ENERGY PREDICTED BY IDOCK:   -3.60 KCAL/MOL
REMARK 923 INTER-LIGAND FREE ENERGY PREDICTED BY IDOCK:   -3.43 KCAL/MOL
REMARK 924 INTRA-LIGAND FREE ENERGY PREDICTED BY IDOCK:   -0.17 KCAL/MOL
REMARK 927      BINDING AFFINITY PREDICTED BY RF-SCORE:    0.00 PKD
ROOT
HETATM    1  C   UNK A   0     -10.106   7.970  68.305  1.00  0.00    -0.227 C  
HETATM    2  C   UNK A   0     -11.029   7.405  69.349  1.00  0.00    -0.108 C  
HETATM    3  O   UNK A   0     -11.415   6.244  69.336  1.00  0.00    -0.427 OA 
ATOM      4  N   CYS A   1     -11.500   8.335  70.254  1.00  0.00    -0.459 N  
ATOM      5  H   CYS A   1     -11.276   9.323  70.132  1.00  0.00     0.000 HD 
ENDROOT
BRANCH   4   6
ATOM      6  CA  CYS A   1     -12.329   7.900  71.400  1.00  0.00    -0.312 C  
ATOM      7  O   CYS A   1     -13.403  10.023  70.926  1.00  0.00    -0.382 OA 
ATOM      8  C   CYS A   1     -13.407   8.939  71.736  1.00  0.00    -0.386 C  
ATOM      9  OXT CYS A   1     -14.181   8.834  72.677  1.00  0.00    -0.527 OA 
BRANCH   6  10
ATOM     10  CB  CYS A   1     -11.495   7.679  72.669  1.00  0.00    -0.349 C  
ATOM     11  SG  CYS A   1     -11.075   5.918  72.904  1.00  0.00    -0.252 SA 
ATOM     12  HG  CYS A   1     -10.320   5.718  74.054  1.00  0.00     0.000 H  
ENDBRANCH   6  10
ENDBRANCH   4   6
TORSDOF 2
ENDMDL
MODEL       56
REMARK 921   NORMALIZED FREE ENERGY PREDICTED BY IDOCK:   -3.08 KCAL/MOL
REMARK 922        TOTAL FREE ENERGY PREDICTED BY IDOCK:   -3.60 KCAL/MOL
REMARK 923 INTER-LIGAND FREE ENERGY PREDICTED BY IDOCK:   -3.42 KCAL/MOL
REMARK 924 INTRA-LIGAND FREE ENERGY PREDICTED BY IDOCK:   -0.18 KCAL/MOL
REMARK 927      BINDING AFFINITY PREDICTED BY RF-SCORE:    0.00 PKD
ROOT
HETATM    1  C   UNK A   0     -10.524  19.357  66.554  1.00  0.00    -0.572 C  
HETATM    2  C   UNK A   0     -10.306  18.290  67.590  1.00  0.00    -0.396 C  
HETATM    3  O   UNK A   0      -9.918  18.535  68.725  1.00  0.00    -0.374 OA 
ATOM      4  N   CYS A   1     -10.461  17.002  67.119  1.00  0.00    -0.313 N  
ATOM      5  H   CYS A   1     -10.630  16.839  66.126  1.00  0.00     0.000 HD 
ENDROOT
BRANCH   4   6
ATOM      6  CA  CYS A   1     -10.384  15.856  68.053  1.00  0.00    -0.262 C  
ATOM      7  O   CYS A   1      -9.722  14.734  66.007  1.00  0.00    -0.295 OA 
ATOM      8  C   CYS A   1      -9.957  14.573  67.330  1.00  0.00    -0.227 C  
ATOM      9  OXT CYS A   1      -9.874  13.481  67.876  1.00  0.00    -0.221 OA 
BRANCH   6  10
ATOM     10  CB  CYS A   1     -11.729  15.571  68.735  1.00  0.00    -0.357 C  
ATOM     11  SG  CYS A   1     -11.623  15.768  70.548  1.00  0.00    -0.402 SA 
ATOM     12  HG  CYS A   1     -12.841  15.509  71.165  1.00  0.00     0.000 H  
ENDBRANCH   6  10
ENDBRANCH   4   6
TORSDOF 2
ENDMDL
MODEL       57
REMARK 921   NORMALIZED FREE ENERGY PREDICTED BY IDOCK:   -3.08 KCAL/MOL
REMARK 922        TOTAL FREE ENERGY PREDICTED BY IDOCK:   -3.60 KCAL/MOL
REMARK 923 INTER-LIGAND FREE ENERGY PREDICTED BY IDOCK:   -3.44 KCAL/MOL
REMARK 924 INTRA-LIGAND FREE ENERGY PREDICTED BY IDOCK:   -0.16 KCAL/MOL
REMARK 927      BINDING AFFINITY PREDICTED BY RF-SCORE:    0.00 PKD
ROOT
HETATM    1  C   UNK A   0     -10.651  20.075  67.293  1.00  0.00    -0.442 C  
HETATM    2  C   UNK A   0     -10.526  18.678  66.753  1.00  0.00    -0.408 C  
HETATM    3  O   UNK A   0     -10.599  18.418  65.560  1.00  0.00    -0.627 OA 
ATOM      4  N   CYS A   1     -10.443  17.700  67.724  1.00  0.00    -0.367 N  
ATOM      5  H   CYS A   1     -10.545  17.948  68.708  1.00  0.00     0.000 HD 
ENDROOT
BRANCH   4   6
ATOM      6  CA  CYS A   1     -10.206  16.290  67.338  1.00  0.00    -0.275 C  
ATOM      7  O   CYS A   1     -11.754  15.937  69.171  1.00  0.00    -0.376 OA 
ATOM      8  C   CYS A   1     -10.996  15.326  68.232  1.00  0.00    -0.276 C  
ATOM      9  OXT CYS A   1     -10.924  14.108  68.146  1.00  0.00    -0.239 OA 
BRANCH   6  10
ATOM     10  CB  CYS A   1      -8.726  15.901  67.441  1.00  0.00    -0.181 C  
ATOM     11  SG  CYS A   1      -7.834  16.946  68.645  1.00  0.00    -0.250 SA 
ATOM     12  HG  CYS A   1      -6.493  16.593  68.738  1.00  0.00     0.000 H  
ENDBRANCH   6  10
ENDBRANCH   4   6
TORSDOF 2
ENDMDL
MODEL       58
REMARK 921   NORMALIZED FREE ENERGY PREDICTED BY IDOCK:   -3.06 KCAL/MOL
REMARK 922        TOTAL FREE ENERGY PREDICTED BY IDOCK:   -3.59 KCAL/MOL
REMARK 923 INTER-LIGAND FREE ENERGY PREDICTED BY IDOCK:   -3.38 KCAL/MOL
REMARK 924 INTRA-LIGAND FREE ENERGY PREDICTED BY IDOCK:   -0.20 KCAL/MOL
REMARK 927      BINDING AFFINITY PREDICTED BY RF-SCORE:    0.00 PKD
ROOT
HETATM    1  C   UNK A   0     -10.963  10.549  68.391  1.00  0.00    -0.310 C  
HETATM    2  C   UNK A   0     -10.669   9.816  69.670  1.00  0.00    -0.242 C  
HETATM    3  O   UNK A   0      -9.584   9.872  70.234  1.00  0.00    -0.239 OA 
ATOM      4  N   CYS A   1     -11.682   8.978  70.090  1.00  0.00    -0.463 N  
ATOM      5  H   CYS A   1     -12.506   8.842  69.505  1.00  0.00     0.000 HD 
ENDROOT
BRANCH   4   6
ATOM      6  CA  CYS A   1     -11.575   8.277  71.390  1.00  0.00    -0.280 C  
ATOM      7  O   CYS A   1     -11.671   6.353  69.917  1.00  0.00    -0.426 OA 
ATOM      8  C   CYS A   1     -11.584   6.755  71.207  1.00  0.00    -0.320 C  
ATOM      9  OXT CYS A   1     -11.561   5.959  72.135  1.00  0.00    -0.296 OA 
BRANCH   6  10
ATOM     10  CB  CYS A   1     -12.729   8.631  72.337  1.00  0.00    -0.362 C  
ATOM     11  SG  CYS A   1     -14.355   8.286  71.581  1.00  0.00    -0.446 SA 
ATOM     12  HG  CYS A   1     -15.400   8.607  72.439  1.00  0.00     0.000 H  
ENDBRANCH   6  10
ENDBRANCH   4   6
TORSDOF 2
ENDMDL
MODEL       59
REMARK 921   NORMALIZED FREE ENERGY PREDICTED BY IDOCK:   -3.04 KCAL/MOL
REMARK 922        TOTAL FREE ENERGY PREDICTED BY IDOCK:   -3.56 KCAL/MOL
REMARK 923 INTER-LIGAND FREE ENERGY PREDICTED BY IDOCK:   -3.38 KCAL/MOL
REMARK 924 INTRA-LIGAND FREE ENERGY PREDICTED BY IDOCK:   -0.18 KCAL/MOL
REMARK 927      BINDING AFFINITY PREDICTED BY RF-SCORE:    0.00 PKD
ROOT
HETATM    1  C   UNK A   0     -12.686   7.794  71.697  1.00  0.00    -0.358 C  
HETATM    2  C   UNK A   0     -11.843   8.993  71.365  1.00  0.00    -0.325 C  
HETATM    3  O   UNK A   0     -10.669   9.091  71.695  1.00  0.00    -0.321 OA 
ATOM      4  N   CYS A   1     -12.535  10.026  70.765  1.00  0.00    -0.410 N  
ATOM      5  H   CYS A   1     -13.547   9.963  70.652  1.00  0.00     0.000 HD 
ENDROOT
BRANCH   4   6
ATOM      6  CA  CYS A   1     -11.811  11.224  70.285  1.00  0.00    -0.357 C  
ATOM      7  O   CYS A   1     -13.336  12.289  71.841  1.00  0.00    -0.463 OA 
ATOM      8  C   CYS A   1     -12.340  12.501  70.949  1.00  0.00    -0.255 C  
ATOM      9  OXT CYS A   1     -11.940  13.624  70.678  1.00  0.00    -0.319 OA 
BRANCH   6  10
ATOM     10  CB  CYS A   1     -11.939  11.411  68.768  1.00  0.00    -0.287 C  
ATOM     11  SG  CYS A   1     -10.851  10.267  67.851  1.00  0.00    -0.290 SA 
ATOM     12  HG  CYS A   1     -10.967  10.437  66.476  1.00  0.00     0.000 H  
ENDBRANCH   6  10
ENDBRANCH   4   6
TORSDOF 2
ENDMDL
MODEL       60
REMARK 921   NORMALIZED FREE ENERGY PREDICTED BY IDOCK:   -3.03 KCAL/MOL
REMARK 922        TOTAL FREE ENERGY PREDICTED BY IDOCK:   -3.55 KCAL/MOL
REMARK 923 INTER-LIGAND FREE ENERGY PREDICTED BY IDOCK:   -3.34 KCAL/MOL
REMARK 924 INTRA-LIGAND FREE ENERGY PREDICTED BY IDOCK:   -0.20 KCAL/MOL
REMARK 927      BINDING AFFINITY PREDICTED BY RF-SCORE:    0.00 PKD
ROOT
HETATM    1  C   UNK A   0     -10.568  19.771  66.744  1.00  0.00    -0.586 C  
HETATM    2  C   UNK A   0     -10.412  18.455  67.453  1.00  0.00    -0.415 C  
HETATM    3  O   UNK A   0     -10.329  18.362  68.670  1.00  0.00    -0.363 OA 
ATOM      4  N   CYS A   1     -10.247  17.372  66.612  1.00  0.00    -0.316 N  
ATOM      5  H   CYS A   1     -10.164  17.517  65.605  1.00  0.00     0.000 HD 
ENDROOT
BRANCH   4   6
ATOM      6  CA  CYS A   1     -10.192  16.002  67.169  1.00  0.00    -0.278 C  
ATOM      7  O   CYS A   1      -7.933  16.160  66.299  1.00  0.00    -0.271 OA 
ATOM      8  C   CYS A   1      -8.818  15.360  66.939  1.00  0.00    -0.253 C  
ATOM      9  OXT CYS A   1      -8.542  14.213  67.260  1.00  0.00    -0.196 OA 
BRANCH   6  10
ATOM     10  CB  CYS A   1     -11.240  15.076  66.538  1.00  0.00    -0.312 C  
ATOM     11  SG  CYS A   1     -11.192  15.145  64.713  1.00  0.00    -0.353 SA 
ATOM     12  HG  CYS A   1     -12.142  14.306  64.142  1.00  0.00     0.000 H  
ENDBRANCH   6  10
ENDBRANCH   4   6
TORSDOF 2
ENDMDL
MODEL       61
REMARK 921   NORMALIZED FREE ENERGY PREDICTED BY IDOCK:   -3.00 KCAL/MOL
REMARK 922        TOTAL FREE ENERGY PREDICTED BY IDOCK:   -3.51 KCAL/MOL
REMARK 923 INTER-LIGAND FREE ENERGY PREDICTED BY IDOCK:   -3.35 KCAL/MOL
REMARK 924 INTRA-LIGAND FREE ENERGY PREDICTED BY IDOCK:   -0.15 KCAL/MOL
REMARK 927      BINDING AFFINITY PREDICTED BY RF-SCORE:    0.00 PKD
ROOT
HETATM    1  C   UNK A   0     -10.415   5.502  69.488  1.00  0.00    -0.368 C  
HETATM    2  C   UNK A   0     -10.677   6.432  70.640  1.00  0.00    -0.257 C  
HETATM    3  O   UNK A   0     -10.233   6.239  71.763  1.00  0.00    -0.192 OA 
ATOM      4  N   CYS A   1     -11.558   7.455  70.354  1.00  0.00    -0.452 N  
ATOM      5  H   CYS A   1     -12.027   7.485  69.449  1.00  0.00     0.000 HD 
ENDROOT
BRANCH   4   6
ATOM      6  CA  CYS A   1     -11.824   8.507  71.360  1.00  0.00    -0.296 C  
ATOM      7  O   CYS A   1     -13.986   7.410  71.367  1.00  0.00    -0.411 OA 
ATOM      8  C   CYS A   1     -13.258   8.421  71.895  1.00  0.00    -0.357 C  
ATOM      9  OXT CYS A   1     -13.734   9.214  72.695  1.00  0.00    -0.470 OA 
BRANCH   6  10
ATOM     10  CB  CYS A   1     -11.633   9.918  70.788  1.00  0.00    -0.349 C  
ATOM     11  SG  CYS A   1     -10.035  10.086  69.920  1.00  0.00    -0.204 SA 
ATOM     12  HG  CYS A   1      -9.862  11.364  69.402  1.00  0.00     0.000 H  
ENDBRANCH   6  10
ENDBRANCH   4   6
TORSDOF 2
ENDMDL
MODEL       62
REMARK 921   NORMALIZED FREE ENERGY PREDICTED BY IDOCK:   -2.99 KCAL/MOL
REMARK 922        TOTAL FREE ENERGY PREDICTED BY IDOCK:   -3.51 KCAL/MOL
REMARK 923 INTER-LIGAND FREE ENERGY PREDICTED BY IDOCK:   -3.34 KCAL/MOL
REMARK 924 INTRA-LIGAND FREE ENERGY PREDICTED BY IDOCK:   -0.17 KCAL/MOL
REMARK 927      BINDING AFFINITY PREDICTED BY RF-SCORE:    0.00 PKD
ROOT
HETATM    1  C   UNK A   0     -12.679  13.580  65.609  1.00  0.00    -0.478 C  
HETATM    2  C   UNK A   0     -11.643  13.817  66.672  1.00  0.00    -0.369 C  
HETATM    3  O   UNK A   0     -10.596  13.188  66.731  1.00  0.00    -0.261 OA 
ATOM      4  N   CYS A   1     -12.025  14.717  67.647  1.00  0.00    -0.524 N  
ATOM      5  H   CYS A   1     -12.971  15.100  67.645  1.00  0.00     0.000 HD 
ENDROOT
BRANCH   4   6
ATOM      6  CA  CYS A   1     -11.064  15.129  68.694  1.00  0.00    -0.271 C  
ATOM      7  O   CYS A   1     -12.837  14.269  70.109  1.00  0.00    -0.281 OA 
ATOM      8  C   CYS A   1     -11.612  14.845  70.099  1.00  0.00    -0.289 C  
ATOM      9  OXT CYS A   1     -11.027  15.145  71.130  1.00  0.00    -0.282 OA 
BRANCH   6  10
ATOM     10  CB  CYS A   1     -10.737  16.626  68.626  1.00  0.00    -0.349 C  
ATOM     11  SG  CYS A   1      -9.018  16.918  68.082  1.00  0.00    -0.234 SA 
ATOM     12  HG  CYS A   1      -8.722  18.275  68.020  1.00  0.00     0.000 H  
ENDBRANCH   6  10
ENDBRANCH   4   6
TORSDOF 2
ENDMDL
MODEL       63
REMARK 921   NORMALIZED FREE ENERGY PREDICTED BY IDOCK:   -2.99 KCAL/MOL
REMARK 922        TOTAL FREE ENERGY PREDICTED BY IDOCK:   -3.50 KCAL/MOL
REMARK 923 INTER-LIGAND FREE ENERGY PREDICTED BY IDOCK:   -3.30 KCAL/MOL
REMARK 924 INTRA-LIGAND FREE ENERGY PREDICTED BY IDOCK:   -0.20 KCAL/MOL
REMARK 927      BINDING AFFINITY PREDICTED BY RF-SCORE:    0.00 PKD
ROOT
HETATM    1  C   UNK A   0     -12.182  14.208  64.165  1.00  0.00    -0.423 C  
HETATM    2  C   UNK A   0     -11.812  12.774  64.424  1.00  0.00    -0.384 C  
HETATM    3  O   UNK A   0     -12.200  11.850  63.721  1.00  0.00    -0.458 OA 
ATOM      4  N   CYS A   1     -11.098  12.573  65.588  1.00  0.00    -0.292 N  
ATOM      5  H   CYS A   1     -10.933  13.353  66.225  1.00  0.00     0.000 HD 
ENDROOT
BRANCH   4   6
ATOM      6  CA  CYS A   1     -10.573  11.228  65.914  1.00  0.00    -0.253 C  
ATOM      7  O   CYS A   1     -11.945  11.596  67.880  1.00  0.00    -0.599 OA 
ATOM      8  C   CYS A   1     -11.103  10.732  67.265  1.00  0.00    -0.270 C  
ATOM      9  OXT CYS A   1     -10.771   9.673  67.778  1.00  0.00    -0.258 OA 
BRANCH   6  10
ATOM     10  CB  CYS A   1      -9.041  11.206  65.987  1.00  0.00    -0.203 C  
ATOM     11  SG  CYS A   1      -8.398  12.507  67.095  1.00  0.00    -0.154 SA 
ATOM     12  HG  CYS A   1      -7.009  12.486  67.162  1.00  0.00     0.000 H  
ENDBRANCH   6  10
ENDBRANCH   4   6
TORSDOF 2
ENDMDL
MODEL       64
REMARK 921   NORMALIZED FREE ENERGY PREDICTED BY IDOCK:   -2.97 KCAL/MOL
REMARK 922        TOTAL FREE ENERGY PREDICTED BY IDOCK:   -3.48 KCAL/MOL
REMARK 923 INTER-LIGAND FREE ENERGY PREDICTED BY IDOCK:   -3.28 KCAL/MOL
REMARK 924 INTRA-LIGAND FREE ENERGY PREDICTED BY IDOCK:   -0.20 KCAL/MOL
REMARK 927      BINDING AFFINITY PREDICTED BY RF-SCORE:    0.00 PKD
ROOT
HETATM    1  C   UNK A   0     -11.132  16.231  69.439  1.00  0.00    -0.328 C  
HETATM    2  C   UNK A   0     -11.685  14.971  68.834  1.00  0.00    -0.328 C  
HETATM    3  O   UNK A   0     -12.349  14.165  69.470  1.00  0.00    -0.328 OA 
ATOM      4  N   CYS A   1     -11.281  14.740  67.534  1.00  0.00    -0.320 N  
ATOM      5  H   CYS A   1     -10.599  15.359  67.095  1.00  0.00     0.000 HD 
ENDROOT
BRANCH   4   6
ATOM      6  CA  CYS A   1     -11.835  13.596  66.777  1.00  0.00    -0.413 C  
ATOM      7  O   CYS A   1      -9.480  13.024  66.677  1.00  0.00    -0.246 OA 
ATOM      8  C   CYS A   1     -10.726  12.648  66.305  1.00  0.00    -0.256 C  
ATOM      9  OXT CYS A   1     -10.926  11.659  65.614  1.00  0.00    -0.290 OA 
BRANCH   6  10
ATOM     10  CB  CYS A   1     -12.614  14.045  65.534  1.00  0.00    -0.516 C  
ATOM     11  SG  CYS A   1     -11.618  15.150  64.475  1.00  0.00    -0.255 SA 
ATOM     12  HG  CYS A   1     -12.324  15.557  63.349  1.00  0.00     0.000 H  
ENDBRANCH   6  10
ENDBRANCH   4   6
TORSDOF 2
ENDMDL
MODEL       65
REMARK 921   NORMALIZED FREE ENERGY PREDICTED BY IDOCK:   -2.94 KCAL/MOL
REMARK 922        TOTAL FREE ENERGY PREDICTED BY IDOCK:   -3.44 KCAL/MOL
REMARK 923 INTER-LIGAND FREE ENERGY PREDICTED BY IDOCK:   -3.38 KCAL/MOL
REMARK 924 INTRA-LIGAND FREE ENERGY PREDICTED BY IDOCK:   -0.06 KCAL/MOL
REMARK 927      BINDING AFFINITY PREDICTED BY RF-SCORE:    0.00 PKD
ROOT
HETATM    1  C   UNK A   0     -11.948  15.732  70.974  1.00  0.00    -0.462 C  
HETATM    2  C   UNK A   0     -10.976  15.858  69.834  1.00  0.00    -0.343 C  
HETATM    3  O   UNK A   0     -10.385  14.900  69.356  1.00  0.00    -0.235 OA 
ATOM      4  N   CYS A   1     -10.714  17.159  69.453  1.00  0.00    -0.366 N  
ATOM      5  H   CYS A   1     -11.109  17.935  69.985  1.00  0.00     0.000 HD 
ENDROOT
BRANCH   4   6
ATOM      6  CA  CYS A   1      -9.861  17.429  68.274  1.00  0.00    -0.310 C  
ATOM      7  O   CYS A   1      -9.915  19.656  69.233  1.00  0.00    -0.436 OA 
ATOM      8  C   CYS A   1      -9.445  18.904  68.211  1.00  0.00    -0.348 C  
ATOM      9  OXT CYS A   1      -8.784  19.385  67.301  1.00  0.00    -0.285 OA 
BRANCH   6  10
ATOM     10  CB  CYS A   1     -10.572  17.097  66.955  1.00  0.00    -0.227 C  
ATOM     11  SG  CYS A   1      -9.668  15.829  66.001  1.00  0.00    -0.365 SA 
ATOM     12  HG  CYS A   1     -10.312  15.529  64.806  1.00  0.00     0.000 H  
ENDBRANCH   6  10
ENDBRANCH   4   6
TORSDOF 2
ENDMDL
MODEL       66
REMARK 921   NORMALIZED FREE ENERGY PREDICTED BY IDOCK:   -2.93 KCAL/MOL
REMARK 922        TOTAL FREE ENERGY PREDICTED BY IDOCK:   -3.44 KCAL/MOL
REMARK 923 INTER-LIGAND FREE ENERGY PREDICTED BY IDOCK:   -3.28 KCAL/MOL
REMARK 924 INTRA-LIGAND FREE ENERGY PREDICTED BY IDOCK:   -0.16 KCAL/MOL
REMARK 927      BINDING AFFINITY PREDICTED BY RF-SCORE:    0.00 PKD
ROOT
HETATM    1  C   UNK A   0     -10.903   6.582  67.182  1.00  0.00    -0.472 C  
HETATM    2  C   UNK A   0     -10.778   7.126  68.578  1.00  0.00    -0.152 C  
HETATM    3  O   UNK A   0      -9.972   7.994  68.884  1.00  0.00    -0.183 OA 
ATOM      4  N   CYS A   1     -11.564   6.479  69.511  1.00  0.00    -0.642 N  
ATOM      5  H   CYS A   1     -12.103   5.657  69.241  1.00  0.00     0.000 HD 
ENDROOT
BRANCH   4   6
ATOM      6  CA  CYS A   1     -11.625   6.979  70.903  1.00  0.00    -0.328 C  
ATOM      7  O   CYS A   1     -10.483   4.875  71.295  1.00  0.00    -0.185 OA 
ATOM      8  C   CYS A   1     -10.985   5.986  71.882  1.00  0.00    -0.264 C  
ATOM      9  OXT CYS A   1     -10.961   6.147  73.094  1.00  0.00    -0.257 OA 
BRANCH   6  10
ATOM     10  CB  CYS A   1     -13.066   7.218  71.371  1.00  0.00    -0.361 C  
ATOM     11  SG  CYS A   1     -13.315   8.934  71.943  1.00  0.00    -0.433 SA 
ATOM     12  HG  CYS A   1     -14.621   9.151  72.368  1.00  0.00     0.000 H  
ENDBRANCH   6  10
ENDBRANCH   4   6
TORSDOF 2
ENDMDL
MODEL       67
REMARK 921   NORMALIZED FREE ENERGY PREDICTED BY IDOCK:   -2.93 KCAL/MOL
REMARK 922        TOTAL FREE ENERGY PREDICTED BY IDOCK:   -3.43 KCAL/MOL
REMARK 923 INTER-LIGAND FREE ENERGY PREDICTED BY IDOCK:   -3.23 KCAL/MOL
REMARK 924 INTRA-LIGAND FREE ENERGY PREDICTED BY IDOCK:   -0.20 KCAL/MOL
REMARK 927      BINDING AFFINITY PREDICTED BY RF-SCORE:    0.00 PKD
ROOT
HETATM    1  C   UNK A   0     -14.376   7.455  71.241  1.00  0.00    -0.408 C  
HETATM    2  C   UNK A   0     -13.315   8.095  72.092  1.00  0.00    -0.219 C  
HETATM    3  O   UNK A   0     -13.486   9.152  72.683  1.00  0.00    -0.463 OA 
ATOM      4  N   CYS A   1     -12.093   7.453  72.054  1.00  0.00    -0.321 N  
ATOM      5  H   CYS A   1     -11.951   6.664  71.423  1.00  0.00     0.000 HD 
ENDROOT
BRANCH   4   6
ATOM      6  CA  CYS A   1     -10.989   7.909  72.928  1.00  0.00    -0.388 C  
ATOM      7  O   CYS A   1     -10.013   8.424  70.768  1.00  0.00    -0.183 OA 
ATOM      8  C   CYS A   1      -9.813   8.451  72.106  1.00  0.00    -0.302 C  
ATOM      9  OXT CYS A   1      -8.761   8.836  72.597  1.00  0.00    -0.408 OA 
BRANCH   6  10
ATOM     10  CB  CYS A   1     -10.446   6.780  73.814  1.00  0.00    -0.354 C  
ATOM     11  SG  CYS A   1     -10.079   5.276  72.844  1.00  0.00    -0.180 SA 
ATOM     12  HG  CYS A   1      -9.587   4.254  73.647  1.00  0.00     0.000 H  
ENDBRANCH   6  10
ENDBRANCH   4   6
TORSDOF 2
ENDMDL
MODEL       68
REMARK 921   NORMALIZED FREE ENERGY PREDICTED BY IDOCK:   -2.93 KCAL/MOL
REMARK 922        TOTAL FREE ENERGY PREDICTED BY IDOCK:   -3.43 KCAL/MOL
REMARK 923 INTER-LIGAND FREE ENERGY PREDICTED BY IDOCK:   -3.32 KCAL/MOL
REMARK 924 INTRA-LIGAND FREE ENERGY PREDICTED BY IDOCK:   -0.11 KCAL/MOL
REMARK 927      BINDING AFFINITY PREDICTED BY RF-SCORE:    0.00 PKD
ROOT
HETATM    1  C   UNK A   0     -13.857  15.805  72.648  1.00  0.00    -0.597 C  
HETATM    2  C   UNK A   0     -12.532  15.337  72.115  1.00  0.00    -0.357 C  
HETATM    3  O   UNK A   0     -11.538  15.215  72.818  1.00  0.00    -0.399 OA 
ATOM      4  N   CYS A   1     -12.498  15.171  70.745  1.00  0.00    -0.342 N  
ATOM      5  H   CYS A   1     -13.306  15.436  70.179  1.00  0.00     0.000 HD 
ENDROOT
BRANCH   4   6
ATOM      6  CA  CYS A   1     -11.293  14.610  70.095  1.00  0.00    -0.225 C  
ATOM      7  O   CYS A   1     -10.899  16.966  69.676  1.00  0.00    -0.302 OA 
ATOM      8  C   CYS A   1     -10.418  15.715  69.490  1.00  0.00    -0.270 C  
ATOM      9  OXT CYS A   1      -9.397  15.500  68.853  1.00  0.00    -0.193 OA 
BRANCH   6  10
ATOM     10  CB  CYS A   1     -11.644  13.634  68.964  1.00  0.00    -0.312 C  
ATOM     11  SG  CYS A   1     -11.904  11.938  69.592  1.00  0.00    -0.325 SA 
ATOM     12  HG  CYS A   1     -12.222  11.054  68.567  1.00  0.00     0.000 H  
ENDBRANCH   6  10
ENDBRANCH   4   6
TORSDOF 2
ENDMDL
MODEL       69
REMARK 921   NORMALIZED FREE ENERGY PREDICTED BY IDOCK:   -2.90 KCAL/MOL
REMARK 922        TOTAL FREE ENERGY PREDICTED BY IDOCK:   -3.40 KCAL/MOL
REMARK 923 INTER-LIGAND FREE ENERGY PREDICTED BY IDOCK:   -3.25 KCAL/MOL
REMARK 924 INTRA-LIGAND FREE ENERGY PREDICTED BY IDOCK:   -0.16 KCAL/MOL
REMARK 927      BINDING AFFINITY PREDICTED BY RF-SCORE:    0.00 PKD
ROOT
HETATM    1  C   UNK A   0     -12.620  10.512  71.139  1.00  0.00    -0.520 C  
HETATM    2  C   UNK A   0     -11.458  10.243  70.225  1.00  0.00    -0.317 C  
HETATM    3  O   UNK A   0     -10.356   9.902  70.633  1.00  0.00    -0.286 OA 
ATOM      4  N   CYS A   1     -11.702  10.531  68.897  1.00  0.00    -0.502 N  
ATOM      5  H   CYS A   1     -12.585  10.964  68.623  1.00  0.00     0.000 HD 
ENDROOT
BRANCH   4   6
ATOM      6  CA  CYS A   1     -10.686  10.212  67.869  1.00  0.00    -0.269 C  
ATOM      7  O   CYS A   1     -11.938  11.904  66.665  1.00  0.00    -0.601 OA 
ATOM      8  C   CYS A   1     -10.895  11.044  66.598  1.00  0.00    -0.225 C  
ATOM      9  OXT CYS A   1     -10.217  10.923  65.588  1.00  0.00    -0.247 OA 
BRANCH   6  10
ATOM     10  CB  CYS A   1     -10.719   8.734  67.459  1.00  0.00    -0.143 C  
ATOM     11  SG  CYS A   1      -9.110   7.917  67.741  1.00  0.00    -0.134 SA 
ATOM     12  HG  CYS A   1      -9.140   6.578  67.370  1.00  0.00     0.000 H  
ENDBRANCH   6  10
ENDBRANCH   4   6
TORSDOF 2
ENDMDL
MODEL       70
REMARK 921   NORMALIZED FREE ENERGY PREDICTED BY IDOCK:   -2.89 KCAL/MOL
REMARK 922        TOTAL FREE ENERGY PREDICTED BY IDOCK:   -3.40 KCAL/MOL
REMARK 923 INTER-LIGAND FREE ENERGY PREDICTED BY IDOCK:   -3.20 KCAL/MOL
REMARK 924 INTRA-LIGAND FREE ENERGY PREDICTED BY IDOCK:   -0.19 KCAL/MOL
REMARK 927      BINDING AFFINITY PREDICTED BY RF-SCORE:    0.00 PKD
ROOT
HETATM    1  C   UNK A   0     -10.760  19.553  67.108  1.00  0.00    -0.599 C  
HETATM    2  C   UNK A   0      -9.262  19.445  67.160  1.00  0.00    -0.313 C  
HETATM    3  O   UNK A   0      -8.532  19.897  66.288  1.00  0.00    -0.348 OA 
ATOM      4  N   CYS A   1      -8.783  18.688  68.210  1.00  0.00    -0.314 N  
ATOM      5  H   CYS A   1      -9.435  18.198  68.824  1.00  0.00     0.000 HD 
ENDROOT
BRANCH   4   6
ATOM      6  CA  CYS A   1      -7.326  18.586  68.448  1.00  0.00    -0.283 C  
ATOM      7  O   CYS A   1      -7.996  16.377  69.191  1.00  0.00    -0.239 OA 
ATOM      8  C   CYS A   1      -6.948  17.217  69.027  1.00  0.00    -0.235 C  
ATOM      9  OXT CYS A   1      -5.812  16.910  69.359  1.00  0.00    -0.168 OA 
BRANCH   6  10
ATOM     10  CB  CYS A   1      -6.823  19.653  69.430  1.00  0.00    -0.342 C  
ATOM     11  SG  CYS A   1      -5.693  20.838  68.620  1.00  0.00    -0.360 SA 
ATOM     12  HG  CYS A   1      -5.237  21.804  69.509  1.00  0.00     0.000 H  
ENDBRANCH   6  10
ENDBRANCH   4   6
TORSDOF 2
ENDMDL
MODEL       71
REMARK 921   NORMALIZED FREE ENERGY PREDICTED BY IDOCK:   -2.89 KCAL/MOL
REMARK 922        TOTAL FREE ENERGY PREDICTED BY IDOCK:   -3.39 KCAL/MOL
REMARK 923 INTER-LIGAND FREE ENERGY PREDICTED BY IDOCK:   -3.20 KCAL/MOL
REMARK 924 INTRA-LIGAND FREE ENERGY PREDICTED BY IDOCK:   -0.19 KCAL/MOL
REMARK 927      BINDING AFFINITY PREDICTED BY RF-SCORE:    0.00 PKD
ROOT
HETATM    1  C   UNK A   0     -10.137   8.475  66.812  1.00  0.00    -0.369 C  
HETATM    2  C   UNK A   0     -10.774   7.334  67.554  1.00  0.00    -0.256 C  
HETATM    3  O   UNK A   0     -11.230   6.348  66.991  1.00  0.00    -0.373 OA 
ATOM      4  N   CYS A   1     -10.913   7.545  68.911  1.00  0.00    -0.424 N  
ATOM      5  H   CYS A   1     -10.662   8.449  69.313  1.00  0.00     0.000 HD 
ENDROOT
BRANCH   4   6
ATOM      6  CA  CYS A   1     -11.424   6.464  69.782  1.00  0.00    -0.399 C  
ATOM      7  O   CYS A   1     -12.060   8.379  71.127  1.00  0.00    -0.289 OA 
ATOM      8  C   CYS A   1     -12.068   7.027  71.054  1.00  0.00    -0.368 C  
ATOM      9  OXT CYS A   1     -12.515   6.332  71.955  1.00  0.00    -0.306 OA 
BRANCH   6  10
ATOM     10  CB  CYS A   1     -10.314   5.498  70.220  1.00  0.00    -0.279 C  
ATOM     11  SG  CYS A   1      -8.847   6.391  70.841  1.00  0.00    -0.136 SA 
ATOM     12  HG  CYS A   1      -7.843   5.517  71.238  1.00  0.00     0.000 H  
ENDBRANCH   6  10
ENDBRANCH   4   6
TORSDOF 2
ENDMDL
MODEL       72
REMARK 921   NORMALIZED FREE ENERGY PREDICTED BY IDOCK:   -2.88 KCAL/MOL
REMARK 922        TOTAL FREE ENERGY PREDICTED BY IDOCK:   -3.38 KCAL/MOL
REMARK 923 INTER-LIGAND FREE ENERGY PREDICTED BY IDOCK:   -3.23 KCAL/MOL
REMARK 924 INTRA-LIGAND FREE ENERGY PREDICTED BY IDOCK:   -0.15 KCAL/MOL
REMARK 927      BINDING AFFINITY PREDICTED BY RF-SCORE:    0.00 PKD
ROOT
HETATM    1  C   UNK A   0     -12.709  13.863  65.292  1.00  0.00    -0.485 C  
HETATM    2  C   UNK A   0     -11.483  14.582  65.783  1.00  0.00    -0.342 C  
HETATM    3  O   UNK A   0     -10.535  14.849  65.057  1.00  0.00    -0.393 OA 
ATOM      4  N   CYS A   1     -11.463  14.806  67.145  1.00  0.00    -0.364 N  
ATOM      5  H   CYS A   1     -12.203  14.425  67.735  1.00  0.00     0.000 HD 
ENDROOT
BRANCH   4   6
ATOM      6  CA  CYS A   1     -10.370  15.599  67.750  1.00  0.00    -0.266 C  
ATOM      7  O   CYS A   1      -9.754  13.400  68.568  1.00  0.00    -0.218 OA 
ATOM      8  C   CYS A   1      -9.423  14.713  68.569  1.00  0.00    -0.216 C  
ATOM      9  OXT CYS A   1      -8.475  15.142  69.210  1.00  0.00    -0.211 OA 
BRANCH   6  10
ATOM     10  CB  CYS A   1     -10.897  16.694  68.687  1.00  0.00    -0.344 C  
ATOM     11  SG  CYS A   1     -10.081  18.298  68.378  1.00  0.00    -0.391 SA 
ATOM     12  HG  CYS A   1     -10.559  19.290  69.226  1.00  0.00     0.000 H  
ENDBRANCH   6  10
ENDBRANCH   4   6
TORSDOF 2
ENDMDL
MODEL       73
REMARK 921   NORMALIZED FREE ENERGY PREDICTED BY IDOCK:   -2.87 KCAL/MOL
REMARK 922        TOTAL FREE ENERGY PREDICTED BY IDOCK:   -3.37 KCAL/MOL
REMARK 923 INTER-LIGAND FREE ENERGY PREDICTED BY IDOCK:   -3.36 KCAL/MOL
REMARK 924 INTRA-LIGAND FREE ENERGY PREDICTED BY IDOCK:   -0.01 KCAL/MOL
REMARK 927      BINDING AFFINITY PREDICTED BY RF-SCORE:    0.00 PKD
ROOT
HETATM    1  C   UNK A   0     -13.099  11.444  71.779  1.00  0.00    -0.523 C  
HETATM    2  C   UNK A   0     -12.107  10.525  71.122  1.00  0.00    -0.370 C  
HETATM    3  O   UNK A   0     -11.502  10.821  70.101  1.00  0.00    -0.289 OA 
ATOM      4  N   CYS A   1     -12.027   9.272  71.697  1.00  0.00    -0.354 N  
ATOM      5  H   CYS A   1     -12.666   9.015  72.449  1.00  0.00     0.000 HD 
ENDROOT
BRANCH   4   6
ATOM      6  CA  CYS A   1     -11.015   8.302  71.222  1.00  0.00    -0.243 C  
ATOM      7  O   CYS A   1     -12.959   6.851  71.257  1.00  0.00    -0.350 OA 
ATOM      8  C   CYS A   1     -11.632   6.915  70.998  1.00  0.00    -0.328 C  
ATOM      9  OXT CYS A   1     -10.988   5.932  70.659  1.00  0.00    -0.293 OA 
BRANCH   6  10
ATOM     10  CB  CYS A   1      -9.861   8.133  72.219  1.00  0.00    -0.260 C  
ATOM     11  SG  CYS A   1     -10.353   7.128  73.661  1.00  0.00    -0.345 SA 
ATOM     12  HG  CYS A   1      -9.307   6.976  74.564  1.00  0.00     0.000 H  
ENDBRANCH   6  10
ENDBRANCH   4   6
TORSDOF 2
ENDMDL
MODEL       74
REMARK 921   NORMALIZED FREE ENERGY PREDICTED BY IDOCK:   -2.86 KCAL/MOL
REMARK 922        TOTAL FREE ENERGY PREDICTED BY IDOCK:   -3.36 KCAL/MOL
REMARK 923 INTER-LIGAND FREE ENERGY PREDICTED BY IDOCK:   -3.16 KCAL/MOL
REMARK 924 INTRA-LIGAND FREE ENERGY PREDICTED BY IDOCK:   -0.20 KCAL/MOL
REMARK 927      BINDING AFFINITY PREDICTED BY RF-SCORE:    0.00 PKD
ROOT
HETATM    1  C   UNK A   0     -10.974   6.696  67.050  1.00  0.00    -0.463 C  
HETATM    2  C   UNK A   0     -10.466   6.852  68.456  1.00  0.00    -0.203 C  
HETATM    3  O   UNK A   0      -9.599   6.131  68.933  1.00  0.00    -0.128 OA 
ATOM      4  N   CYS A   1     -11.142   7.795  69.203  1.00  0.00    -0.428 N  
ATOM      5  H   CYS A   1     -11.962   8.260  68.814  1.00  0.00     0.000 HD 
ENDROOT
BRANCH   4   6
ATOM      6  CA  CYS A   1     -10.680   8.131  70.568  1.00  0.00    -0.225 C  
ATOM      7  O   CYS A   1     -12.755   7.007  71.128  1.00  0.00    -0.381 OA 
ATOM      8  C   CYS A   1     -11.675   7.649  71.631  1.00  0.00    -0.281 C  
ATOM      9  OXT CYS A   1     -11.543   7.856  72.829  1.00  0.00    -0.383 OA 
BRANCH   6  10
ATOM     10  CB  CYS A   1     -10.498   9.642  70.764  1.00  0.00    -0.305 C  
ATOM     11  SG  CYS A   1     -12.016  10.566  70.341  1.00  0.00    -0.359 SA 
ATOM     12  HG  CYS A   1     -11.851  11.935  70.518  1.00  0.00     0.000 H  
ENDBRANCH   6  10
ENDBRANCH   4   6
TORSDOF 2
ENDMDL
MODEL       75
REMARK 921   NORMALIZED FREE ENERGY PREDICTED BY IDOCK:   -2.86 KCAL/MOL
REMARK 922        TOTAL FREE ENERGY PREDICTED BY IDOCK:   -3.35 KCAL/MOL
REMARK 923 INTER-LIGAND FREE ENERGY PREDICTED BY IDOCK:   -3.19 KCAL/MOL
REMARK 924 INTRA-LIGAND FREE ENERGY PREDICTED BY IDOCK:   -0.17 KCAL/MOL
REMARK 927      BINDING AFFINITY PREDICTED BY RF-SCORE:    0.00 PKD
ROOT
HETATM    1  C   UNK A   0     -10.657  19.778  66.264  1.00  0.00    -0.572 C  
HETATM    2  C   UNK A   0     -10.165  19.164  67.545  1.00  0.00    -0.403 C  
HETATM    3  O   UNK A   0     -10.238  19.733  68.626  1.00  0.00    -0.445 OA 
ATOM      4  N   CYS A   1      -9.513  17.958  67.383  1.00  0.00    -0.256 N  
ATOM      5  H   CYS A   1      -9.336  17.597  66.446  1.00  0.00     0.000 HD 
ENDROOT
BRANCH   4   6
ATOM      6  CA  CYS A   1      -9.072  17.188  68.568  1.00  0.00    -0.265 C  
ATOM      7  O   CYS A   1      -6.904  17.854  67.708  1.00  0.00    -0.185 OA 
ATOM      8  C   CYS A   1      -7.543  17.166  68.683  1.00  0.00    -0.258 C  
ATOM      9  OXT CYS A   1      -6.936  16.549  69.547  1.00  0.00    -0.229 OA 
BRANCH   6  10
ATOM     10  CB  CYS A   1      -9.549  15.730  68.523  1.00  0.00    -0.204 C  
ATOM     11  SG  CYS A   1     -11.370  15.612  68.584  1.00  0.00    -0.373 SA 
ATOM     12  HG  CYS A   1     -11.802  14.291  68.544  1.00  0.00     0.000 H  
ENDBRANCH   6  10
ENDBRANCH   4   6
TORSDOF 2
ENDMDL
MODEL       76
REMARK 921   NORMALIZED FREE ENERGY PREDICTED BY IDOCK:   -2.84 KCAL/MOL
REMARK 922        TOTAL FREE ENERGY PREDICTED BY IDOCK:   -3.34 KCAL/MOL
REMARK 923 INTER-LIGAND FREE ENERGY PREDICTED BY IDOCK:   -3.15 KCAL/MOL
REMARK 924 INTRA-LIGAND FREE ENERGY PREDICTED BY IDOCK:   -0.18 KCAL/MOL
REMARK 927      BINDING AFFINITY PREDICTED BY RF-SCORE:    0.00 PKD
ROOT
HETATM    1  C   UNK A   0      -8.624  16.534  66.170  1.00  0.00    -0.334 C  
HETATM    2  C   UNK A   0      -8.924  15.103  66.520  1.00  0.00    -0.291 C  
HETATM    3  O   UNK A   0      -8.283  14.474  67.352  1.00  0.00    -0.176 OA 
ATOM      4  N   CYS A   1      -9.901  14.520  65.739  1.00  0.00    -0.400 N  
ATOM      5  H   CYS A   1     -10.298  15.033  64.951  1.00  0.00     0.000 HD 
ENDROOT
BRANCH   4   6
ATOM      6  CA  CYS A   1     -10.375  13.151  66.042  1.00  0.00    -0.287 C  
ATOM      7  O   CYS A   1     -10.076  12.936  63.645  1.00  0.00    -0.339 OA 
ATOM      8  C   CYS A   1     -10.458  12.294  64.773  1.00  0.00    -0.296 C  
ATOM      9  OXT CYS A   1     -10.874  11.144  64.756  1.00  0.00    -0.289 OA 
BRANCH   6  10
ATOM     10  CB  CYS A   1     -11.766  13.148  66.689  1.00  0.00    -0.375 C  
ATOM     11  SG  CYS A   1     -11.667  13.299  68.506  1.00  0.00    -0.367 SA 
ATOM     12  HG  CYS A   1     -12.928  13.296  69.092  1.00  0.00     0.000 H  
ENDBRANCH   6  10
ENDBRANCH   4   6
TORSDOF 2
ENDMDL
MODEL       77
REMARK 921   NORMALIZED FREE ENERGY PREDICTED BY IDOCK:   -2.84 KCAL/MOL
REMARK 922        TOTAL FREE ENERGY PREDICTED BY IDOCK:   -3.34 KCAL/MOL
REMARK 923 INTER-LIGAND FREE ENERGY PREDICTED BY IDOCK:   -3.17 KCAL/MOL
REMARK 924 INTRA-LIGAND FREE ENERGY PREDICTED BY IDOCK:   -0.17 KCAL/MOL
REMARK 927      BINDING AFFINITY PREDICTED BY RF-SCORE:    0.00 PKD
ROOT
HETATM    1  C   UNK A   0     -14.291   7.530  71.482  1.00  0.00    -0.603 C  
HETATM    2  C   UNK A   0     -12.801   7.338  71.544  1.00  0.00    -0.388 C  
HETATM    3  O   UNK A   0     -12.027   7.901  70.781  1.00  0.00    -0.247 OA 
ATOM      4  N   CYS A   1     -12.388   6.383  72.450  1.00  0.00    -0.542 N  
ATOM      5  H   CYS A   1     -13.079   5.825  72.953  1.00  0.00     0.000 HD 
ENDROOT
BRANCH   4   6
ATOM      6  CA  CYS A   1     -10.944   6.167  72.695  1.00  0.00    -0.256 C  
ATOM      7  O   CYS A   1     -11.780   3.989  73.357  1.00  0.00    -0.158 OA 
ATOM      8  C   CYS A   1     -10.672   4.755  73.229  1.00  0.00    -0.248 C  
ATOM      9  OXT CYS A   1      -9.565   4.355  73.559  1.00  0.00    -0.116 OA 
BRANCH   6  10
ATOM     10  CB  CYS A   1     -10.374   7.160  73.715  1.00  0.00    -0.347 C  
ATOM     11  SG  CYS A   1      -8.920   8.047  73.056  1.00  0.00    -0.263 SA 
ATOM     12  HG  CYS A   1      -8.403   8.947  73.981  1.00  0.00     0.000 H  
ENDBRANCH   6  10
ENDBRANCH   4   6
TORSDOF 2
ENDMDL
MODEL       78
REMARK 921   NORMALIZED FREE ENERGY PREDICTED BY IDOCK:   -2.84 KCAL/MOL
REMARK 922        TOTAL FREE ENERGY PREDICTED BY IDOCK:   -3.34 KCAL/MOL
REMARK 923 INTER-LIGAND FREE ENERGY PREDICTED BY IDOCK:   -3.13 KCAL/MOL
REMARK 924 INTRA-LIGAND FREE ENERGY PREDICTED BY IDOCK:   -0.20 KCAL/MOL
REMARK 927      BINDING AFFINITY PREDICTED BY RF-SCORE:    0.00 PKD
ROOT
HETATM    1  C   UNK A   0     -11.662  13.053  69.828  1.00  0.00    -0.346 C  
HETATM    2  C   UNK A   0     -11.663  11.633  69.334  1.00  0.00    -0.340 C  
HETATM    3  O   UNK A   0     -12.240  11.287  68.311  1.00  0.00    -0.611 OA 
ATOM      4  N   CYS A   1     -11.065  10.733  70.191  1.00  0.00    -0.430 N  
ATOM      5  H   CYS A   1     -10.737  11.041  71.107  1.00  0.00     0.000 HD 
ENDROOT
BRANCH   4   6
ATOM      6  CA  CYS A   1     -10.897   9.320  69.784  1.00  0.00    -0.224 C  
ATOM      7  O   CYS A   1     -11.164   9.006  72.174  1.00  0.00    -0.351 OA 
ATOM      8  C   CYS A   1     -10.958   8.378  70.993  1.00  0.00    -0.246 C  
ATOM      9  OXT CYS A   1     -10.791   7.169  70.922  1.00  0.00    -0.235 OA 
BRANCH   6  10
ATOM     10  CB  CYS A   1      -9.557   9.073  69.079  1.00  0.00    -0.160 C  
ATOM     11  SG  CYS A   1      -8.152   9.715  70.054  1.00  0.00    -0.188 SA 
ATOM     12  HG  CYS A   1      -6.938   9.492  69.415  1.00  0.00     0.000 H  
ENDBRANCH   6  10
ENDBRANCH   4   6
TORSDOF 2
ENDMDL
MODEL       79
REMARK 921   NORMALIZED FREE ENERGY PREDICTED BY IDOCK:   -2.83 KCAL/MOL
REMARK 922        TOTAL FREE ENERGY PREDICTED BY IDOCK:   -3.33 KCAL/MOL
REMARK 923 INTER-LIGAND FREE ENERGY PREDICTED BY IDOCK:   -3.24 KCAL/MOL
REMARK 924 INTRA-LIGAND FREE ENERGY PREDICTED BY IDOCK:   -0.08 KCAL/MOL
REMARK 927      BINDING AFFINITY PREDICTED BY RF-SCORE:    0.00 PKD
ROOT
HETATM    1  C   UNK A   0     -11.696  12.810  64.199  1.00  0.00    -0.465 C  
HETATM    2  C   UNK A   0     -11.344  13.590  65.435  1.00  0.00    -0.289 C  
HETATM    3  O   UNK A   0     -12.182  13.968  66.243  1.00  0.00    -0.433 OA 
ATOM      4  N   CYS A   1     -10.014  13.948  65.521  1.00  0.00    -0.468 N  
ATOM      5  H   CYS A   1      -9.381  13.747  64.746  1.00  0.00     0.000 HD 
ENDROOT
BRANCH   4   6
ATOM      6  CA  CYS A   1      -9.504  14.622  66.736  1.00  0.00    -0.260 C  
ATOM      7  O   CYS A   1      -9.921  16.572  65.355  1.00  0.00    -0.552 OA 
ATOM      8  C   CYS A   1      -9.471  16.145  66.559  1.00  0.00    -0.264 C  
ATOM      9  OXT CYS A   1      -9.039  16.918  67.402  1.00  0.00    -0.215 OA 
BRANCH   6  10
ATOM     10  CB  CYS A   1      -8.082  14.173  67.096  1.00  0.00    -0.115 C  
ATOM     11  SG  CYS A   1      -8.025  12.404  67.547  1.00  0.00    -0.184 SA 
ATOM     12  HG  CYS A   1      -6.737  11.998  67.873  1.00  0.00     0.000 H  
ENDBRANCH   6  10
ENDBRANCH   4   6
TORSDOF 2
ENDMDL
MODEL       80
REMARK 921   NORMALIZED FREE ENERGY PREDICTED BY IDOCK:   -2.83 KCAL/MOL
REMARK 922        TOTAL FREE ENERGY PREDICTED BY IDOCK:   -3.32 KCAL/MOL
REMARK 923 INTER-LIGAND FREE ENERGY PREDICTED BY IDOCK:   -3.14 KCAL/MOL
REMARK 924 INTRA-LIGAND FREE ENERGY PREDICTED BY IDOCK:   -0.18 KCAL/MOL
REMARK 927      BINDING AFFINITY PREDICTED BY RF-SCORE:    0.00 PKD
ROOT
HETATM    1  C   UNK A   0     -10.219  19.968  67.258  1.00  0.00    -0.565 C  
HETATM    2  C   UNK A   0      -9.454  18.674  67.296  1.00  0.00    -0.298 C  
HETATM    3  O   UNK A   0      -8.332  18.552  66.825  1.00  0.00    -0.253 OA 
ATOM      4  N   CYS A   1     -10.171  17.605  67.797  1.00  0.00    -0.337 N  
ATOM      5  H   CYS A   1     -11.157  17.719  68.032  1.00  0.00     0.000 HD 
ENDROOT
BRANCH   4   6
ATOM      6  CA  CYS A   1      -9.509  16.296  67.995  1.00  0.00    -0.223 C  
ATOM      7  O   CYS A   1     -10.714  15.818  65.945  1.00  0.00    -0.321 OA 
ATOM      8  C   CYS A   1      -9.881  15.308  66.883  1.00  0.00    -0.235 C  
ATOM      9  OXT CYS A   1      -9.505  14.145  66.853  1.00  0.00    -0.246 OA 
BRANCH   6  10
ATOM     10  CB  CYS A   1      -9.894  15.647  69.331  1.00  0.00    -0.284 C  
ATOM     11  SG  CYS A   1     -11.705  15.584  69.556  1.00  0.00    -0.383 SA 
ATOM     12  HG  CYS A   1     -12.053  14.997  70.766  1.00  0.00     0.000 H  
ENDBRANCH   6  10
ENDBRANCH   4   6
TORSDOF 2
ENDMDL
MODEL       81
REMARK 921   NORMALIZED FREE ENERGY PREDICTED BY IDOCK:   -2.81 KCAL/MOL
REMARK 922        TOTAL FREE ENERGY PREDICTED BY IDOCK:   -3.30 KCAL/MOL
REMARK 923 INTER-LIGAND FREE ENERGY PREDICTED BY IDOCK:   -3.14 KCAL/MOL
REMARK 924 INTRA-LIGAND FREE ENERGY PREDICTED BY IDOCK:   -0.16 KCAL/MOL
REMARK 927      BINDING AFFINITY PREDICTED BY RF-SCORE:    0.00 PKD
ROOT
HETATM    1  C   UNK A   0     -12.640  14.679  70.467  1.00  0.00    -0.409 C  
HETATM    2  C   UNK A   0     -11.857  14.872  69.199  1.00  0.00    -0.307 C  
HETATM    3  O   UNK A   0     -11.865  15.919  68.565  1.00  0.00    -0.366 OA 
ATOM      4  N   CYS A   1     -11.224  13.733  68.743  1.00  0.00    -0.256 N  
ATOM      5  H   CYS A   1     -11.374  12.843  69.218  1.00  0.00     0.000 HD 
ENDROOT
BRANCH   4   6
ATOM      6  CA  CYS A   1     -10.329  13.802  67.567  1.00  0.00    -0.241 C  
ATOM      7  O   CYS A   1     -11.954  12.210  66.726  1.00  0.00    -0.606 OA 
ATOM      8  C   CYS A   1     -10.815  12.882  66.440  1.00  0.00    -0.274 C  
ATOM      9  OXT CYS A   1     -10.214  12.722  65.386  1.00  0.00    -0.283 OA 
BRANCH   6  10
ATOM     10  CB  CYS A   1      -8.891  13.389  67.906  1.00  0.00    -0.194 C  
ATOM     11  SG  CYS A   1      -7.722  14.776  67.696  1.00  0.00    -0.198 SA 
ATOM     12  HG  CYS A   1      -6.419  14.402  68.004  1.00  0.00     0.000 H  
ENDBRANCH   6  10
ENDBRANCH   4   6
TORSDOF 2
ENDMDL
MODEL       82
REMARK 921   NORMALIZED FREE ENERGY PREDICTED BY IDOCK:   -2.78 KCAL/MOL
REMARK 922        TOTAL FREE ENERGY PREDICTED BY IDOCK:   -3.27 KCAL/MOL
REMARK 923 INTER-LIGAND FREE ENERGY PREDICTED BY IDOCK:   -3.12 KCAL/MOL
REMARK 924 INTRA-LIGAND FREE ENERGY PREDICTED BY IDOCK:   -0.15 KCAL/MOL
REMARK 927      BINDING AFFINITY PREDICTED BY RF-SCORE:    0.00 PKD
ROOT
HETATM    1  C   UNK A   0     -12.551  11.989  63.350  1.00  0.00    -0.592 C  
HETATM    2  C   UNK A   0     -11.171  12.031  63.944  1.00  0.00    -0.417 C  
HETATM    3  O   UNK A   0     -10.154  11.989  63.265  1.00  0.00    -0.430 OA 
ATOM      4  N   CYS A   1     -11.145  11.998  65.323  1.00  0.00    -0.310 N  
ATOM      5  H   CYS A   1     -12.013  11.873  65.846  1.00  0.00     0.000 HD 
ENDROOT
BRANCH   4   6
ATOM      6  CA  CYS A   1      -9.862  12.143  66.045  1.00  0.00    -0.243 C  
ATOM      7  O   CYS A   1     -10.203   9.759  66.336  1.00  0.00    -0.242 OA 
ATOM      8  C   CYS A   1      -9.383  10.801  66.612  1.00  0.00    -0.166 C  
ATOM      9  OXT CYS A   1      -8.377  10.671  67.295  1.00  0.00    -0.119 OA 
BRANCH   6  10
ATOM     10  CB  CYS A   1      -9.964  13.125  67.219  1.00  0.00    -0.230 C  
ATOM     11  SG  CYS A   1     -11.496  14.115  67.142  1.00  0.00    -0.373 SA 
ATOM     12  HG  CYS A   1     -11.589  15.005  68.205  1.00  0.00     0.000 H  
ENDBRANCH   6  10
ENDBRANCH   4   6
TORSDOF 2
ENDMDL
MODEL       83
REMARK 921   NORMALIZED FREE ENERGY PREDICTED BY IDOCK:   -2.77 KCAL/MOL
REMARK 922        TOTAL FREE ENERGY PREDICTED BY IDOCK:   -3.26 KCAL/MOL
REMARK 923 INTER-LIGAND FREE ENERGY PREDICTED BY IDOCK:   -3.08 KCAL/MOL
REMARK 924 INTRA-LIGAND FREE ENERGY PREDICTED BY IDOCK:   -0.18 KCAL/MOL
REMARK 927      BINDING AFFINITY PREDICTED BY RF-SCORE:    0.00 PKD
ROOT
HETATM    1  C   UNK A   0     -11.620  15.212  72.292  1.00  0.00    -0.473 C  
HETATM    2  C   UNK A   0     -11.935  15.037  70.832  1.00  0.00    -0.319 C  
HETATM    3  O   UNK A   0     -13.022  15.324  70.349  1.00  0.00    -0.348 OA 
ATOM      4  N   CYS A   1     -10.941  14.412  70.107  1.00  0.00    -0.471 N  
ATOM      5  H   CYS A   1     -10.116  14.047  70.584  1.00  0.00     0.000 HD 
ENDROOT
BRANCH   4   6
ATOM      6  CA  CYS A   1     -11.069  14.273  68.639  1.00  0.00    -0.253 C  
ATOM      7  O   CYS A   1     -11.095  11.927  69.257  1.00  0.00    -0.240 OA 
ATOM      8  C   CYS A   1     -11.144  12.799  68.222  1.00  0.00    -0.257 C  
ATOM      9  OXT CYS A   1     -11.198  12.423  67.060  1.00  0.00    -0.269 OA 
BRANCH   6  10
ATOM     10  CB  CYS A   1      -9.886  14.900  67.891  1.00  0.00    -0.214 C  
ATOM     11  SG  CYS A   1      -8.491  15.262  69.012  1.00  0.00    -0.235 SA 
ATOM     12  HG  CYS A   1      -7.420  15.832  68.333  1.00  0.00     0.000 H  
ENDBRANCH   6  10
ENDBRANCH   4   6
TORSDOF 2
ENDMDL
MODEL       84
REMARK 921   NORMALIZED FREE ENERGY PREDICTED BY IDOCK:   -2.75 KCAL/MOL
REMARK 922        TOTAL FREE ENERGY PREDICTED BY IDOCK:   -3.23 KCAL/MOL
REMARK 923 INTER-LIGAND FREE ENERGY PREDICTED BY IDOCK:   -3.07 KCAL/MOL
REMARK 924 INTRA-LIGAND FREE ENERGY PREDICTED BY IDOCK:   -0.16 KCAL/MOL
REMARK 927      BINDING AFFINITY PREDICTED BY RF-SCORE:    0.00 PKD
ROOT
HETATM    1  C   UNK A   0     -10.373  10.494  68.425  1.00  0.00    -0.199 C  
HETATM    2  C   UNK A   0     -10.093  11.232  67.146  1.00  0.00    -0.192 C  
HETATM    3  O   UNK A   0      -8.976  11.305  66.652  1.00  0.00    -0.164 OA 
ATOM      4  N   CYS A   1     -11.177  11.921  66.640  1.00  0.00    -0.313 N  
ATOM      5  H   CYS A   1     -12.048  11.961  67.169  1.00  0.00     0.000 HD 
ENDROOT
BRANCH   4   6
ATOM      6  CA  CYS A   1     -11.076  12.602  65.329  1.00  0.00    -0.295 C  
ATOM      7  O   CYS A   1     -12.755  14.009  66.371  1.00  0.00    -0.369 OA 
ATOM      8  C   CYS A   1     -12.031  13.800  65.246  1.00  0.00    -0.374 C  
ATOM      9  OXT CYS A   1     -12.171  14.489  64.246  1.00  0.00    -0.506 OA 
BRANCH   6  10
ATOM     10  CB  CYS A   1     -11.414  11.666  64.161  1.00  0.00    -0.280 C  
ATOM     11  SG  CYS A   1      -9.920  11.174  63.235  1.00  0.00    -0.380 SA 
ATOM     12  HG  CYS A   1     -10.226  10.326  62.177  1.00  0.00     0.000 H  
ENDBRANCH   6  10
ENDBRANCH   4   6
TORSDOF 2
ENDMDL
MODEL       85
REMARK 921   NORMALIZED FREE ENERGY PREDICTED BY IDOCK:   -2.74 KCAL/MOL
REMARK 922        TOTAL FREE ENERGY PREDICTED BY IDOCK:   -3.22 KCAL/MOL
REMARK 923 INTER-LIGAND FREE ENERGY PREDICTED BY IDOCK:   -3.10 KCAL/MOL
REMARK 924 INTRA-LIGAND FREE ENERGY PREDICTED BY IDOCK:   -0.12 KCAL/MOL
REMARK 927      BINDING AFFINITY PREDICTED BY RF-SCORE:    0.00 PKD
ROOT
HETATM    1  C   UNK A   0     -12.931  10.867  71.665  1.00  0.00    -0.569 C  
HETATM    2  C   UNK A   0     -11.822  10.972  70.655  1.00  0.00    -0.333 C  
HETATM    3  O   UNK A   0     -10.883  10.189  70.615  1.00  0.00    -0.308 OA 
ATOM      4  N   CYS A   1     -11.888  12.096  69.855  1.00  0.00    -0.391 N  
ATOM      5  H   CYS A   1     -12.601  12.804  70.029  1.00  0.00     0.000 HD 
ENDROOT
BRANCH   4   6
ATOM      6  CA  CYS A   1     -10.925  12.273  68.745  1.00  0.00    -0.236 C  
ATOM      7  O   CYS A   1     -11.625  14.579  69.025  1.00  0.00    -0.266 OA 
ATOM      8  C   CYS A   1     -10.835  13.742  68.313  1.00  0.00    -0.250 C  
ATOM      9  OXT CYS A   1     -10.149  14.135  67.379  1.00  0.00    -0.237 OA 
BRANCH   6  10
ATOM     10  CB  CYS A   1     -11.309  11.454  67.506  1.00  0.00    -0.292 C  
ATOM     11  SG  CYS A   1     -10.093  10.136  67.164  1.00  0.00    -0.221 SA 
ATOM     12  HG  CYS A   1     -10.442   9.394  66.041  1.00  0.00     0.000 H  
ENDBRANCH   6  10
ENDBRANCH   4   6
TORSDOF 2
ENDMDL
MODEL       86
REMARK 921   NORMALIZED FREE ENERGY PREDICTED BY IDOCK:   -2.73 KCAL/MOL
REMARK 922        TOTAL FREE ENERGY PREDICTED BY IDOCK:   -3.21 KCAL/MOL
REMARK 923 INTER-LIGAND FREE ENERGY PREDICTED BY IDOCK:   -3.11 KCAL/MOL
REMARK 924 INTRA-LIGAND FREE ENERGY PREDICTED BY IDOCK:   -0.11 KCAL/MOL
REMARK 927      BINDING AFFINITY PREDICTED BY RF-SCORE:    0.00 PKD
ROOT
HETATM    1  C   UNK A   0     -12.271  12.532  63.375  1.00  0.00    -0.613 C  
HETATM    2  C   UNK A   0     -10.963  12.717  64.093  1.00  0.00    -0.398 C  
HETATM    3  O   UNK A   0      -9.934  12.147  63.756  1.00  0.00    -0.356 OA 
ATOM      4  N   CYS A   1     -11.046  13.488  65.235  1.00  0.00    -0.292 N  
ATOM      5  H   CYS A   1     -11.955  13.813  65.565  1.00  0.00     0.000 HD 
ENDROOT
BRANCH   4   6
ATOM      6  CA  CYS A   1      -9.818  13.843  65.981  1.00  0.00    -0.289 C  
ATOM      7  O   CYS A   1     -10.650  12.080  67.422  1.00  0.00    -0.215 OA 
ATOM      8  C   CYS A   1      -9.663  12.988  67.244  1.00  0.00    -0.225 C  
ATOM      9  OXT CYS A   1      -8.758  13.129  68.054  1.00  0.00    -0.173 OA 
BRANCH   6  10
ATOM     10  CB  CYS A   1      -9.811  15.313  66.420  1.00  0.00    -0.275 C  
ATOM     11  SG  CYS A   1     -11.091  15.650  67.677  1.00  0.00    -0.269 SA 
ATOM     12  HG  CYS A   1     -11.085  16.982  68.075  1.00  0.00     0.000 H  
ENDBRANCH   6  10
ENDBRANCH   4   6
TORSDOF 2
ENDMDL
MODEL       87
REMARK 921   NORMALIZED FREE ENERGY PREDICTED BY IDOCK:   -2.72 KCAL/MOL
REMARK 922        TOTAL FREE ENERGY PREDICTED BY IDOCK:   -3.20 KCAL/MOL
REMARK 923 INTER-LIGAND FREE ENERGY PREDICTED BY IDOCK:   -3.02 KCAL/MOL
REMARK 924 INTRA-LIGAND FREE ENERGY PREDICTED BY IDOCK:   -0.17 KCAL/MOL
REMARK 927      BINDING AFFINITY PREDICTED BY RF-SCORE:    0.00 PKD
ROOT
HETATM    1  C   UNK A   0      -7.068  12.333  67.636  1.00  0.00    -0.126 C  
HETATM    2  C   UNK A   0      -8.303  13.120  67.296  1.00  0.00    -0.179 C  
HETATM    3  O   UNK A   0      -8.650  14.112  67.921  1.00  0.00    -0.158 OA 
ATOM      4  N   CYS A   1      -9.076  12.561  66.299  1.00  0.00    -0.408 N  
ATOM      5  H   CYS A   1      -8.829  11.648  65.914  1.00  0.00     0.000 HD 
ENDROOT
BRANCH   4   6
ATOM      6  CA  CYS A   1     -10.262  13.283  65.786  1.00  0.00    -0.292 C  
ATOM      7  O   CYS A   1     -11.375  11.685  67.232  1.00  0.00    -0.293 OA 
ATOM      8  C   CYS A   1     -11.560  12.710  66.367  1.00  0.00    -0.384 C  
ATOM      9  OXT CYS A   1     -12.675  13.102  66.055  1.00  0.00    -0.385 OA 
BRANCH   6  10
ATOM     10  CB  CYS A   1     -10.372  13.207  64.258  1.00  0.00    -0.339 C  
ATOM     11  SG  CYS A   1     -10.338  11.481  63.662  1.00  0.00    -0.459 SA 
ATOM     12  HG  CYS A   1     -10.438  11.413  62.277  1.00  0.00     0.000 H  
ENDBRANCH   6  10
ENDBRANCH   4   6
TORSDOF 2
ENDMDL
MODEL       88
REMARK 921   NORMALIZED FREE ENERGY PREDICTED BY IDOCK:   -2.71 KCAL/MOL
REMARK 922        TOTAL FREE ENERGY PREDICTED BY IDOCK:   -3.19 KCAL/MOL
REMARK 923 INTER-LIGAND FREE ENERGY PREDICTED BY IDOCK:   -3.16 KCAL/MOL
REMARK 924 INTRA-LIGAND FREE ENERGY PREDICTED BY IDOCK:   -0.03 KCAL/MOL
REMARK 927      BINDING AFFINITY PREDICTED BY RF-SCORE:    0.00 PKD
ROOT
HETATM    1  C   UNK A   0     -10.585  18.737  67.591  1.00  0.00    -0.481 C  
HETATM    2  C   UNK A   0     -10.076  17.679  66.652  1.00  0.00    -0.335 C  
HETATM    3  O   UNK A   0      -9.420  17.939  65.652  1.00  0.00    -0.420 OA 
ATOM      4  N   CYS A   1     -10.512  16.403  66.944  1.00  0.00    -0.303 N  
ATOM      5  H   CYS A   1     -11.186  16.254  67.696  1.00  0.00     0.000 HD 
ENDROOT
BRANCH   4   6
ATOM      6  CA  CYS A   1     -10.002  15.249  66.170  1.00  0.00    -0.302 C  
ATOM      7  O   CYS A   1     -12.057  15.659  64.949  1.00  0.00     0.052 OA 
ATOM      8  C   CYS A   1     -10.960  14.871  65.033  1.00  0.00    -0.420 C  
ATOM      9  OXT CYS A   1     -10.787  13.918  64.287  1.00  0.00    -0.343 OA 
BRANCH   6  10
ATOM     10  CB  CYS A   1      -9.814  14.001  67.043  1.00  0.00    -0.260 C  
ATOM     11  SG  CYS A   1     -11.413  13.311  67.590  1.00  0.00    -0.343 SA 
ATOM     12  HG  CYS A   1     -11.242  12.181  68.381  1.00  0.00     0.000 H  
ENDBRANCH   6  10
ENDBRANCH   4   6
TORSDOF 2
ENDMDL
MODEL       89
REMARK 921   NORMALIZED FREE ENERGY PREDICTED BY IDOCK:   -2.71 KCAL/MOL
REMARK 922        TOTAL FREE ENERGY PREDICTED BY IDOCK:   -3.19 KCAL/MOL
REMARK 923 INTER-LIGAND FREE ENERGY PREDICTED BY IDOCK:   -3.04 KCAL/MOL
REMARK 924 INTRA-LIGAND FREE ENERGY PREDICTED BY IDOCK:   -0.15 KCAL/MOL
REMARK 927      BINDING AFFINITY PREDICTED BY RF-SCORE:    0.00 PKD
ROOT
HETATM    1  C   UNK A   0     -12.730  14.082  65.624  1.00  0.00    -0.515 C  
HETATM    2  C   UNK A   0     -11.373  13.437  65.687  1.00  0.00    -0.298 C  
HETATM    3  O   UNK A   0     -10.331  14.078  65.650  1.00  0.00    -0.303 OA 
ATOM      4  N   CYS A   1     -11.398  12.057  65.668  1.00  0.00    -0.340 N  
ATOM      5  H   CYS A   1     -12.282  11.566  65.539  1.00  0.00     0.000 HD 
ENDROOT
BRANCH   4   6
ATOM      6  CA  CYS A   1     -10.143  11.290  65.835  1.00  0.00    -0.245 C  
ATOM      7  O   CYS A   1     -10.510  10.925  63.465  1.00  0.00    -0.333 OA 
ATOM      8  C   CYS A   1      -9.696  10.655  64.512  1.00  0.00    -0.309 C  
ATOM      9  OXT CYS A   1      -8.719   9.928  64.404  1.00  0.00    -0.169 OA 
BRANCH   6  10
ATOM     10  CB  CYS A   1     -10.287  10.158  66.860  1.00  0.00    -0.236 C  
ATOM     11  SG  CYS A   1     -11.233  10.692  68.328  1.00  0.00    -0.290 SA 
ATOM     12  HG  CYS A   1     -11.363   9.667  69.258  1.00  0.00     0.000 H  
ENDBRANCH   6  10
ENDBRANCH   4   6
TORSDOF 2
ENDMDL
MODEL       90
REMARK 921   NORMALIZED FREE ENERGY PREDICTED BY IDOCK:   -2.68 KCAL/MOL
REMARK 922        TOTAL FREE ENERGY PREDICTED BY IDOCK:   -3.15 KCAL/MOL
REMARK 923 INTER-LIGAND FREE ENERGY PREDICTED BY IDOCK:   -3.10 KCAL/MOL
REMARK 924 INTRA-LIGAND FREE ENERGY PREDICTED BY IDOCK:   -0.05 KCAL/MOL
REMARK 927      BINDING AFFINITY PREDICTED BY RF-SCORE:    0.00 PKD
ROOT
HETATM    1  C   UNK A   0     -11.815  14.026  68.871  1.00  0.00    -0.390 C  
HETATM    2  C   UNK A   0     -11.285  15.433  68.859  1.00  0.00    -0.292 C  
HETATM    3  O   UNK A   0     -11.634  16.280  69.670  1.00  0.00    -0.276 OA 
ATOM      4  N   CYS A   1     -10.467  15.723  67.786  1.00  0.00    -0.276 N  
ATOM      5  H   CYS A   1     -10.331  15.031  67.048  1.00  0.00     0.000 HD 
ENDROOT
BRANCH   4   6
ATOM      6  CA  CYS A   1      -9.788  17.035  67.704  1.00  0.00    -0.257 C  
ATOM      7  O   CYS A   1     -10.860  17.017  65.529  1.00  0.00    -0.359 OA 
ATOM      8  C   CYS A   1     -10.056  17.721  66.360  1.00  0.00    -0.357 C  
ATOM      9  OXT CYS A   1      -9.560  18.790  66.031  1.00  0.00    -0.477 OA 
BRANCH   6  10
ATOM     10  CB  CYS A   1      -8.266  16.911  67.859  1.00  0.00    -0.197 C  
ATOM     11  SG  CYS A   1      -7.815  15.832  69.262  1.00  0.00    -0.219 SA 
ATOM     12  HG  CYS A   1      -6.436  15.720  69.402  1.00  0.00     0.000 H  
ENDBRANCH   6  10
ENDBRANCH   4   6
TORSDOF 2
ENDMDL
MODEL       91
REMARK 921   NORMALIZED FREE ENERGY PREDICTED BY IDOCK:   -2.67 KCAL/MOL
REMARK 922        TOTAL FREE ENERGY PREDICTED BY IDOCK:   -3.14 KCAL/MOL
REMARK 923 INTER-LIGAND FREE ENERGY PREDICTED BY IDOCK:   -2.96 KCAL/MOL
REMARK 924 INTRA-LIGAND FREE ENERGY PREDICTED BY IDOCK:   -0.18 KCAL/MOL
REMARK 927      BINDING AFFINITY PREDICTED BY RF-SCORE:    0.00 PKD
ROOT
HETATM    1  C   UNK A   0      -7.512  20.649  67.382  1.00  0.00    -0.384 C  
HETATM    2  C   UNK A   0      -7.518  19.425  66.509  1.00  0.00    -0.246 C  
HETATM    3  O   UNK A   0      -7.259  19.461  65.313  1.00  0.00    -0.427 OA 
ATOM      4  N   CYS A   1      -7.958  18.279  67.140  1.00  0.00    -0.217 N  
ATOM      5  H   CYS A   1      -8.314  18.328  68.095  1.00  0.00     0.000 HD 
ENDROOT
BRANCH   4   6
ATOM      6  CA  CYS A   1      -7.913  16.979  66.434  1.00  0.00    -0.307 C  
ATOM      7  O   CYS A   1     -10.315  17.207  66.675  1.00  0.00    -0.320 OA 
ATOM      8  C   CYS A   1      -9.321  16.416  66.209  1.00  0.00    -0.315 C  
ATOM      9  OXT CYS A   1      -9.544  15.329  65.695  1.00  0.00    -0.336 OA 
BRANCH   6  10
ATOM     10  CB  CYS A   1      -7.117  15.923  67.212  1.00  0.00    -0.207 C  
ATOM     11  SG  CYS A   1      -7.023  16.323  68.992  1.00  0.00    -0.198 SA 
ATOM     12  HG  CYS A   1      -6.301  15.366  69.696  1.00  0.00     0.000 H  
ENDBRANCH   6  10
ENDBRANCH   4   6
TORSDOF 2
ENDMDL
MODEL       92
REMARK 921   NORMALIZED FREE ENERGY PREDICTED BY IDOCK:   -2.66 KCAL/MOL
REMARK 922        TOTAL FREE ENERGY PREDICTED BY IDOCK:   -3.13 KCAL/MOL
REMARK 923 INTER-LIGAND FREE ENERGY PREDICTED BY IDOCK:   -2.93 KCAL/MOL
REMARK 924 INTRA-LIGAND FREE ENERGY PREDICTED BY IDOCK:   -0.20 KCAL/MOL
REMARK 927      BINDING AFFINITY PREDICTED BY RF-SCORE:    0.00 PKD
ROOT
HETATM    1  C   UNK A   0      -9.551   8.996  71.100  1.00  0.00    -0.356 C  
HETATM    2  C   UNK A   0     -10.557   9.967  70.546  1.00  0.00    -0.293 C  
HETATM    3  O   UNK A   0     -11.708  10.038  70.957  1.00  0.00    -0.334 OA 
ATOM      4  N   CYS A   1     -10.112  10.685  69.455  1.00  0.00    -0.385 N  
ATOM      5  H   CYS A   1      -9.199  10.480  69.048  1.00  0.00     0.000 HD 
ENDROOT
BRANCH   4   6
ATOM      6  CA  CYS A   1     -10.956  11.754  68.875  1.00  0.00    -0.239 C  
ATOM      7  O   CYS A   1     -11.037  10.161  67.048  1.00  0.00    -0.167 OA 
ATOM      8  C   CYS A   1     -11.448  11.379  67.472  1.00  0.00    -0.260 C  
ATOM      9  OXT CYS A   1     -12.116  12.120  66.766  1.00  0.00    -0.609 OA 
BRANCH   6  10
ATOM     10  CB  CYS A   1     -10.205  13.086  68.756  1.00  0.00    -0.089 C  
ATOM     11  SG  CYS A   1      -8.690  12.921  67.751  1.00  0.00    -0.201 SA 
ATOM     12  HG  CYS A   1      -8.010  14.129  67.643  1.00  0.00     0.000 H  
ENDBRANCH   6  10
ENDBRANCH   4   6
TORSDOF 2
ENDMDL
MODEL       93
REMARK 921   NORMALIZED FREE ENERGY PREDICTED BY IDOCK:   -2.66 KCAL/MOL
REMARK 922        TOTAL FREE ENERGY PREDICTED BY IDOCK:   -3.13 KCAL/MOL
REMARK 923 INTER-LIGAND FREE ENERGY PREDICTED BY IDOCK:   -2.96 KCAL/MOL
REMARK 924 INTRA-LIGAND FREE ENERGY PREDICTED BY IDOCK:   -0.17 KCAL/MOL
REMARK 927      BINDING AFFINITY PREDICTED BY RF-SCORE:    0.00 PKD
ROOT
HETATM    1  C   UNK A   0      -8.181  16.023  68.922  1.00  0.00    -0.223 C  
HETATM    2  C   UNK A   0      -8.748  14.697  68.497  1.00  0.00    -0.176 C  
HETATM    3  O   UNK A   0      -8.055  13.786  68.065  1.00  0.00    -0.137 OA 
ATOM      4  N   CYS A   1     -10.127  14.636  68.519  1.00  0.00    -0.232 N  
ATOM      5  H   CYS A   1     -10.671  15.472  68.735  1.00  0.00     0.000 HD 
ENDROOT
BRANCH   4   6
ATOM      6  CA  CYS A   1     -10.818  13.359  68.231  1.00  0.00    -0.256 C  
ATOM      7  O   CYS A   1     -11.359  14.561  66.195  1.00  0.00    -0.338 OA 
ATOM      8  C   CYS A   1     -11.517  13.397  66.867  1.00  0.00    -0.342 C  
ATOM      9  OXT CYS A   1     -12.200  12.482  66.428  1.00  0.00    -0.584 OA 
BRANCH   6  10
ATOM     10  CB  CYS A   1     -11.884  13.025  69.283  1.00  0.00    -0.316 C  
ATOM     11  SG  CYS A   1     -12.206  14.440  70.391  1.00  0.00    -0.358 SA 
ATOM     12  HG  CYS A   1     -13.172  14.137  71.344  1.00  0.00     0.000 H  
ENDBRANCH   6  10
ENDBRANCH   4   6
TORSDOF 2
ENDMDL
MODEL       94
REMARK 921   NORMALIZED FREE ENERGY PREDICTED BY IDOCK:   -2.64 KCAL/MOL
REMARK 922        TOTAL FREE ENERGY PREDICTED BY IDOCK:   -3.12 KCAL/MOL
REMARK 923 INTER-LIGAND FREE ENERGY PREDICTED BY IDOCK:   -2.95 KCAL/MOL
REMARK 924 INTRA-LIGAND FREE ENERGY PREDICTED BY IDOCK:   -0.16 KCAL/MOL
REMARK 927      BINDING AFFINITY PREDICTED BY RF-SCORE:    0.00 PKD
ROOT
HETATM    1  C   UNK A   0     -12.879  14.041  65.169  1.00  0.00    -0.368 C  
HETATM    2  C   UNK A   0     -12.177  13.790  66.475  1.00  0.00    -0.430 C  
HETATM    3  O   UNK A   0     -12.077  14.641  67.349  1.00  0.00    -0.352 OA 
ATOM      4  N   CYS A   1     -11.550  12.563  66.556  1.00  0.00    -0.369 N  
ATOM      5  H   CYS A   1     -11.526  11.948  65.742  1.00  0.00     0.000 HD 
ENDROOT
BRANCH   4   6
ATOM      6  CA  CYS A   1     -10.914  12.138  67.823  1.00  0.00    -0.233 C  
ATOM      7  O   CYS A   1      -8.945  12.225  66.409  1.00  0.00    -0.195 OA 
ATOM      8  C   CYS A   1      -9.400  11.954  67.654  1.00  0.00    -0.183 C  
ATOM      9  OXT CYS A   1      -8.661  11.555  68.543  1.00  0.00    -0.154 OA 
BRANCH   6  10
ATOM     10  CB  CYS A   1     -11.481  10.810  68.341  1.00  0.00    -0.288 C  
ATOM     11  SG  CYS A   1     -12.030  10.940  70.078  1.00  0.00    -0.380 SA 
ATOM     12  HG  CYS A   1     -12.544   9.737  70.546  1.00  0.00     0.000 H  
ENDBRANCH   6  10
ENDBRANCH   4   6
TORSDOF 2
ENDMDL
MODEL       95
REMARK 921   NORMALIZED FREE ENERGY PREDICTED BY IDOCK:   -2.62 KCAL/MOL
REMARK 922        TOTAL FREE ENERGY PREDICTED BY IDOCK:   -3.09 KCAL/MOL
REMARK 923 INTER-LIGAND FREE ENERGY PREDICTED BY IDOCK:   -2.91 KCAL/MOL
REMARK 924 INTRA-LIGAND FREE ENERGY PREDICTED BY IDOCK:   -0.18 KCAL/MOL
REMARK 927      BINDING AFFINITY PREDICTED BY RF-SCORE:    0.00 PKD
ROOT
HETATM    1  C   UNK A   0     -11.854   6.964  70.679  1.00  0.00    -0.418 C  
HETATM    2  C   UNK A   0     -11.165   8.297  70.778  1.00  0.00    -0.264 C  
HETATM    3  O   UNK A   0     -10.861   8.810  71.846  1.00  0.00    -0.314 OA 
ATOM      4  N   CYS A   1     -11.013   8.948  69.570  1.00  0.00    -0.405 N  
ATOM      5  H   CYS A   1     -11.424   8.554  68.724  1.00  0.00     0.000 HD 
ENDROOT
BRANCH   4   6
ATOM      6  CA  CYS A   1     -10.255  10.218  69.502  1.00  0.00    -0.236 C  
ATOM      7  O   CYS A   1     -12.358  10.969  68.555  1.00  0.00    -0.536 OA 
ATOM      8  C   CYS A   1     -11.101  11.342  68.892  1.00  0.00    -0.233 C  
ATOM      9  OXT CYS A   1     -10.680  12.471  68.680  1.00  0.00    -0.232 OA 
BRANCH   6  10
ATOM     10  CB  CYS A   1      -8.984  10.090  68.654  1.00  0.00    -0.136 C  
ATOM     11  SG  CYS A   1      -9.084   8.684  67.492  1.00  0.00    -0.134 SA 
ATOM     12  HG  CYS A   1      -7.931   8.568  66.724  1.00  0.00     0.000 H  
ENDBRANCH   6  10
ENDBRANCH   4   6
TORSDOF 2
ENDMDL
MODEL       96
REMARK 921   NORMALIZED FREE ENERGY PREDICTED BY IDOCK:   -2.61 KCAL/MOL
REMARK 922        TOTAL FREE ENERGY PREDICTED BY IDOCK:   -3.08 KCAL/MOL
REMARK 923 INTER-LIGAND FREE ENERGY PREDICTED BY IDOCK:   -2.88 KCAL/MOL
REMARK 924 INTRA-LIGAND FREE ENERGY PREDICTED BY IDOCK:   -0.20 KCAL/MOL
REMARK 927      BINDING AFFINITY PREDICTED BY RF-SCORE:    0.00 PKD
ROOT
HETATM    1  C   UNK A   0     -12.036  13.909  69.130  1.00  0.00    -0.377 C  
HETATM    2  C   UNK A   0     -11.289  15.124  69.606  1.00  0.00    -0.283 C  
HETATM    3  O   UNK A   0     -11.590  15.732  70.624  1.00  0.00    -0.325 OA 
ATOM      4  N   CYS A   1     -10.314  15.567  68.735  1.00  0.00    -0.211 N  
ATOM      5  H   CYS A   1     -10.204  15.123  67.823  1.00  0.00     0.000 HD 
ENDROOT
BRANCH   4   6
ATOM      6  CA  CYS A   1      -9.427  16.687  69.123  1.00  0.00    -0.188 C  
ATOM      7  O   CYS A   1     -10.781  17.822  67.462  1.00  0.00    -0.375 OA 
ATOM      8  C   CYS A   1      -9.754  17.960  68.333  1.00  0.00    -0.340 C  
ATOM      9  OXT CYS A   1      -9.126  19.004  68.435  1.00  0.00    -0.321 OA 
BRANCH   6  10
ATOM     10  CB  CYS A   1      -7.947  16.366  68.880  1.00  0.00    -0.236 C  
ATOM     11  SG  CYS A   1      -7.656  15.760  67.182  1.00  0.00    -0.224 SA 
ATOM     12  HG  CYS A   1      -6.315  15.469  66.962  1.00  0.00     0.000 H  
ENDBRANCH   6  10
ENDBRANCH   4   6
TORSDOF 2
ENDMDL
MODEL       97
REMARK 921   NORMALIZED FREE ENERGY PREDICTED BY IDOCK:   -2.61 KCAL/MOL
REMARK 922        TOTAL FREE ENERGY PREDICTED BY IDOCK:   -3.07 KCAL/MOL
REMARK 923 INTER-LIGAND FREE ENERGY PREDICTED BY IDOCK:   -2.95 KCAL/MOL
REMARK 924 INTRA-LIGAND FREE ENERGY PREDICTED BY IDOCK:   -0.13 KCAL/MOL
REMARK 927      BINDING AFFINITY PREDICTED BY RF-SCORE:    0.00 PKD
ROOT
HETATM    1  C   UNK A   0     -14.354   7.515  71.485  1.00  0.00    -0.603 C  
HETATM    2  C   UNK A   0     -12.891   7.742  71.742  1.00  0.00    -0.327 C  
HETATM    3  O   UNK A   0     -12.466   8.717  72.347  1.00  0.00    -0.379 OA 
ATOM      4  N   CYS A   1     -12.058   6.824  71.135  1.00  0.00    -0.369 N  
ATOM      5  H   CYS A   1     -12.448   6.119  70.509  1.00  0.00     0.000 HD 
ENDROOT
BRANCH   4   6
ATOM      6  CA  CYS A   1     -10.601   6.860  71.390  1.00  0.00    -0.219 C  
ATOM      7  O   CYS A   1     -10.609   5.506  69.378  1.00  0.00    -0.284 OA 
ATOM      8  C   CYS A   1      -9.827   6.064  70.332  1.00  0.00    -0.179 C  
ATOM      9  OXT CYS A   1      -8.616   5.900  70.356  1.00  0.00    -0.130 OA 
BRANCH   6  10
ATOM     10  CB  CYS A   1     -10.237   6.273  72.760  1.00  0.00    -0.185 C  
ATOM     11  SG  CYS A   1      -9.275   7.455  73.768  1.00  0.00    -0.272 SA 
ATOM     12  HG  CYS A   1      -8.945   6.923  75.009  1.00  0.00     0.000 H  
ENDBRANCH   6  10
ENDBRANCH   4   6
TORSDOF 2
ENDMDL
MODEL       98
REMARK 921   NORMALIZED FREE ENERGY PREDICTED BY IDOCK:   -2.60 KCAL/MOL
REMARK 922        TOTAL FREE ENERGY PREDICTED BY IDOCK:   -3.07 KCAL/MOL
REMARK 923 INTER-LIGAND FREE ENERGY PREDICTED BY IDOCK:   -2.87 KCAL/MOL
REMARK 924 INTRA-LIGAND FREE ENERGY PREDICTED BY IDOCK:   -0.20 KCAL/MOL
REMARK 927      BINDING AFFINITY PREDICTED BY RF-SCORE:    0.00 PKD
ROOT
HETATM    1  C   UNK A   0     -11.091  16.331  69.841  1.00  0.00    -0.347 C  
HETATM    2  C   UNK A   0      -9.804  16.517  69.087  1.00  0.00    -0.254 C  
HETATM    3  O   UNK A   0      -8.904  15.687  69.094  1.00  0.00    -0.216 OA 
ATOM      4  N   CYS A   1      -9.670  17.752  68.488  1.00  0.00    -0.327 N  
ATOM      5  H   CYS A   1     -10.377  18.472  68.641  1.00  0.00     0.000 HD 
ENDROOT
BRANCH   4   6
ATOM      6  CA  CYS A   1      -8.503  18.035  67.623  1.00  0.00    -0.239 C  
ATOM      7  O   CYS A   1      -8.006  19.549  69.451  1.00  0.00    -0.222 OA 
ATOM      8  C   CYS A   1      -7.587  19.096  68.247  1.00  0.00    -0.304 C  
ATOM      9  OXT CYS A   1      -6.588  19.538  67.699  1.00  0.00    -0.213 OA 
BRANCH   6  10
ATOM     10  CB  CYS A   1      -8.917  18.546  66.237  1.00  0.00    -0.207 C  
ATOM     11  SG  CYS A   1     -10.404  19.603  66.323  1.00  0.00    -0.540 SA 
ATOM     12  HG  CYS A   1     -10.780  20.066  65.067  1.00  0.00     0.000 H  
ENDBRANCH   6  10
ENDBRANCH   4   6
TORSDOF 2
ENDMDL
MODEL       99
REMARK 921   NORMALIZED FREE ENERGY PREDICTED BY IDOCK:   -2.59 KCAL/MOL
REMARK 922        TOTAL FREE ENERGY PREDICTED BY IDOCK:   -3.06 KCAL/MOL
REMARK 923 INTER-LIGAND FREE ENERGY PREDICTED BY IDOCK:   -3.03 KCAL/MOL
REMARK 924 INTRA-LIGAND FREE ENERGY PREDICTED BY IDOCK:   -0.03 KCAL/MOL
REMARK 927      BINDING AFFINITY PREDICTED BY RF-SCORE:    0.00 PKD
ROOT
HETATM    1  C   UNK A   0     -11.096  16.113  68.931  1.00  0.00    -0.347 C  
HETATM    2  C   UNK A   0     -10.599  14.695  68.930  1.00  0.00    -0.253 C  
HETATM    3  O   UNK A   0      -9.416  14.406  69.054  1.00  0.00    -0.154 OA 
ATOM      4  N   CYS A   1     -11.569  13.752  68.657  1.00  0.00    -0.310 N  
ATOM      5  H   CYS A   1     -12.512  14.050  68.404  1.00  0.00     0.000 HD 
ENDROOT
BRANCH   4   6
ATOM      6  CA  CYS A   1     -11.245  12.310  68.732  1.00  0.00    -0.265 C  
ATOM      7  O   CYS A   1     -11.852  12.451  66.388  1.00  0.00    -0.486 OA 
ATOM      8  C   CYS A   1     -11.443  11.621  67.376  1.00  0.00    -0.285 C  
ATOM      9  OXT CYS A   1     -11.292  10.422  67.194  1.00  0.00    -0.274 OA 
BRANCH   6  10
ATOM     10  CB  CYS A   1     -12.120  11.570  69.752  1.00  0.00    -0.306 C  
ATOM     11  SG  CYS A   1     -11.231  10.170  70.517  1.00  0.00    -0.345 SA 
ATOM     12  HG  CYS A   1     -12.024   9.500  71.441  1.00  0.00     0.000 H  
ENDBRANCH   6  10
ENDBRANCH   4   6
TORSDOF 2
ENDMDL
MODEL      100
REMARK 921   NORMALIZED FREE ENERGY PREDICTED BY IDOCK:   -2.59 KCAL/MOL
REMARK 922        TOTAL FREE ENERGY PREDICTED BY IDOCK:   -3.06 KCAL/MOL
REMARK 923 INTER-LIGAND FREE ENERGY PREDICTED BY IDOCK:   -2.89 KCAL/MOL
REMARK 924 INTRA-LIGAND FREE ENERGY PREDICTED BY IDOCK:   -0.16 KCAL/MOL
REMARK 927      BINDING AFFINITY PREDICTED BY RF-SCORE:    0.00 PKD
ROOT
HETATM    1  C   UNK A   0     -10.723  15.532  65.113  1.00  0.00    -0.460 C  
HETATM    2  C   UNK A   0     -10.183  16.248  66.320  1.00  0.00    -0.327 C  
HETATM    3  O   UNK A   0     -10.826  16.390  67.351  1.00  0.00    -0.302 OA 
ATOM      4  N   CYS A   1      -8.949  16.837  66.125  1.00  0.00    -0.281 N  
ATOM      5  H   CYS A   1      -8.520  16.827  65.200  1.00  0.00     0.000 HD 
ENDROOT
BRANCH   4   6
ATOM      6  CA  CYS A   1      -8.248  17.481  67.259  1.00  0.00    -0.208 C  
ATOM      7  O   CYS A   1      -8.562  19.423  65.841  1.00  0.00    -0.429 OA 
ATOM      8  C   CYS A   1      -8.052  18.982  67.015  1.00  0.00    -0.265 C  
ATOM      9  OXT CYS A   1      -7.452  19.722  67.781  1.00  0.00    -0.271 OA 
BRANCH   6  10
ATOM     10  CB  CYS A   1      -6.861  16.872  67.505  1.00  0.00    -0.147 C  
ATOM     11  SG  CYS A   1      -6.712  16.188  69.191  1.00  0.00    -0.201 SA 
ATOM     12  HG  CYS A   1      -5.456  15.637  69.414  1.00  0.00     0.000 H  
ENDBRANCH   6  10
ENDBRANCH   4   6
TORSDOF 2
ENDMDL
MODEL      101
REMARK 921   NORMALIZED FREE ENERGY PREDICTED BY IDOCK:   -2.58 KCAL/MOL
REMARK 922        TOTAL FREE ENERGY PREDICTED BY IDOCK:   -3.05 KCAL/MOL
REMARK 923 INTER-LIGAND FREE ENERGY PREDICTED BY IDOCK:   -2.88 KCAL/MOL
REMARK 924 INTRA-LIGAND FREE ENERGY PREDICTED BY IDOCK:   -0.16 KCAL/MOL
REMARK 927      BINDING AFFINITY PREDICTED BY RF-SCORE:    0.00 PKD
ROOT
HETATM    1  C   UNK A   0      -9.526  12.307  65.584  1.00  0.00    -0.078 C  
HETATM    2  C   UNK A   0      -9.957  13.433  66.482  1.00  0.00    -0.286 C  
HETATM    3  O   UNK A   0     -10.971  13.387  67.164  1.00  0.00    -0.273 OA 
ATOM      4  N   CYS A   1      -9.179  14.569  66.382  1.00  0.00    -0.418 N  
ATOM      5  H   CYS A   1      -8.437  14.618  65.683  1.00  0.00     0.000 HD 
ENDROOT
BRANCH   4   6
ATOM      6  CA  CYS A   1      -9.420  15.715  67.286  1.00  0.00    -0.216 C  
ATOM      7  O   CYS A   1     -10.204  16.688  65.207  1.00  0.00    -0.600 OA 
ATOM      8  C   CYS A   1     -10.008  16.912  66.528  1.00  0.00    -0.301 C  
ATOM      9  OXT CYS A   1     -10.243  17.995  67.044  1.00  0.00    -0.331 OA 
BRANCH   6  10
ATOM     10  CB  CYS A   1      -8.134  16.195  67.971  1.00  0.00    -0.146 C  
ATOM     11  SG  CYS A   1      -6.919  16.827  66.763  1.00  0.00    -0.233 SA 
ATOM     12  HG  CYS A   1      -5.754  17.261  67.384  1.00  0.00     0.000 H  
ENDBRANCH   6  10
ENDBRANCH   4   6
TORSDOF 2
ENDMDL
MODEL      102
REMARK 921   NORMALIZED FREE ENERGY PREDICTED BY IDOCK:   -2.55 KCAL/MOL
REMARK 922        TOTAL FREE ENERGY PREDICTED BY IDOCK:   -3.01 KCAL/MOL
REMARK 923 INTER-LIGAND FREE ENERGY PREDICTED BY IDOCK:   -2.83 KCAL/MOL
REMARK 924 INTRA-LIGAND FREE ENERGY PREDICTED BY IDOCK:   -0.18 KCAL/MOL
REMARK 927      BINDING AFFINITY PREDICTED BY RF-SCORE:    0.00 PKD
ROOT
HETATM    1  C   UNK A   0      -6.027  21.010  66.720  1.00  0.00    -0.325 C  
HETATM    2  C   UNK A   0      -7.121  20.011  66.463  1.00  0.00    -0.251 C  
HETATM    3  O   UNK A   0      -7.556  19.776  65.344  1.00  0.00    -0.388 OA 
ATOM      4  N   CYS A   1      -7.677  19.471  67.606  1.00  0.00    -0.266 N  
ATOM      5  H   CYS A   1      -7.390  19.815  68.523  1.00  0.00     0.000 HD 
ENDROOT
BRANCH   4   6
ATOM      6  CA  CYS A   1      -8.687  18.395  67.502  1.00  0.00    -0.258 C  
ATOM      7  O   CYS A   1     -10.046  20.102  68.562  1.00  0.00    -0.390 OA 
ATOM      8  C   CYS A   1     -10.035  18.835  68.087  1.00  0.00    -0.366 C  
ATOM      9  OXT CYS A   1     -11.012  18.104  68.167  1.00  0.00    -0.213 OA 
BRANCH   6  10
ATOM     10  CB  CYS A   1      -8.259  17.123  68.246  1.00  0.00    -0.230 C  
ATOM     11  SG  CYS A   1      -6.799  17.417  69.303  1.00  0.00    -0.146 SA 
ATOM     12  HG  CYS A   1      -6.411  16.264  69.977  1.00  0.00     0.000 H  
ENDBRANCH   6  10
ENDBRANCH   4   6
TORSDOF 2
ENDMDL
MODEL      103
REMARK 921   NORMALIZED FREE ENERGY PREDICTED BY IDOCK:   -2.54 KCAL/MOL
REMARK 922        TOTAL FREE ENERGY PREDICTED BY IDOCK:   -3.00 KCAL/MOL
REMARK 923 INTER-LIGAND FREE ENERGY PREDICTED BY IDOCK:   -2.87 KCAL/MOL
REMARK 924 INTRA-LIGAND FREE ENERGY PREDICTED BY IDOCK:   -0.13 KCAL/MOL
REMARK 927      BINDING AFFINITY PREDICTED BY RF-SCORE:    0.00 PKD
ROOT
HETATM    1  C   UNK A   0     -11.864  15.250  69.029  1.00  0.00    -0.342 C  
HETATM    2  C   UNK A   0     -11.481  14.473  67.801  1.00  0.00    -0.340 C  
HETATM    3  O   UNK A   0     -11.858  14.779  66.677  1.00  0.00    -0.342 OA 
ATOM      4  N   CYS A   1     -10.772  13.317  68.058  1.00  0.00    -0.235 N  
ATOM      5  H   CYS A   1     -10.617  13.018  69.021  1.00  0.00     0.000 HD 
ENDROOT
BRANCH   4   6
ATOM      6  CA  CYS A   1     -10.236  12.511  66.938  1.00  0.00    -0.226 C  
ATOM      7  O   CYS A   1     -11.917  10.967  67.757  1.00  0.00    -0.609 OA 
ATOM      8  C   CYS A   1     -10.946  11.156  66.834  1.00  0.00    -0.273 C  
ATOM      9  OXT CYS A   1     -10.644  10.291  66.024  1.00  0.00    -0.157 OA 
BRANCH   6  10
ATOM     10  CB  CYS A   1      -8.735  12.231  67.091  1.00  0.00    -0.193 C  
ATOM     11  SG  CYS A   1      -8.395  11.122  68.501  1.00  0.00    -0.156 SA 
ATOM     12  HG  CYS A   1      -7.035  10.869  68.639  1.00  0.00     0.000 H  
ENDBRANCH   6  10
ENDBRANCH   4   6
TORSDOF 2
ENDMDL
MODEL      104
REMARK 921   NORMALIZED FREE ENERGY PREDICTED BY IDOCK:   -2.53 KCAL/MOL
REMARK 922        TOTAL FREE ENERGY PREDICTED BY IDOCK:   -2.99 KCAL/MOL
REMARK 923 INTER-LIGAND FREE ENERGY PREDICTED BY IDOCK:   -2.82 KCAL/MOL
REMARK 924 INTRA-LIGAND FREE ENERGY PREDICTED BY IDOCK:   -0.17 KCAL/MOL
REMARK 927      BINDING AFFINITY PREDICTED BY RF-SCORE:    0.00 PKD
ROOT
HETATM    1  C   UNK A   0      -9.342   9.674  65.086  1.00  0.00    -0.322 C  
HETATM    2  C   UNK A   0      -9.981   9.269  66.385  1.00  0.00    -0.286 C  
HETATM    3  O   UNK A   0     -10.391   8.135  66.598  1.00  0.00    -0.304 OA 
ATOM      4  N   CYS A   1     -10.179  10.309  67.270  1.00  0.00    -0.206 N  
ATOM      5  H   CYS A   1      -9.966  11.266  66.987  1.00  0.00     0.000 HD 
ENDROOT
BRANCH   4   6
ATOM      6  CA  CYS A   1     -10.698  10.039  68.629  1.00  0.00    -0.226 C  
ATOM      7  O   CYS A   1     -12.228  11.803  67.973  1.00  0.00    -0.518 OA 
ATOM      8  C   CYS A   1     -11.882  10.953  68.968  1.00  0.00    -0.299 C  
ATOM      9  OXT CYS A   1     -12.447  10.958  70.052  1.00  0.00    -0.323 OA 
BRANCH   6  10
ATOM     10  CB  CYS A   1      -9.631  10.252  69.711  1.00  0.00    -0.108 C  
ATOM     11  SG  CYS A   1      -9.453   8.785  70.784  1.00  0.00    -0.227 SA 
ATOM     12  HG  CYS A   1      -8.487   8.979  71.765  1.00  0.00     0.000 H  
ENDBRANCH   6  10
ENDBRANCH   4   6
TORSDOF 2
ENDMDL
MODEL      105
REMARK 921   NORMALIZED FREE ENERGY PREDICTED BY IDOCK:   -2.52 KCAL/MOL
REMARK 922        TOTAL FREE ENERGY PREDICTED BY IDOCK:   -2.98 KCAL/MOL
REMARK 923 INTER-LIGAND FREE ENERGY PREDICTED BY IDOCK:   -2.80 KCAL/MOL
REMARK 924 INTRA-LIGAND FREE ENERGY PREDICTED BY IDOCK:   -0.17 KCAL/MOL
REMARK 927      BINDING AFFINITY PREDICTED BY RF-SCORE:    0.00 PKD
ROOT
HETATM    1  C   UNK A   0      -8.407   7.588  66.913  1.00  0.00    -0.125 C  
HETATM    2  C   UNK A   0      -9.754   8.240  67.056  1.00  0.00    -0.211 C  
HETATM    3  O   UNK A   0     -10.805   7.646  66.853  1.00  0.00    -0.328 OA 
ATOM      4  N   CYS A   1      -9.704   9.595  67.316  1.00  0.00    -0.160 N  
ATOM      5  H   CYS A   1      -8.807  10.080  67.321  1.00  0.00     0.000 HD 
ENDROOT
BRANCH   4   6
ATOM      6  CA  CYS A   1     -10.951  10.344  67.590  1.00  0.00    -0.312 C  
ATOM      7  O   CYS A   1     -10.190  11.556  65.631  1.00  0.00    -0.229 OA 
ATOM      8  C   CYS A   1     -11.159  11.473  66.573  1.00  0.00    -0.282 C  
ATOM      9  OXT CYS A   1     -12.088  12.267  66.619  1.00  0.00    -0.612 OA 
BRANCH   6  10
ATOM     10  CB  CYS A   1     -10.952  10.980  68.986  1.00  0.00    -0.233 C  
ATOM     11  SG  CYS A   1     -11.149   9.726  70.299  1.00  0.00    -0.312 SA 
ATOM     12  HG  CYS A   1     -11.151  10.302  71.564  1.00  0.00     0.000 H  
ENDBRANCH   6  10
ENDBRANCH   4   6
TORSDOF 2
ENDMDL
MODEL      106
REMARK 921   NORMALIZED FREE ENERGY PREDICTED BY IDOCK:   -2.50 KCAL/MOL
REMARK 922        TOTAL FREE ENERGY PREDICTED BY IDOCK:   -2.96 KCAL/MOL
REMARK 923 INTER-LIGAND FREE ENERGY PREDICTED BY IDOCK:   -2.79 KCAL/MOL
REMARK 924 INTRA-LIGAND FREE ENERGY PREDICTED BY IDOCK:   -0.17 KCAL/MOL
REMARK 927      BINDING AFFINITY PREDICTED BY RF-SCORE:    0.00 PKD
ROOT
HETATM    1  C   UNK A   0     -10.657  18.596  67.245  1.00  0.00    -0.480 C  
HETATM    2  C   UNK A   0      -9.935  17.426  66.636  1.00  0.00    -0.308 C  
HETATM    3  O   UNK A   0     -10.192  16.994  65.520  1.00  0.00    -0.589 OA 
ATOM      4  N   CYS A   1      -9.042  16.805  67.486  1.00  0.00    -0.209 N  
ATOM      5  H   CYS A   1      -8.975  17.101  68.460  1.00  0.00     0.000 HD 
ENDROOT
BRANCH   4   6
ATOM      6  CA  CYS A   1      -8.182  15.709  66.987  1.00  0.00    -0.233 C  
ATOM      7  O   CYS A   1      -9.701  14.414  68.365  1.00  0.00    -0.214 OA 
ATOM      8  C   CYS A   1      -8.623  14.351  67.549  1.00  0.00    -0.191 C  
ATOM      9  OXT CYS A   1      -8.037  13.301  67.327  1.00  0.00    -0.175 OA 
BRANCH   6  10
ATOM     10  CB  CYS A   1      -6.710  15.906  67.369  1.00  0.00    -0.194 C  
ATOM     11  SG  CYS A   1      -6.523  17.073  68.761  1.00  0.00    -0.192 SA 
ATOM     12  HG  CYS A   1      -5.188  17.252  69.107  1.00  0.00     0.000 H  
ENDBRANCH   6  10
ENDBRANCH   4   6
TORSDOF 2
ENDMDL
MODEL      107
REMARK 921   NORMALIZED FREE ENERGY PREDICTED BY IDOCK:   -2.49 KCAL/MOL
REMARK 922        TOTAL FREE ENERGY PREDICTED BY IDOCK:   -2.95 KCAL/MOL
REMARK 923 INTER-LIGAND FREE ENERGY PREDICTED BY IDOCK:   -2.84 KCAL/MOL
REMARK 924 INTRA-LIGAND FREE ENERGY PREDICTED BY IDOCK:   -0.10 KCAL/MOL
REMARK 927      BINDING AFFINITY PREDICTED BY RF-SCORE:    0.00 PKD
ROOT
HETATM    1  C   UNK A   0     -10.020   9.007  66.251  1.00  0.00    -0.352 C  
HETATM    2  C   UNK A   0     -10.550   8.183  67.391  1.00  0.00    -0.255 C  
HETATM    3  O   UNK A   0     -11.027   7.067  67.239  1.00  0.00    -0.325 OA 
ATOM      4  N   CYS A   1     -10.566   8.839  68.606  1.00  0.00    -0.360 N  
ATOM      5  H   CYS A   1     -10.306   9.824  68.657  1.00  0.00     0.000 HD 
ENDROOT
BRANCH   4   6
ATOM      6  CA  CYS A   1     -10.960   8.114  69.835  1.00  0.00    -0.168 C  
ATOM      7  O   CYS A   1     -11.129  10.390  70.655  1.00  0.00    -0.313 OA 
ATOM      8  C   CYS A   1     -11.262   9.084  70.984  1.00  0.00    -0.295 C  
ATOM      9  OXT CYS A   1     -11.556   8.726  72.116  1.00  0.00    -0.362 OA 
BRANCH   6  10
ATOM     10  CB  CYS A   1      -9.864   7.156  70.321  1.00  0.00    -0.176 C  
ATOM     11  SG  CYS A   1     -10.481   5.444  70.474  1.00  0.00    -0.239 SA 
ATOM     12  HG  CYS A   1      -9.488   4.577  70.914  1.00  0.00     0.000 H  
ENDBRANCH   6  10
ENDBRANCH   4   6
TORSDOF 2
ENDMDL
MODEL      108
REMARK 921   NORMALIZED FREE ENERGY PREDICTED BY IDOCK:   -2.49 KCAL/MOL
REMARK 922        TOTAL FREE ENERGY PREDICTED BY IDOCK:   -2.94 KCAL/MOL
REMARK 923 INTER-LIGAND FREE ENERGY PREDICTED BY IDOCK:   -2.77 KCAL/MOL
REMARK 924 INTRA-LIGAND FREE ENERGY PREDICTED BY IDOCK:   -0.17 KCAL/MOL
REMARK 927      BINDING AFFINITY PREDICTED BY RF-SCORE:    0.00 PKD
ROOT
HETATM    1  C   UNK A   0      -9.648  10.658  68.362  1.00  0.00    -0.170 C  
HETATM    2  C   UNK A   0      -9.641  11.972  67.632  1.00  0.00    -0.188 C  
HETATM    3  O   UNK A   0      -8.676  12.375  66.998  1.00  0.00    -0.196 OA 
ATOM      4  N   CYS A   1     -10.769  12.742  67.838  1.00  0.00    -0.215 N  
ATOM      5  H   CYS A   1     -11.480  12.436  68.501  1.00  0.00     0.000 HD 
ENDROOT
BRANCH   4   6
ATOM      6  CA  CYS A   1     -10.946  14.010  67.096  1.00  0.00    -0.296 C  
ATOM      7  O   CYS A   1     -10.735  14.900  69.342  1.00  0.00    -0.245 OA 
ATOM      8  C   CYS A   1     -10.924  15.218  68.040  1.00  0.00    -0.299 C  
ATOM      9  OXT CYS A   1     -11.105  16.371  67.673  1.00  0.00    -0.266 OA 
BRANCH   6  10
ATOM     10  CB  CYS A   1     -12.275  14.053  66.329  1.00  0.00    -0.462 C  
ATOM     11  SG  CYS A   1     -12.163  13.172  64.733  1.00  0.00    -0.436 SA 
ATOM     12  HG  CYS A   1     -13.366  13.211  64.038  1.00  0.00     0.000 H  
ENDBRANCH   6  10
ENDBRANCH   4   6
TORSDOF 2
ENDMDL
MODEL      109
REMARK 921   NORMALIZED FREE ENERGY PREDICTED BY IDOCK:   -2.49 KCAL/MOL
REMARK 922        TOTAL FREE ENERGY PREDICTED BY IDOCK:   -2.94 KCAL/MOL
REMARK 923 INTER-LIGAND FREE ENERGY PREDICTED BY IDOCK:   -2.81 KCAL/MOL
REMARK 924 INTRA-LIGAND FREE ENERGY PREDICTED BY IDOCK:   -0.13 KCAL/MOL
REMARK 927      BINDING AFFINITY PREDICTED BY RF-SCORE:    0.00 PKD
ROOT
HETATM    1  C   UNK A   0     -11.941  14.715  70.063  1.00  0.00    -0.376 C  
HETATM    2  C   UNK A   0     -11.674  13.673  69.013  1.00  0.00    -0.333 C  
HETATM    3  O   UNK A   0     -12.135  13.738  67.881  1.00  0.00    -0.365 OA 
ATOM      4  N   CYS A   1     -10.968  12.577  69.467  1.00  0.00    -0.459 N  
ATOM      5  H   CYS A   1     -10.741  12.492  70.458  1.00  0.00     0.000 HD 
ENDROOT
BRANCH   4   6
ATOM      6  CA  CYS A   1     -10.540  11.525  68.517  1.00  0.00    -0.210 C  
ATOM      7  O   CYS A   1     -11.176  10.122  70.390  1.00  0.00    -0.284 OA 
ATOM      8  C   CYS A   1     -10.682  10.127  69.130  1.00  0.00    -0.226 C  
ATOM      9  OXT CYS A   1     -10.341   9.098  68.563  1.00  0.00    -0.197 OA 
BRANCH   6  10
ATOM     10  CB  CYS A   1      -9.076  11.691  68.089  1.00  0.00    -0.183 C  
ATOM     11  SG  CYS A   1      -8.852  11.363  66.307  1.00  0.00    -0.179 SA 
ATOM     12  HG  CYS A   1      -7.525  11.513  65.919  1.00  0.00     0.000 H  
ENDBRANCH   6  10
ENDBRANCH   4   6
TORSDOF 2
ENDMDL
MODEL      110
REMARK 921   NORMALIZED FREE ENERGY PREDICTED BY IDOCK:   -2.49 KCAL/MOL
REMARK 922        TOTAL FREE ENERGY PREDICTED BY IDOCK:   -2.94 KCAL/MOL
REMARK 923 INTER-LIGAND FREE ENERGY PREDICTED BY IDOCK:   -2.76 KCAL/MOL
REMARK 924 INTRA-LIGAND FREE ENERGY PREDICTED BY IDOCK:   -0.18 KCAL/MOL
REMARK 927      BINDING AFFINITY PREDICTED BY RF-SCORE:    0.00 PKD
ROOT
HETATM    1  C   UNK A   0     -11.352   5.621  72.661  1.00  0.00    -0.356 C  
HETATM    2  C   UNK A   0     -11.826   6.670  71.694  1.00  0.00    -0.336 C  
HETATM    3  O   UNK A   0     -13.005   6.968  71.563  1.00  0.00    -0.382 OA 
ATOM      4  N   CYS A   1     -10.834   7.183  70.882  1.00  0.00    -0.239 N  
ATOM      5  H   CYS A   1      -9.893   6.792  70.918  1.00  0.00     0.000 HD 
ENDROOT
BRANCH   4   6
ATOM      6  CA  CYS A   1     -11.135   8.301  69.960  1.00  0.00    -0.147 C  
ATOM      7  O   CYS A   1      -9.509   7.110  68.610  1.00  0.00    -0.141 OA 
ATOM      8  C   CYS A   1     -10.319   8.193  68.666  1.00  0.00    -0.200 C  
ATOM      9  OXT CYS A   1     -10.351   9.026  67.771  1.00  0.00    -0.219 OA 
BRANCH   6  10
ATOM     10  CB  CYS A   1     -10.825   9.668  70.584  1.00  0.00    -0.320 C  
ATOM     11  SG  CYS A   1     -12.339  10.501  71.174  1.00  0.00    -0.419 SA 
ATOM     12  HG  CYS A   1     -12.058  11.740  71.739  1.00  0.00     0.000 H  
ENDBRANCH   6  10
ENDBRANCH   4   6
TORSDOF 2
ENDMDL
MODEL      111
REMARK 921   NORMALIZED FREE ENERGY PREDICTED BY IDOCK:   -2.48 KCAL/MOL
REMARK 922        TOTAL FREE ENERGY PREDICTED BY IDOCK:   -2.93 KCAL/MOL
REMARK 923 INTER-LIGAND FREE ENERGY PREDICTED BY IDOCK:   -2.78 KCAL/MOL
REMARK 924 INTRA-LIGAND FREE ENERGY PREDICTED BY IDOCK:   -0.14 KCAL/MOL
REMARK 927      BINDING AFFINITY PREDICTED BY RF-SCORE:    0.00 PKD
ROOT
HETATM    1  C   UNK A   0     -12.316  13.481  65.899  1.00  0.00    -0.507 C  
HETATM    2  C   UNK A   0     -11.585  12.390  66.632  1.00  0.00    -0.385 C  
HETATM    3  O   UNK A   0     -12.088  11.752  67.547  1.00  0.00    -0.599 OA 
ATOM      4  N   CYS A   1     -10.260  12.252  66.270  1.00  0.00    -0.224 N  
ATOM      5  H   CYS A   1      -9.840  12.912  65.615  1.00  0.00     0.000 HD 
ENDROOT
BRANCH   4   6
ATOM      6  CA  CYS A   1      -9.449  11.148  66.830  1.00  0.00    -0.185 C  
ATOM      7  O   CYS A   1      -8.578  12.982  68.157  1.00  0.00    -0.176 OA 
ATOM      8  C   CYS A   1      -8.489  11.654  67.915  1.00  0.00    -0.148 C  
ATOM      9  OXT CYS A   1      -7.677  10.942  68.489  1.00  0.00    -0.104 OA 
BRANCH   6  10
ATOM     10  CB  CYS A   1      -8.602  10.449  65.759  1.00  0.00    -0.164 C  
ATOM     11  SG  CYS A   1      -9.390  10.530  64.114  1.00  0.00    -0.291 SA 
ATOM     12  HG  CYS A   1      -8.623   9.896  63.144  1.00  0.00     0.000 H  
ENDBRANCH   6  10
ENDBRANCH   4   6
TORSDOF 2
ENDMDL
MODEL      112
REMARK 921   NORMALIZED FREE ENERGY PREDICTED BY IDOCK:   -2.45 KCAL/MOL
REMARK 922        TOTAL FREE ENERGY PREDICTED BY IDOCK:   -2.90 KCAL/MOL
REMARK 923 INTER-LIGAND FREE ENERGY PREDICTED BY IDOCK:   -2.75 KCAL/MOL
REMARK 924 INTRA-LIGAND FREE ENERGY PREDICTED BY IDOCK:   -0.15 KCAL/MOL
REMARK 927      BINDING AFFINITY PREDICTED BY RF-SCORE:    0.00 PKD
ROOT
HETATM    1  C   UNK A   0      -8.152   8.369  68.688  1.00  0.00    -0.122 C  
HETATM    2  C   UNK A   0      -8.831   9.247  69.702  1.00  0.00    -0.155 C  
HETATM    3  O   UNK A   0      -8.268   9.658  70.707  1.00  0.00    -0.273 OA 
ATOM      4  N   CYS A   1     -10.176   9.451  69.467  1.00  0.00    -0.199 N  
ATOM      5  H   CYS A   1     -10.640   8.960  68.703  1.00  0.00     0.000 HD 
ENDROOT
BRANCH   4   6
ATOM      6  CA  CYS A   1     -10.945  10.383  70.322  1.00  0.00    -0.284 C  
ATOM      7  O   CYS A   1     -12.007   8.299  70.964  1.00  0.00    -0.296 OA 
ATOM      8  C   CYS A   1     -11.996   9.638  71.155  1.00  0.00    -0.367 C  
ATOM      9  OXT CYS A   1     -12.792  10.194  71.899  1.00  0.00    -0.413 OA 
BRANCH   6  10
ATOM     10  CB  CYS A   1     -11.682  11.449  69.502  1.00  0.00    -0.348 C  
ATOM     11  SG  CYS A   1     -11.204  11.398  67.741  1.00  0.00    -0.294 SA 
ATOM     12  HG  CYS A   1     -11.872  12.365  66.998  1.00  0.00     0.000 H  
ENDBRANCH   6  10
ENDBRANCH   4   6
TORSDOF 2
ENDMDL
MODEL      113
REMARK 921   NORMALIZED FREE ENERGY PREDICTED BY IDOCK:   -2.45 KCAL/MOL
REMARK 922        TOTAL FREE ENERGY PREDICTED BY IDOCK:   -2.90 KCAL/MOL
REMARK 923 INTER-LIGAND FREE ENERGY PREDICTED BY IDOCK:   -2.71 KCAL/MOL
REMARK 924 INTRA-LIGAND FREE ENERGY PREDICTED BY IDOCK:   -0.19 KCAL/MOL
REMARK 927      BINDING AFFINITY PREDICTED BY RF-SCORE:    0.00 PKD
ROOT
HETATM    1  C   UNK A   0     -12.590  10.434  71.213  1.00  0.00    -0.525 C  
HETATM    2  C   UNK A   0     -11.495   9.409  71.109  1.00  0.00    -0.352 C  
HETATM    3  O   UNK A   0     -10.950   8.917  72.088  1.00  0.00    -0.362 OA 
ATOM      4  N   CYS A   1     -11.071   9.160  69.819  1.00  0.00    -0.385 N  
ATOM      5  H   CYS A   1     -11.445   9.710  69.045  1.00  0.00     0.000 HD 
ENDROOT
BRANCH   4   6
ATOM      6  CA  CYS A   1     -10.076   8.097  69.557  1.00  0.00    -0.193 C  
ATOM      7  O   CYS A   1      -9.306   9.751  67.959  1.00  0.00    -0.129 OA 
ATOM      8  C   CYS A   1      -9.090   8.511  68.457  1.00  0.00    -0.135 C  
ATOM      9  OXT CYS A   1      -8.209   7.782  68.025  1.00  0.00    -0.121 OA 
BRANCH   6  10
ATOM     10  CB  CYS A   1     -10.733   6.784  69.111  1.00  0.00    -0.253 C  
ATOM     11  SG  CYS A   1     -10.580   5.485  70.385  1.00  0.00    -0.250 SA 
ATOM     12  HG  CYS A   1     -11.175   4.295  69.981  1.00  0.00     0.000 H  
ENDBRANCH   6  10
ENDBRANCH   4   6
TORSDOF 2
ENDMDL
MODEL      114
REMARK 921   NORMALIZED FREE ENERGY PREDICTED BY IDOCK:   -2.44 KCAL/MOL
REMARK 922        TOTAL FREE ENERGY PREDICTED BY IDOCK:   -2.89 KCAL/MOL
REMARK 923 INTER-LIGAND FREE ENERGY PREDICTED BY IDOCK:   -2.75 KCAL/MOL
REMARK 924 INTRA-LIGAND FREE ENERGY PREDICTED BY IDOCK:   -0.14 KCAL/MOL
REMARK 927      BINDING AFFINITY PREDICTED BY RF-SCORE:    0.00 PKD
ROOT
HETATM    1  C   UNK A   0     -11.658   6.605  69.746  1.00  0.00    -0.354 C  
HETATM    2  C   UNK A   0     -11.430   7.382  71.013  1.00  0.00    -0.282 C  
HETATM    3  O   UNK A   0     -12.036   8.412  71.279  1.00  0.00    -0.291 OA 
ATOM      4  N   CYS A   1     -10.396   6.907  71.793  1.00  0.00    -0.198 N  
ATOM      5  H   CYS A   1      -9.814   6.140  71.455  1.00  0.00     0.000 HD 
ENDROOT
BRANCH   4   6
ATOM      6  CA  CYS A   1     -10.129   7.507  73.119  1.00  0.00    -0.308 C  
ATOM      7  O   CYS A   1      -8.076   8.133  71.990  1.00  0.00    -0.115 OA 
ATOM      8  C   CYS A   1      -8.759   8.194  73.157  1.00  0.00    -0.240 C  
ATOM      9  OXT CYS A   1      -8.288   8.716  74.158  1.00  0.00    -0.297 OA 
BRANCH   6  10
ATOM     10  CB  CYS A   1     -10.150   6.464  74.243  1.00  0.00    -0.347 C  
ATOM     11  SG  CYS A   1     -10.827   4.867  73.672  1.00  0.00    -0.317 SA 
ATOM     12  HG  CYS A   1     -10.846   3.921  74.691  1.00  0.00     0.000 H  
ENDBRANCH   6  10
ENDBRANCH   4   6
TORSDOF 2
ENDMDL
MODEL      115
REMARK 921   NORMALIZED FREE ENERGY PREDICTED BY IDOCK:   -2.43 KCAL/MOL
REMARK 922        TOTAL FREE ENERGY PREDICTED BY IDOCK:   -2.88 KCAL/MOL
REMARK 923 INTER-LIGAND FREE ENERGY PREDICTED BY IDOCK:   -2.69 KCAL/MOL
REMARK 924 INTRA-LIGAND FREE ENERGY PREDICTED BY IDOCK:   -0.19 KCAL/MOL
REMARK 927      BINDING AFFINITY PREDICTED BY RF-SCORE:    0.00 PKD
ROOT
HETATM    1  C   UNK A   0     -10.981   6.108  66.862  1.00  0.00    -0.384 C  
HETATM    2  C   UNK A   0     -10.771   7.365  67.660  1.00  0.00    -0.207 C  
HETATM    3  O   UNK A   0     -10.455   8.431  67.149  1.00  0.00    -0.294 OA 
ATOM      4  N   CYS A   1     -10.847   7.189  69.027  1.00  0.00    -0.371 N  
ATOM      5  H   CYS A   1     -10.956   6.252  69.414  1.00  0.00     0.000 HD 
ENDROOT
BRANCH   4   6
ATOM      6  CA  CYS A   1     -10.770   8.359  69.931  1.00  0.00    -0.227 C  
ATOM      7  O   CYS A   1      -8.548   7.451  70.280  1.00  0.00    -0.141 OA 
ATOM      8  C   CYS A   1      -9.407   8.437  70.629  1.00  0.00    -0.160 C  
ATOM      9  OXT CYS A   1      -9.119   9.282  71.464  1.00  0.00    -0.315 OA 
BRANCH   6  10
ATOM     10  CB  CYS A   1     -11.844   8.318  71.026  1.00  0.00    -0.255 C  
ATOM     11  SG  CYS A   1     -11.917   6.685  71.840  1.00  0.00    -0.335 SA 
ATOM     12  HG  CYS A   1     -12.890   6.649  72.832  1.00  0.00     0.000 H  
ENDBRANCH   6  10
ENDBRANCH   4   6
TORSDOF 2
ENDMDL
MODEL      116
REMARK 921   NORMALIZED FREE ENERGY PREDICTED BY IDOCK:   -2.42 KCAL/MOL
REMARK 922        TOTAL FREE ENERGY PREDICTED BY IDOCK:   -2.86 KCAL/MOL
REMARK 923 INTER-LIGAND FREE ENERGY PREDICTED BY IDOCK:   -2.67 KCAL/MOL
REMARK 924 INTRA-LIGAND FREE ENERGY PREDICTED BY IDOCK:   -0.19 KCAL/MOL
REMARK 927      BINDING AFFINITY PREDICTED BY RF-SCORE:    0.00 PKD
ROOT
HETATM    1  C   UNK A   0      -7.344  13.083  68.057  1.00  0.00    -0.123 C  
HETATM    2  C   UNK A   0      -8.157  14.173  68.698  1.00  0.00    -0.126 C  
HETATM    3  O   UNK A   0      -7.655  15.087  69.339  1.00  0.00    -0.181 OA 
ATOM      4  N   CYS A   1      -9.522  13.991  68.608  1.00  0.00    -0.323 N  
ATOM      5  H   CYS A   1      -9.896  13.133  68.203  1.00  0.00     0.000 HD 
ENDROOT
BRANCH   4   6
ATOM      6  CA  CYS A   1     -10.444  15.040  69.099  1.00  0.00    -0.247 C  
ATOM      7  O   CYS A   1     -11.678  13.075  69.806  1.00  0.00    -0.300 OA 
ATOM      8  C   CYS A   1     -11.678  14.428  69.775  1.00  0.00    -0.305 C  
ATOM      9  OXT CYS A   1     -12.610  15.088  70.213  1.00  0.00    -0.342 OA 
BRANCH   6  10
ATOM     10  CB  CYS A   1     -10.945  15.948  67.969  1.00  0.00    -0.336 C  
ATOM     11  SG  CYS A   1     -10.373  17.669  68.180  1.00  0.00    -0.391 SA 
ATOM     12  HG  CYS A   1     -10.827  18.492  67.156  1.00  0.00     0.000 H  
ENDBRANCH   6  10
ENDBRANCH   4   6
TORSDOF 2
ENDMDL
MODEL      117
REMARK 921   NORMALIZED FREE ENERGY PREDICTED BY IDOCK:   -2.42 KCAL/MOL
REMARK 922        TOTAL FREE ENERGY PREDICTED BY IDOCK:   -2.86 KCAL/MOL
REMARK 923 INTER-LIGAND FREE ENERGY PREDICTED BY IDOCK:   -2.67 KCAL/MOL
REMARK 924 INTRA-LIGAND FREE ENERGY PREDICTED BY IDOCK:   -0.19 KCAL/MOL
REMARK 927      BINDING AFFINITY PREDICTED BY RF-SCORE:    0.00 PKD
ROOT
HETATM    1  C   UNK A   0      -8.639   3.705  71.402  1.00  0.00    -0.107 C  
HETATM    2  C   UNK A   0      -9.849   4.304  72.064  1.00  0.00    -0.175 C  
HETATM    3  O   UNK A   0     -10.564   3.676  72.834  1.00  0.00    -0.169 OA 
ATOM      4  N   CYS A   1     -10.156   5.580  71.637  1.00  0.00    -0.189 N  
ATOM      5  H   CYS A   1      -9.625   6.005  70.877  1.00  0.00     0.000 HD 
ENDROOT
BRANCH   4   6
ATOM      6  CA  CYS A   1     -11.256   6.333  72.282  1.00  0.00    -0.283 C  
ATOM      7  O   CYS A   1     -11.867   6.666  69.958  1.00  0.00    -0.372 OA 
ATOM      8  C   CYS A   1     -12.203   6.942  71.240  1.00  0.00    -0.380 C  
ATOM      9  OXT CYS A   1     -13.156   7.654  71.522  1.00  0.00    -0.340 OA 
BRANCH   6  10
ATOM     10  CB  CYS A   1     -10.738   7.482  73.156  1.00  0.00    -0.398 C  
ATOM     11  SG  CYS A   1      -9.154   8.146  72.533  1.00  0.00    -0.259 SA 
ATOM     12  HG  CYS A   1      -8.685   9.187  73.325  1.00  0.00     0.000 H  
ENDBRANCH   6  10
ENDBRANCH   4   6
TORSDOF 2
ENDMDL
MODEL      118
REMARK 921   NORMALIZED FREE ENERGY PREDICTED BY IDOCK:   -2.36 KCAL/MOL
REMARK 922        TOTAL FREE ENERGY PREDICTED BY IDOCK:   -2.79 KCAL/MOL
REMARK 923 INTER-LIGAND FREE ENERGY PREDICTED BY IDOCK:   -2.59 KCAL/MOL
REMARK 924 INTRA-LIGAND FREE ENERGY PREDICTED BY IDOCK:   -0.20 KCAL/MOL
REMARK 927      BINDING AFFINITY PREDICTED BY RF-SCORE:    0.00 PKD
ROOT
HETATM    1  C   UNK A   0     -11.914  13.256  66.868  1.00  0.00    -0.430 C  
HETATM    2  C   UNK A   0     -11.449  12.118  66.002  1.00  0.00    -0.370 C  
HETATM    3  O   UNK A   0     -11.873  11.930  64.870  1.00  0.00    -0.277 OA 
ATOM      4  N   CYS A   1     -10.596  11.236  66.633  1.00  0.00    -0.252 N  
ATOM      5  H   CYS A   1     -10.394  11.345  67.627  1.00  0.00     0.000 HD 
ENDROOT
BRANCH   4   6
ATOM      6  CA  CYS A   1      -9.974  10.131  65.869  1.00  0.00    -0.267 C  
ATOM      7  O   CYS A   1     -10.703   8.891  67.821  1.00  0.00    -0.223 OA 
ATOM      8  C   CYS A   1     -10.068   8.803  66.630  1.00  0.00    -0.288 C  
ATOM      9  OXT CYS A   1      -9.579   7.755  66.231  1.00  0.00    -0.184 OA 
BRANCH   6  10
ATOM     10  CB  CYS A   1      -8.489  10.389  65.581  1.00  0.00    -0.165 C  
ATOM     11  SG  CYS A   1      -7.602  10.970  67.067  1.00  0.00    -0.133 SA 
ATOM     12  HG  CYS A   1      -6.257  11.204  66.806  1.00  0.00     0.000 H  
ENDBRANCH   6  10
ENDBRANCH   4   6
TORSDOF 2
ENDMDL
MODEL      119
REMARK 921   NORMALIZED FREE ENERGY PREDICTED BY IDOCK:   -2.35 KCAL/MOL
REMARK 922        TOTAL FREE ENERGY PREDICTED BY IDOCK:   -2.78 KCAL/MOL
REMARK 923 INTER-LIGAND FREE ENERGY PREDICTED BY IDOCK:   -2.60 KCAL/MOL
REMARK 924 INTRA-LIGAND FREE ENERGY PREDICTED BY IDOCK:   -0.18 KCAL/MOL
REMARK 927      BINDING AFFINITY PREDICTED BY RF-SCORE:    0.00 PKD
ROOT
HETATM    1  C   UNK A   0      -7.712   9.513  64.672  1.00  0.00    -0.120 C  
HETATM    2  C   UNK A   0      -9.034   9.871  65.292  1.00  0.00    -0.191 C  
HETATM    3  O   UNK A   0      -9.866   9.033  65.612  1.00  0.00    -0.227 OA 
ATOM      4  N   CYS A   1      -9.282  11.227  65.356  1.00  0.00    -0.274 N  
ATOM      5  H   CYS A   1      -8.628  11.885  64.932  1.00  0.00     0.000 HD 
ENDROOT
BRANCH   4   6
ATOM      6  CA  CYS A   1     -10.495  11.728  66.040  1.00  0.00    -0.246 C  
ATOM      7  O   CYS A   1     -10.511  13.188  64.104  1.00  0.00    -0.421 OA 
ATOM      8  C   CYS A   1     -11.148  12.873  65.256  1.00  0.00    -0.284 C  
ATOM      9  OXT CYS A   1     -12.131  13.488  65.643  1.00  0.00    -0.379 OA 
BRANCH   6  10
ATOM     10  CB  CYS A   1     -10.192  12.253  67.450  1.00  0.00    -0.203 C  
ATOM     11  SG  CYS A   1     -11.155  11.367  68.723  1.00  0.00    -0.259 SA 
ATOM     12  HG  CYS A   1     -10.880  11.843  70.000  1.00  0.00     0.000 H  
ENDBRANCH   6  10
ENDBRANCH   4   6
TORSDOF 2
ENDMDL
MODEL      120
REMARK 921   NORMALIZED FREE ENERGY PREDICTED BY IDOCK:   -2.34 KCAL/MOL
REMARK 922        TOTAL FREE ENERGY PREDICTED BY IDOCK:   -2.78 KCAL/MOL
REMARK 923 INTER-LIGAND FREE ENERGY PREDICTED BY IDOCK:   -2.60 KCAL/MOL
REMARK 924 INTRA-LIGAND FREE ENERGY PREDICTED BY IDOCK:   -0.17 KCAL/MOL
REMARK 927      BINDING AFFINITY PREDICTED BY RF-SCORE:    0.00 PKD
ROOT
HETATM    1  C   UNK A   0     -10.543  16.040  65.353  1.00  0.00    -0.428 C  
HETATM    2  C   UNK A   0     -10.147  15.258  66.574  1.00  0.00    -0.270 C  
HETATM    3  O   UNK A   0     -10.638  15.456  67.677  1.00  0.00    -0.267 OA 
ATOM      4  N   CYS A   1      -9.100  14.382  66.373  1.00  0.00    -0.462 N  
ATOM      5  H   CYS A   1      -8.616  14.364  65.475  1.00  0.00     0.000 HD 
ENDROOT
BRANCH   4   6
ATOM      6  CA  CYS A   1      -8.677  13.469  67.458  1.00  0.00    -0.208 C  
ATOM      7  O   CYS A   1      -6.647  14.778  67.240  1.00  0.00    -0.298 OA 
ATOM      8  C   CYS A   1      -7.237  13.755  67.902  1.00  0.00    -0.154 C  
ATOM      9  OXT CYS A   1      -6.643  13.100  68.746  1.00  0.00    -0.084 OA 
BRANCH   6  10
ATOM     10  CB  CYS A   1      -8.741  11.996  67.035  1.00  0.00    -0.188 C  
ATOM     11  SG  CYS A   1     -10.454  11.364  67.042  1.00  0.00    -0.248 SA 
ATOM     12  HG  CYS A   1     -10.512  10.029  66.659  1.00  0.00     0.000 H  
ENDBRANCH   6  10
ENDBRANCH   4   6
TORSDOF 2
ENDMDL
MODEL      121
REMARK 921   NORMALIZED FREE ENERGY PREDICTED BY IDOCK:   -2.33 KCAL/MOL
REMARK 922        TOTAL FREE ENERGY PREDICTED BY IDOCK:   -2.76 KCAL/MOL
REMARK 923 INTER-LIGAND FREE ENERGY PREDICTED BY IDOCK:   -2.59 KCAL/MOL
REMARK 924 INTRA-LIGAND FREE ENERGY PREDICTED BY IDOCK:   -0.17 KCAL/MOL
REMARK 927      BINDING AFFINITY PREDICTED BY RF-SCORE:    0.00 PKD
ROOT
HETATM    1  C   UNK A   0      -6.245  20.894  67.576  1.00  0.00    -0.365 C  
HETATM    2  C   UNK A   0      -6.846  19.879  68.507  1.00  0.00    -0.308 C  
HETATM    3  O   UNK A   0      -6.816  19.995  69.725  1.00  0.00    -0.313 OA 
ATOM      4  N   CYS A   1      -7.328  18.748  67.880  1.00  0.00    -0.237 N  
ATOM      5  H   CYS A   1      -7.189  18.624  66.876  1.00  0.00     0.000 HD 
ENDROOT
BRANCH   4   6
ATOM      6  CA  CYS A   1      -8.044  17.715  68.660  1.00  0.00    -0.269 C  
ATOM      7  O   CYS A   1      -5.866  16.656  68.523  1.00  0.00    -0.121 OA 
ATOM      8  C   CYS A   1      -7.131  16.527  68.988  1.00  0.00    -0.213 C  
ATOM      9  OXT CYS A   1      -7.507  15.523  69.577  1.00  0.00    -0.206 OA 
BRANCH   6  10
ATOM     10  CB  CYS A   1      -9.263  17.162  67.910  1.00  0.00    -0.241 C  
ATOM     11  SG  CYS A   1      -8.810  16.528  66.258  1.00  0.00    -0.320 SA 
ATOM     12  HG  CYS A   1      -9.914  16.027  65.578  1.00  0.00     0.000 H  
ENDBRANCH   6  10
ENDBRANCH   4   6
TORSDOF 2
ENDMDL
MODEL      122
REMARK 921   NORMALIZED FREE ENERGY PREDICTED BY IDOCK:   -2.29 KCAL/MOL
REMARK 922        TOTAL FREE ENERGY PREDICTED BY IDOCK:   -2.73 KCAL/MOL
REMARK 923 INTER-LIGAND FREE ENERGY PREDICTED BY IDOCK:   -2.82 KCAL/MOL
REMARK 924 INTRA-LIGAND FREE ENERGY PREDICTED BY IDOCK:    0.09 KCAL/MOL
REMARK 927      BINDING AFFINITY PREDICTED BY RF-SCORE:    0.00 PKD
ROOT
HETATM    1  C   UNK A   0     -10.510  18.214  67.898  1.00  0.00    -0.408 C  
HETATM    2  C   UNK A   0     -10.751  16.759  67.607  1.00  0.00    -0.305 C  
HETATM    3  O   UNK A   0     -10.852  16.316  66.471  1.00  0.00    -0.240 OA 
ATOM      4  N   CYS A   1     -10.971  15.985  68.729  1.00  0.00    -0.299 N  
ATOM      5  H   CYS A   1     -11.034  16.425  69.647  1.00  0.00     0.000 HD 
ENDROOT
BRANCH   4   6
ATOM      6  CA  CYS A   1     -11.113  14.517  68.601  1.00  0.00    -0.257 C  
ATOM      7  O   CYS A   1     -12.166  14.823  70.765  1.00  0.00    -0.272 OA 
ATOM      8  C   CYS A   1     -11.809  13.914  69.827  1.00  0.00    -0.329 C  
ATOM      9  OXT CYS A   1     -11.993  12.715  69.983  1.00  0.00    -0.339 OA 
BRANCH   6  10
ATOM     10  CB  CYS A   1      -9.758  13.813  68.451  1.00  0.00    -0.219 C  
ATOM     11  SG  CYS A   1      -8.386  14.851  69.064  1.00  0.00    -0.152 SA 
ATOM     12  HG  CYS A   1      -7.158  14.213  68.928  1.00  0.00     0.000 H  
ENDBRANCH   6  10
ENDBRANCH   4   6
TORSDOF 2
ENDMDL
MODEL      123
REMARK 921   NORMALIZED FREE ENERGY PREDICTED BY IDOCK:   -2.29 KCAL/MOL
REMARK 922        TOTAL FREE ENERGY PREDICTED BY IDOCK:   -2.71 KCAL/MOL
REMARK 923 INTER-LIGAND FREE ENERGY PREDICTED BY IDOCK:   -2.53 KCAL/MOL
REMARK 924 INTRA-LIGAND FREE ENERGY PREDICTED BY IDOCK:   -0.19 KCAL/MOL
REMARK 927      BINDING AFFINITY PREDICTED BY RF-SCORE:    0.00 PKD
ROOT
HETATM    1  C   UNK A   0      -8.601   5.834  70.238  1.00  0.00    -0.133 C  
HETATM    2  C   UNK A   0      -9.877   6.596  70.011  1.00  0.00    -0.165 C  
HETATM    3  O   UNK A   0     -10.975   6.057  69.976  1.00  0.00    -0.324 OA 
ATOM      4  N   CYS A   1      -9.697   7.933  69.723  1.00  0.00    -0.175 N  
ATOM      5  H   CYS A   1      -8.754   8.307  69.606  1.00  0.00     0.000 HD 
ENDROOT
BRANCH   4   6
ATOM      6  CA  CYS A   1     -10.868   8.827  69.584  1.00  0.00    -0.169 C  
ATOM      7  O   CYS A   1      -9.608   9.534  67.636  1.00  0.00    -0.133 OA 
ATOM      8  C   CYS A   1     -10.738   9.733  68.353  1.00  0.00    -0.221 C  
ATOM      9  OXT CYS A   1     -11.553  10.595  68.055  1.00  0.00    -0.464 OA 
BRANCH   6  10
ATOM     10  CB  CYS A   1     -11.051   9.738  70.805  1.00  0.00    -0.345 C  
ATOM     11  SG  CYS A   1     -12.482   9.230  71.820  1.00  0.00    -0.400 SA 
ATOM     12  HG  CYS A   1     -12.648  10.056  72.926  1.00  0.00     0.000 H  
ENDBRANCH   6  10
ENDBRANCH   4   6
TORSDOF 2
ENDMDL
MODEL      124
REMARK 921   NORMALIZED FREE ENERGY PREDICTED BY IDOCK:   -2.28 KCAL/MOL
REMARK 922        TOTAL FREE ENERGY PREDICTED BY IDOCK:   -2.71 KCAL/MOL
REMARK 923 INTER-LIGAND FREE ENERGY PREDICTED BY IDOCK:   -2.54 KCAL/MOL
REMARK 924 INTRA-LIGAND FREE ENERGY PREDICTED BY IDOCK:   -0.16 KCAL/MOL
REMARK 927      BINDING AFFINITY PREDICTED BY RF-SCORE:    0.00 PKD
ROOT
HETATM    1  C   UNK A   0      -9.050  13.172  67.874  1.00  0.00    -0.207 C  
HETATM    2  C   UNK A   0      -8.577  12.094  66.939  1.00  0.00    -0.191 C  
HETATM    3  O   UNK A   0      -7.526  11.490  67.099  1.00  0.00    -0.126 OA 
ATOM      4  N   CYS A   1      -9.368  11.926  65.820  1.00  0.00    -0.365 N  
ATOM      5  H   CYS A   1     -10.149  12.560  65.648  1.00  0.00     0.000 HD 
ENDROOT
BRANCH   4   6
ATOM      6  CA  CYS A   1      -9.085  10.828  64.870  1.00  0.00    -0.198 C  
ATOM      7  O   CYS A   1     -10.309  12.313  63.394  1.00  0.00    -0.432 OA 
ATOM      8  C   CYS A   1      -9.672  11.122  63.483  1.00  0.00    -0.334 C  
ATOM      9  OXT CYS A   1      -9.617  10.343  62.543  1.00  0.00    -0.292 OA 
BRANCH   6  10
ATOM     10  CB  CYS A   1      -9.669   9.489  65.339  1.00  0.00    -0.244 C  
ATOM     11  SG  CYS A   1      -8.375   8.212  65.517  1.00  0.00    -0.156 SA 
ATOM     12  HG  CYS A   1      -8.905   6.999  65.942  1.00  0.00     0.000 H  
ENDBRANCH   6  10
ENDBRANCH   4   6
TORSDOF 2
ENDMDL
MODEL      125
REMARK 921   NORMALIZED FREE ENERGY PREDICTED BY IDOCK:   -2.26 KCAL/MOL
REMARK 922        TOTAL FREE ENERGY PREDICTED BY IDOCK:   -2.69 KCAL/MOL
REMARK 923 INTER-LIGAND FREE ENERGY PREDICTED BY IDOCK:   -2.53 KCAL/MOL
REMARK 924 INTRA-LIGAND FREE ENERGY PREDICTED BY IDOCK:   -0.16 KCAL/MOL
REMARK 927      BINDING AFFINITY PREDICTED BY RF-SCORE:    0.00 PKD
ROOT
HETATM    1  C   UNK A   0     -10.438   8.056  66.956  1.00  0.00    -0.410 C  
HETATM    2  C   UNK A   0      -9.936   7.504  68.261  1.00  0.00    -0.173 C  
HETATM    3  O   UNK A   0      -8.984   6.740  68.337  1.00  0.00    -0.125 OA 
ATOM      4  N   CYS A   1     -10.713   7.834  69.354  1.00  0.00    -0.332 N  
ATOM      5  H   CYS A   1     -11.588   8.342  69.222  1.00  0.00     0.000 HD 
ENDROOT
BRANCH   4   6
ATOM      6  CA  CYS A   1     -10.279   7.450  70.716  1.00  0.00    -0.197 C  
ATOM      7  O   CYS A   1     -12.641   6.931  70.901  1.00  0.00    -0.357 OA 
ATOM      8  C   CYS A   1     -11.457   6.945  71.557  1.00  0.00    -0.277 C  
ATOM      9  OXT CYS A   1     -11.363   6.620  72.732  1.00  0.00    -0.253 OA 
BRANCH   6  10
ATOM     10  CB  CYS A   1      -9.645   8.624  71.475  1.00  0.00    -0.257 C  
ATOM     11  SG  CYS A   1      -8.077   8.142  72.277  1.00  0.00    -0.147 SA 
ATOM     12  HG  CYS A   1      -7.503   9.205  72.964  1.00  0.00     0.000 H  
ENDBRANCH   6  10
ENDBRANCH   4   6
TORSDOF 2
ENDMDL
MODEL      126
REMARK 921   NORMALIZED FREE ENERGY PREDICTED BY IDOCK:   -2.24 KCAL/MOL
REMARK 922        TOTAL FREE ENERGY PREDICTED BY IDOCK:   -2.66 KCAL/MOL
REMARK 923 INTER-LIGAND FREE ENERGY PREDICTED BY IDOCK:   -2.50 KCAL/MOL
REMARK 924 INTRA-LIGAND FREE ENERGY PREDICTED BY IDOCK:   -0.16 KCAL/MOL
REMARK 927      BINDING AFFINITY PREDICTED BY RF-SCORE:    0.00 PKD
ROOT
HETATM    1  C   UNK A   0     -10.728   8.904  70.386  1.00  0.00    -0.261 C  
HETATM    2  C   UNK A   0     -10.585   9.736  69.143  1.00  0.00    -0.218 C  
HETATM    3  O   UNK A   0     -10.740   9.282  68.017  1.00  0.00    -0.232 OA 
ATOM      4  N   CYS A   1     -10.145  11.025  69.370  1.00  0.00    -0.427 N  
ATOM      5  H   CYS A   1      -9.875  11.313  70.311  1.00  0.00     0.000 HD 
ENDROOT
BRANCH   4   6
ATOM      6  CA  CYS A   1     -10.063  11.989  68.250  1.00  0.00    -0.201 C  
ATOM      7  O   CYS A   1      -7.710  11.857  68.821  1.00  0.00    -0.127 OA 
ATOM      8  C   CYS A   1      -8.617  12.433  67.998  1.00  0.00    -0.180 C  
ATOM      9  OXT CYS A   1      -8.298  13.266  67.162  1.00  0.00    -0.180 OA 
BRANCH   6  10
ATOM     10  CB  CYS A   1     -10.891  13.254  68.512  1.00  0.00    -0.265 C  
ATOM     11  SG  CYS A   1     -11.910  13.707  67.065  1.00  0.00    -0.412 SA 
ATOM     12  HG  CYS A   1     -12.659  14.853  67.303  1.00  0.00     0.000 H  
ENDBRANCH   6  10
ENDBRANCH   4   6
TORSDOF 2
ENDMDL
MODEL      127
REMARK 921   NORMALIZED FREE ENERGY PREDICTED BY IDOCK:   -2.22 KCAL/MOL
REMARK 922        TOTAL FREE ENERGY PREDICTED BY IDOCK:   -2.65 KCAL/MOL
REMARK 923 INTER-LIGAND FREE ENERGY PREDICTED BY IDOCK:   -2.47 KCAL/MOL
REMARK 924 INTRA-LIGAND FREE ENERGY PREDICTED BY IDOCK:   -0.18 KCAL/MOL
REMARK 927      BINDING AFFINITY PREDICTED BY RF-SCORE:    0.00 PKD
ROOT
HETATM    1  C   UNK A   0     -11.794  14.702  66.647  1.00  0.00    -0.325 C  
HETATM    2  C   UNK A   0     -11.561  13.939  67.921  1.00  0.00    -0.342 C  
HETATM    3  O   UNK A   0     -11.642  14.454  69.028  1.00  0.00    -0.261 OA 
ATOM      4  N   CYS A   1     -11.131  12.640  67.735  1.00  0.00    -0.235 N  
ATOM      5  H   CYS A   1     -10.925  12.302  66.795  1.00  0.00     0.000 HD 
ENDROOT
BRANCH   4   6
ATOM      6  CA  CYS A   1     -10.968  11.739  68.898  1.00  0.00    -0.239 C  
ATOM      7  O   CYS A   1      -9.268  10.805  67.441  1.00  0.00    -0.146 OA 
ATOM      8  C   CYS A   1      -9.873  10.695  68.647  1.00  0.00    -0.179 C  
ATOM      9  OXT CYS A   1      -9.589   9.805  69.436  1.00  0.00    -0.182 OA 
BRANCH   6  10
ATOM     10  CB  CYS A   1     -12.259  10.979  69.229  1.00  0.00    -0.210 C  
ATOM     11  SG  CYS A   1     -12.696  11.125  70.996  1.00  0.00    -0.350 SA 
ATOM     12  HG  CYS A   1     -13.866  10.436  71.295  1.00  0.00     0.000 H  
ENDBRANCH   6  10
ENDBRANCH   4   6
TORSDOF 2
ENDMDL
MODEL      128
REMARK 921   NORMALIZED FREE ENERGY PREDICTED BY IDOCK:   -2.22 KCAL/MOL
REMARK 922        TOTAL FREE ENERGY PREDICTED BY IDOCK:   -2.64 KCAL/MOL
REMARK 923 INTER-LIGAND FREE ENERGY PREDICTED BY IDOCK:   -2.47 KCAL/MOL
REMARK 924 INTRA-LIGAND FREE ENERGY PREDICTED BY IDOCK:   -0.17 KCAL/MOL
REMARK 927      BINDING AFFINITY PREDICTED BY RF-SCORE:    0.00 PKD
ROOT
HETATM    1  C   UNK A   0      -8.185  12.844  68.419  1.00  0.00    -0.121 C  
HETATM    2  C   UNK A   0      -8.192  14.341  68.563  1.00  0.00    -0.145 C  
HETATM    3  O   UNK A   0      -7.632  14.922  69.483  1.00  0.00    -0.177 OA 
ATOM      4  N   CYS A   1      -8.984  14.996  67.642  1.00  0.00    -0.174 N  
ATOM      5  H   CYS A   1      -9.559  14.460  66.991  1.00  0.00     0.000 HD 
ENDROOT
BRANCH   4   6
ATOM      6  CA  CYS A   1      -9.000  16.475  67.596  1.00  0.00    -0.197 C  
ATOM      7  O   CYS A   1     -11.356  16.074  68.006  1.00  0.00    -0.340 OA 
ATOM      8  C   CYS A   1     -10.415  17.026  67.807  1.00  0.00    -0.349 C  
ATOM      9  OXT CYS A   1     -10.696  18.215  67.758  1.00  0.00    -0.412 OA 
BRANCH   6  10
ATOM     10  CB  CYS A   1      -8.491  17.020  66.255  1.00  0.00    -0.269 C  
ATOM     11  SG  CYS A   1      -6.772  17.622  66.378  1.00  0.00    -0.285 SA 
ATOM     12  HG  CYS A   1      -6.312  18.116  65.163  1.00  0.00     0.000 H  
ENDBRANCH   6  10
ENDBRANCH   4   6
TORSDOF 2
ENDMDL
MODEL      129
REMARK 921   NORMALIZED FREE ENERGY PREDICTED BY IDOCK:   -2.21 KCAL/MOL
REMARK 922        TOTAL FREE ENERGY PREDICTED BY IDOCK:   -2.63 KCAL/MOL
REMARK 923 INTER-LIGAND FREE ENERGY PREDICTED BY IDOCK:   -2.47 KCAL/MOL
REMARK 924 INTRA-LIGAND FREE ENERGY PREDICTED BY IDOCK:   -0.16 KCAL/MOL
REMARK 927      BINDING AFFINITY PREDICTED BY RF-SCORE:    0.00 PKD
ROOT
HETATM    1  C   UNK A   0      -8.590   9.657  67.813  1.00  0.00    -0.125 C  
HETATM    2  C   UNK A   0      -9.541   8.921  68.715  1.00  0.00    -0.157 C  
HETATM    3  O   UNK A   0     -10.219   7.976  68.336  1.00  0.00    -0.198 OA 
ATOM      4  N   CYS A   1      -9.677   9.477  69.972  1.00  0.00    -0.220 N  
ATOM      5  H   CYS A   1      -9.212  10.358  70.192  1.00  0.00     0.000 HD 
ENDROOT
BRANCH   4   6
ATOM      6  CA  CYS A   1     -10.496   8.796  70.999  1.00  0.00    -0.230 C  
ATOM      7  O   CYS A   1     -11.874  10.760  70.644  1.00  0.00    -0.318 OA 
ATOM      8  C   CYS A   1     -11.751   9.608  71.343  1.00  0.00    -0.404 C  
ATOM      9  OXT CYS A   1     -12.557   9.281  72.203  1.00  0.00    -0.374 OA 
BRANCH   6  10
ATOM     10  CB  CYS A   1      -9.722   8.575  72.305  1.00  0.00    -0.310 C  
ATOM     11  SG  CYS A   1      -9.423   6.801  72.622  1.00  0.00    -0.138 SA 
ATOM     12  HG  CYS A   1      -8.721   6.601  73.806  1.00  0.00     0.000 H  
ENDBRANCH   6  10
ENDBRANCH   4   6
TORSDOF 2
ENDMDL
MODEL      130
REMARK 921   NORMALIZED FREE ENERGY PREDICTED BY IDOCK:   -2.19 KCAL/MOL
REMARK 922        TOTAL FREE ENERGY PREDICTED BY IDOCK:   -2.61 KCAL/MOL
REMARK 923 INTER-LIGAND FREE ENERGY PREDICTED BY IDOCK:   -2.53 KCAL/MOL
REMARK 924 INTRA-LIGAND FREE ENERGY PREDICTED BY IDOCK:   -0.07 KCAL/MOL
REMARK 927      BINDING AFFINITY PREDICTED BY RF-SCORE:    0.00 PKD
ROOT
HETATM    1  C   UNK A   0     -12.759   9.843  71.324  1.00  0.00    -0.482 C  
HETATM    2  C   UNK A   0     -12.076   8.751  72.101  1.00  0.00    -0.371 C  
HETATM    3  O   UNK A   0     -12.515   8.311  73.154  1.00  0.00    -0.073 OA 
ATOM      4  N   CYS A   1     -10.851   8.372  71.590  1.00  0.00    -0.249 N  
ATOM      5  H   CYS A   1     -10.451   8.877  70.798  1.00  0.00     0.000 HD 
ENDROOT
BRANCH   4   6
ATOM      6  CA  CYS A   1     -10.118   7.235  72.188  1.00  0.00    -0.181 C  
ATOM      7  O   CYS A   1      -8.293   8.822  72.008  1.00  0.00    -0.324 OA 
ATOM      8  C   CYS A   1      -8.635   7.570  72.392  1.00  0.00    -0.122 C  
ATOM      9  OXT CYS A   1      -7.811   6.775  72.820  1.00  0.00    -0.098 OA 
BRANCH   6  10
ATOM     10  CB  CYS A   1     -10.186   5.976  71.314  1.00  0.00    -0.205 C  
ATOM     11  SG  CYS A   1     -11.072   6.287  69.747  1.00  0.00    -0.430 SA 
ATOM     12  HG  CYS A   1     -11.134   5.146  68.956  1.00  0.00     0.000 H  
ENDBRANCH   6  10
ENDBRANCH   4   6
TORSDOF 2
ENDMDL
MODEL      131
REMARK 921   NORMALIZED FREE ENERGY PREDICTED BY IDOCK:   -2.18 KCAL/MOL
REMARK 922        TOTAL FREE ENERGY PREDICTED BY IDOCK:   -2.59 KCAL/MOL
REMARK 923 INTER-LIGAND FREE ENERGY PREDICTED BY IDOCK:   -2.39 KCAL/MOL
REMARK 924 INTRA-LIGAND FREE ENERGY PREDICTED BY IDOCK:   -0.20 KCAL/MOL
REMARK 927      BINDING AFFINITY PREDICTED BY RF-SCORE:    0.00 PKD
ROOT
HETATM    1  C   UNK A   0     -11.140   6.002  71.179  1.00  0.00    -0.336 C  
HETATM    2  C   UNK A   0     -11.394   7.400  70.688  1.00  0.00    -0.281 C  
HETATM    3  O   UNK A   0     -12.355   8.066  71.049  1.00  0.00    -0.263 OA 
ATOM      4  N   CYS A   1     -10.523   7.824  69.705  1.00  0.00    -0.229 N  
ATOM      5  H   CYS A   1      -9.834   7.177  69.321  1.00  0.00     0.000 HD 
ENDROOT
BRANCH   4   6
ATOM      6  CA  CYS A   1     -10.587   9.216  69.208  1.00  0.00    -0.216 C  
ATOM      7  O   CYS A   1     -10.793   8.040  67.097  1.00  0.00    -0.278 OA 
ATOM      8  C   CYS A   1     -10.735   9.259  67.682  1.00  0.00    -0.209 C  
ATOM      9  OXT CYS A   1     -10.755  10.293  67.029  1.00  0.00    -0.253 OA 
BRANCH   6  10
ATOM     10  CB  CYS A   1      -9.331  10.020  69.568  1.00  0.00    -0.229 C  
ATOM     11  SG  CYS A   1      -7.805   9.070  69.248  1.00  0.00    -0.098 SA 
ATOM     12  HG  CYS A   1      -6.667   9.798  69.575  1.00  0.00     0.000 H  
ENDBRANCH   6  10
ENDBRANCH   4   6
TORSDOF 2
ENDMDL
MODEL      132
REMARK 921   NORMALIZED FREE ENERGY PREDICTED BY IDOCK:   -2.17 KCAL/MOL
REMARK 922        TOTAL FREE ENERGY PREDICTED BY IDOCK:   -2.59 KCAL/MOL
REMARK 923 INTER-LIGAND FREE ENERGY PREDICTED BY IDOCK:   -2.54 KCAL/MOL
REMARK 924 INTRA-LIGAND FREE ENERGY PREDICTED BY IDOCK:   -0.04 KCAL/MOL
REMARK 927      BINDING AFFINITY PREDICTED BY RF-SCORE:    0.00 PKD
ROOT
HETATM    1  C   UNK A   0      -9.797  10.038  69.169  1.00  0.00    -0.213 C  
HETATM    2  C   UNK A   0     -10.236   9.805  67.750  1.00  0.00    -0.208 C  
HETATM    3  O   UNK A   0     -10.854   8.808  67.401  1.00  0.00    -0.213 OA 
ATOM      4  N   CYS A   1      -9.778  10.748  66.852  1.00  0.00    -0.175 N  
ATOM      5  H   CYS A   1      -9.134  11.476  67.162  1.00  0.00     0.000 HD 
ENDROOT
BRANCH   4   6
ATOM      6  CA  CYS A   1     -10.222  10.706  65.441  1.00  0.00    -0.273 C  
ATOM      7  O   CYS A   1      -8.133   9.493  65.228  1.00  0.00    -0.116 OA 
ATOM      8  C   CYS A   1      -9.208   9.967  64.558  1.00  0.00    -0.262 C  
ATOM      9  OXT CYS A   1      -9.323   9.847  63.346  1.00  0.00    -0.273 OA 
BRANCH   6  10
ATOM     10  CB  CYS A   1     -10.409  12.108  64.848  1.00  0.00    -0.289 C  
ATOM     11  SG  CYS A   1     -11.874  12.194  63.762  1.00  0.00    -0.523 SA 
ATOM     12  HG  CYS A   1     -12.043  13.465  63.225  1.00  0.00     0.000 H  
ENDBRANCH   6  10
ENDBRANCH   4   6
TORSDOF 2
ENDMDL
MODEL      133
REMARK 921   NORMALIZED FREE ENERGY PREDICTED BY IDOCK:   -2.16 KCAL/MOL
REMARK 922        TOTAL FREE ENERGY PREDICTED BY IDOCK:   -2.58 KCAL/MOL
REMARK 923 INTER-LIGAND FREE ENERGY PREDICTED BY IDOCK:   -2.41 KCAL/MOL
REMARK 924 INTRA-LIGAND FREE ENERGY PREDICTED BY IDOCK:   -0.17 KCAL/MOL
REMARK 927      BINDING AFFINITY PREDICTED BY RF-SCORE:    0.00 PKD
ROOT
HETATM    1  C   UNK A   0      -9.945  14.503  65.912  1.00  0.00    -0.352 C  
HETATM    2  C   UNK A   0      -9.428  13.237  66.536  1.00  0.00    -0.245 C  
HETATM    3  O   UNK A   0      -8.441  13.207  67.258  1.00  0.00    -0.189 OA 
ATOM      4  N   CYS A   1     -10.085  12.094  66.128  1.00  0.00    -0.223 N  
ATOM      5  H   CYS A   1     -10.801  12.148  65.403  1.00  0.00     0.000 HD 
ENDROOT
BRANCH   4   6
ATOM      6  CA  CYS A   1      -9.755  10.788  66.743  1.00  0.00    -0.187 C  
ATOM      7  O   CYS A   1      -9.421  10.214  64.410  1.00  0.00    -0.269 OA 
ATOM      8  C   CYS A   1      -9.388   9.746  65.680  1.00  0.00    -0.227 C  
ATOM      9  OXT CYS A   1      -9.130   8.578  65.934  1.00  0.00    -0.182 OA 
BRANCH   6  10
ATOM     10  CB  CYS A   1     -10.923  10.219  67.559  1.00  0.00    -0.280 C  
ATOM     11  SG  CYS A   1     -10.545  10.180  69.345  1.00  0.00    -0.254 SA 
ATOM     12  HG  CYS A   1     -11.603   9.663  70.084  1.00  0.00     0.000 H  
ENDBRANCH   6  10
ENDBRANCH   4   6
TORSDOF 2
ENDMDL
MODEL      134
REMARK 921   NORMALIZED FREE ENERGY PREDICTED BY IDOCK:   -2.15 KCAL/MOL
REMARK 922        TOTAL FREE ENERGY PREDICTED BY IDOCK:   -2.56 KCAL/MOL
REMARK 923 INTER-LIGAND FREE ENERGY PREDICTED BY IDOCK:   -2.40 KCAL/MOL
REMARK 924 INTRA-LIGAND FREE ENERGY PREDICTED BY IDOCK:   -0.16 KCAL/MOL
REMARK 927      BINDING AFFINITY PREDICTED BY RF-SCORE:    0.00 PKD
ROOT
HETATM    1  C   UNK A   0      -8.694  10.466  64.508  1.00  0.00    -0.205 C  
HETATM    2  C   UNK A   0      -8.921  11.299  65.739  1.00  0.00    -0.181 C  
HETATM    3  O   UNK A   0      -8.007  11.787  66.389  1.00  0.00    -0.075 OA 
ATOM      4  N   CYS A   1     -10.239  11.366  66.144  1.00  0.00    -0.231 N  
ATOM      5  H   CYS A   1     -10.949  10.813  65.662  1.00  0.00     0.000 HD 
ENDROOT
BRANCH   4   6
ATOM      6  CA  CYS A   1     -10.625  12.239  67.275  1.00  0.00    -0.224 C  
ATOM      7  O   CYS A   1     -11.048  10.077  68.290  1.00  0.00    -0.247 OA 
ATOM      8  C   CYS A   1     -11.092  11.416  68.482  1.00  0.00    -0.235 C  
ATOM      9  OXT CYS A   1     -11.513  11.909  69.519  1.00  0.00    -0.279 OA 
BRANCH   6  10
ATOM     10  CB  CYS A   1     -11.764  13.198  66.907  1.00  0.00    -0.387 C  
ATOM     11  SG  CYS A   1     -11.131  14.818  66.351  1.00  0.00    -0.340 SA 
ATOM     12  HG  CYS A   1     -12.163  15.687  66.017  1.00  0.00     0.000 H  
ENDBRANCH   6  10
ENDBRANCH   4   6
TORSDOF 2
ENDMDL
MODEL      135
REMARK 921   NORMALIZED FREE ENERGY PREDICTED BY IDOCK:   -2.15 KCAL/MOL
REMARK 922        TOTAL FREE ENERGY PREDICTED BY IDOCK:   -2.56 KCAL/MOL
REMARK 923 INTER-LIGAND FREE ENERGY PREDICTED BY IDOCK:   -2.36 KCAL/MOL
REMARK 924 INTRA-LIGAND FREE ENERGY PREDICTED BY IDOCK:   -0.20 KCAL/MOL
REMARK 927      BINDING AFFINITY PREDICTED BY RF-SCORE:    0.00 PKD
ROOT
HETATM    1  C   UNK A   0     -10.302   8.318  68.635  1.00  0.00    -0.225 C  
HETATM    2  C   UNK A   0     -10.702   7.162  69.509  1.00  0.00    -0.239 C  
HETATM    3  O   UNK A   0     -11.534   6.331  69.171  1.00  0.00    -0.394 OA 
ATOM      4  N   CYS A   1     -10.143   7.185  70.771  1.00  0.00    -0.190 N  
ATOM      5  H   CYS A   1      -9.578   7.982  71.064  1.00  0.00     0.000 HD 
ENDROOT
BRANCH   4   6
ATOM      6  CA  CYS A   1     -10.361   6.053  71.699  1.00  0.00    -0.214 C  
ATOM      7  O   CYS A   1     -10.381   7.876  73.298  1.00  0.00    -0.335 OA 
ATOM      8  C   CYS A   1     -10.481   6.535  73.150  1.00  0.00    -0.249 C  
ATOM      9  OXT CYS A   1     -10.610   5.784  74.107  1.00  0.00    -0.267 OA 
BRANCH   6  10
ATOM     10  CB  CYS A   1      -9.218   5.032  71.649  1.00  0.00    -0.145 C  
ATOM     11  SG  CYS A   1      -7.585   5.847  71.588  1.00  0.00    -0.101 SA 
ATOM     12  HG  CYS A   1      -6.549   4.921  71.542  1.00  0.00     0.000 H  
ENDBRANCH   6  10
ENDBRANCH   4   6
TORSDOF 2
ENDMDL
MODEL      136
REMARK 921   NORMALIZED FREE ENERGY PREDICTED BY IDOCK:   -2.12 KCAL/MOL
REMARK 922        TOTAL FREE ENERGY PREDICTED BY IDOCK:   -2.53 KCAL/MOL
REMARK 923 INTER-LIGAND FREE ENERGY PREDICTED BY IDOCK:   -2.35 KCAL/MOL
REMARK 924 INTRA-LIGAND FREE ENERGY PREDICTED BY IDOCK:   -0.19 KCAL/MOL
REMARK 927      BINDING AFFINITY PREDICTED BY RF-SCORE:    0.00 PKD
ROOT
HETATM    1  C   UNK A   0      -7.052  11.139  69.649  1.00  0.00    -0.050 C  
HETATM    2  C   UNK A   0      -8.102  11.239  68.577  1.00  0.00    -0.148 C  
HETATM    3  O   UNK A   0      -7.866  11.031  67.395  1.00  0.00    -0.112 OA 
ATOM      4  N   CYS A   1      -9.324  11.703  69.020  1.00  0.00    -0.408 N  
ATOM      5  H   CYS A   1      -9.431  12.015  69.986  1.00  0.00     0.000 HD 
ENDROOT
BRANCH   4   6
ATOM      6  CA  CYS A   1     -10.480  11.748  68.097  1.00  0.00    -0.201 C  
ATOM      7  O   CYS A   1     -10.260  14.119  68.560  1.00  0.00    -0.237 OA 
ATOM      8  C   CYS A   1     -10.972  13.185  67.887  1.00  0.00    -0.249 C  
ATOM      9  OXT CYS A   1     -11.948  13.477  67.211  1.00  0.00    -0.370 OA 
BRANCH   6  10
ATOM     10  CB  CYS A   1     -11.669  10.928  68.615  1.00  0.00    -0.263 C  
ATOM     11  SG  CYS A   1     -12.269  11.550  70.224  1.00  0.00    -0.309 SA 
ATOM     12  HG  CYS A   1     -13.346  10.806  70.693  1.00  0.00     0.000 H  
ENDBRANCH   6  10
ENDBRANCH   4   6
TORSDOF 2
ENDMDL
MODEL      137
REMARK 921   NORMALIZED FREE ENERGY PREDICTED BY IDOCK:   -2.12 KCAL/MOL
REMARK 922        TOTAL FREE ENERGY PREDICTED BY IDOCK:   -2.53 KCAL/MOL
REMARK 923 INTER-LIGAND FREE ENERGY PREDICTED BY IDOCK:   -2.37 KCAL/MOL
REMARK 924 INTRA-LIGAND FREE ENERGY PREDICTED BY IDOCK:   -0.16 KCAL/MOL
REMARK 927      BINDING AFFINITY PREDICTED BY RF-SCORE:    0.00 PKD
ROOT
HETATM    1  C   UNK A   0      -7.588  19.767  65.986  1.00  0.00    -0.340 C  
HETATM    2  C   UNK A   0      -7.769  18.872  67.181  1.00  0.00    -0.235 C  
HETATM    3  O   UNK A   0      -7.476  19.215  68.318  1.00  0.00    -0.276 OA 
ATOM      4  N   CYS A   1      -8.178  17.590  66.873  1.00  0.00    -0.217 N  
ATOM      5  H   CYS A   1      -8.258  17.302  65.898  1.00  0.00     0.000 HD 
ENDROOT
BRANCH   4   6
ATOM      6  CA  CYS A   1      -8.501  16.635  67.956  1.00  0.00    -0.192 C  
ATOM      7  O   CYS A   1      -6.580  15.504  66.999  1.00  0.00    -0.279 OA 
ATOM      8  C   CYS A   1      -7.533  15.445  67.958  1.00  0.00    -0.129 C  
ATOM      9  OXT CYS A   1      -7.626  14.495  68.723  1.00  0.00    -0.120 OA 
BRANCH   6  10
ATOM     10  CB  CYS A   1      -9.921  16.069  67.827  1.00  0.00    -0.234 C  
ATOM     11  SG  CYS A   1     -10.843  16.191  69.398  1.00  0.00    -0.344 SA 
ATOM     12  HG  CYS A   1     -12.130  15.679  69.281  1.00  0.00     0.000 H  
ENDBRANCH   6  10
ENDBRANCH   4   6
TORSDOF 2
ENDMDL
MODEL      138
REMARK 921   NORMALIZED FREE ENERGY PREDICTED BY IDOCK:   -2.11 KCAL/MOL
REMARK 922        TOTAL FREE ENERGY PREDICTED BY IDOCK:   -2.52 KCAL/MOL
REMARK 923 INTER-LIGAND FREE ENERGY PREDICTED BY IDOCK:   -2.36 KCAL/MOL
REMARK 924 INTRA-LIGAND FREE ENERGY PREDICTED BY IDOCK:   -0.16 KCAL/MOL
REMARK 927      BINDING AFFINITY PREDICTED BY RF-SCORE:    0.00 PKD
ROOT
HETATM    1  C   UNK A   0      -6.970  11.806  69.197  1.00  0.00    -0.091 C  
HETATM    2  C   UNK A   0      -7.830  12.689  68.337  1.00  0.00    -0.136 C  
HETATM    3  O   UNK A   0      -7.393  13.310  67.378  1.00  0.00    -0.160 OA 
ATOM      4  N   CYS A   1      -9.125  12.836  68.791  1.00  0.00    -0.393 N  
ATOM      5  H   CYS A   1      -9.402  12.426  69.683  1.00  0.00     0.000 HD 
ENDROOT
BRANCH   4   6
ATOM      6  CA  CYS A   1     -10.112  13.588  67.984  1.00  0.00    -0.244 C  
ATOM      7  O   CYS A   1      -9.917  15.101  69.870  1.00  0.00    -0.198 OA 
ATOM      8  C   CYS A   1     -10.531  14.888  68.682  1.00  0.00    -0.242 C  
ATOM      9  OXT CYS A   1     -11.376  15.654  68.242  1.00  0.00    -0.334 OA 
BRANCH   6  10
ATOM     10  CB  CYS A   1     -11.388  12.777  67.725  1.00  0.00    -0.294 C  
ATOM     11  SG  CYS A   1     -11.018  11.155  66.970  1.00  0.00    -0.267 SA 
ATOM     12  HG  CYS A   1     -12.174  10.421  66.735  1.00  0.00     0.000 H  
ENDBRANCH   6  10
ENDBRANCH   4   6
TORSDOF 2
ENDMDL
MODEL      139
REMARK 921   NORMALIZED FREE ENERGY PREDICTED BY IDOCK:   -2.09 KCAL/MOL
REMARK 922        TOTAL FREE ENERGY PREDICTED BY IDOCK:   -2.49 KCAL/MOL
REMARK 923 INTER-LIGAND FREE ENERGY PREDICTED BY IDOCK:   -2.33 KCAL/MOL
REMARK 924 INTRA-LIGAND FREE ENERGY PREDICTED BY IDOCK:   -0.17 KCAL/MOL
REMARK 927      BINDING AFFINITY PREDICTED BY RF-SCORE:    0.00 PKD
ROOT
HETATM    1  C   UNK A   0     -11.782  15.804  68.771  1.00  0.00    -0.387 C  
HETATM    2  C   UNK A   0     -10.442  16.326  68.332  1.00  0.00    -0.282 C  
HETATM    3  O   UNK A   0     -10.289  17.440  67.849  1.00  0.00    -0.334 OA 
ATOM      4  N   CYS A   1      -9.420  15.402  68.407  1.00  0.00    -0.196 N  
ATOM      5  H   CYS A   1      -9.624  14.436  68.666  1.00  0.00     0.000 HD 
ENDROOT
BRANCH   4   6
ATOM      6  CA  CYS A   1      -8.028  15.809  68.111  1.00  0.00    -0.135 C  
ATOM      7  O   CYS A   1      -7.871  13.454  67.553  1.00  0.00    -0.157 OA 
ATOM      8  C   CYS A   1      -7.188  14.620  67.629  1.00  0.00    -0.186 C  
ATOM      9  OXT CYS A   1      -5.994  14.691  67.374  1.00  0.00    -0.343 OA 
BRANCH   6  10
ATOM     10  CB  CYS A   1      -7.323  16.400  69.339  1.00  0.00    -0.150 C  
ATOM     11  SG  CYS A   1      -7.024  18.192  69.149  1.00  0.00    -0.155 SA 
ATOM     12  HG  CYS A   1      -6.385  18.727  70.261  1.00  0.00     0.000 H  
ENDBRANCH   6  10
ENDBRANCH   4   6
TORSDOF 2
ENDMDL
MODEL      140
REMARK 921   NORMALIZED FREE ENERGY PREDICTED BY IDOCK:   -2.08 KCAL/MOL
REMARK 922        TOTAL FREE ENERGY PREDICTED BY IDOCK:   -2.49 KCAL/MOL
REMARK 923 INTER-LIGAND FREE ENERGY PREDICTED BY IDOCK:   -2.28 KCAL/MOL
REMARK 924 INTRA-LIGAND FREE ENERGY PREDICTED BY IDOCK:   -0.20 KCAL/MOL
REMARK 927      BINDING AFFINITY PREDICTED BY RF-SCORE:    0.00 PKD
ROOT
HETATM    1  C   UNK A   0      -7.568   5.003  70.164  1.00  0.00    -0.060 C  
HETATM    2  C   UNK A   0      -8.924   5.651  70.180  1.00  0.00    -0.138 C  
HETATM    3  O   UNK A   0      -9.746   5.494  69.287  1.00  0.00    -0.139 OA 
ATOM      4  N   CYS A   1      -9.119   6.534  71.223  1.00  0.00    -0.148 N  
ATOM      5  H   CYS A   1      -8.349   6.753  71.855  1.00  0.00     0.000 HD 
ENDROOT
BRANCH   4   6
ATOM      6  CA  CYS A   1     -10.444   7.161  71.426  1.00  0.00    -0.204 C  
ATOM      7  O   CYS A   1      -9.043   9.126  71.666  1.00  0.00    -0.334 OA 
ATOM      8  C   CYS A   1     -10.316   8.667  71.687  1.00  0.00    -0.296 C  
ATOM      9  OXT CYS A   1     -11.265   9.396  71.938  1.00  0.00    -0.354 OA 
BRANCH   6  10
ATOM     10  CB  CYS A   1     -11.198   6.553  72.616  1.00  0.00    -0.249 C  
ATOM     11  SG  CYS A   1     -10.149   6.467  74.109  1.00  0.00    -0.359 SA 
ATOM     12  HG  CYS A   1     -10.833   5.916  75.187  1.00  0.00     0.000 H  
ENDBRANCH   6  10
ENDBRANCH   4   6
TORSDOF 2
ENDMDL
MODEL      141
REMARK 921   NORMALIZED FREE ENERGY PREDICTED BY IDOCK:   -2.08 KCAL/MOL
REMARK 922        TOTAL FREE ENERGY PREDICTED BY IDOCK:   -2.48 KCAL/MOL
REMARK 923 INTER-LIGAND FREE ENERGY PREDICTED BY IDOCK:   -2.28 KCAL/MOL
REMARK 924 INTRA-LIGAND FREE ENERGY PREDICTED BY IDOCK:   -0.20 KCAL/MOL
REMARK 927      BINDING AFFINITY PREDICTED BY RF-SCORE:    0.00 PKD
ROOT
HETATM    1  C   UNK A   0     -11.367  10.014  70.169  1.00  0.00    -0.357 C  
HETATM    2  C   UNK A   0     -10.764   8.641  70.065  1.00  0.00    -0.228 C  
HETATM    3  O   UNK A   0     -10.614   8.061  68.998  1.00  0.00    -0.215 OA 
ATOM      4  N   CYS A   1     -10.505   8.040  71.280  1.00  0.00    -0.199 N  
ATOM      5  H   CYS A   1     -10.793   8.497  72.146  1.00  0.00     0.000 HD 
ENDROOT
BRANCH   4   6
ATOM      6  CA  CYS A   1      -9.811   6.734  71.329  1.00  0.00    -0.176 C  
ATOM      7  O   CYS A   1     -11.934   6.083  72.307  1.00  0.00    -0.318 OA 
ATOM      8  C   CYS A   1     -10.703   5.649  71.947  1.00  0.00    -0.241 C  
ATOM      9  OXT CYS A   1     -10.336   4.500  72.146  1.00  0.00    -0.192 OA 
BRANCH   6  10
ATOM     10  CB  CYS A   1      -8.522   6.793  72.158  1.00  0.00    -0.110 C  
ATOM     11  SG  CYS A   1      -8.836   7.380  73.859  1.00  0.00    -0.244 SA 
ATOM     12  HG  CYS A   1      -7.668   7.433  74.609  1.00  0.00     0.000 H  
ENDBRANCH   6  10
ENDBRANCH   4   6
TORSDOF 2
ENDMDL
MODEL      142
REMARK 921   NORMALIZED FREE ENERGY PREDICTED BY IDOCK:   -2.07 KCAL/MOL
REMARK 922        TOTAL FREE ENERGY PREDICTED BY IDOCK:   -2.47 KCAL/MOL
REMARK 923 INTER-LIGAND FREE ENERGY PREDICTED BY IDOCK:   -2.31 KCAL/MOL
REMARK 924 INTRA-LIGAND FREE ENERGY PREDICTED BY IDOCK:   -0.16 KCAL/MOL
REMARK 927      BINDING AFFINITY PREDICTED BY RF-SCORE:    0.00 PKD
ROOT
HETATM    1  C   UNK A   0     -10.151  10.599  69.149  1.00  0.00    -0.234 C  
HETATM    2  C   UNK A   0      -9.682   9.173  69.237  1.00  0.00    -0.164 C  
HETATM    3  O   UNK A   0      -8.525   8.869  69.494  1.00  0.00    -0.121 OA 
ATOM      4  N   CYS A   1     -10.635   8.239  68.886  1.00  0.00    -0.358 N  
ATOM      5  H   CYS A   1     -11.539   8.545  68.525  1.00  0.00     0.000 HD 
ENDROOT
BRANCH   4   6
ATOM      6  CA  CYS A   1     -10.347   6.794  69.031  1.00  0.00    -0.195 C  
ATOM      7  O   CYS A   1     -11.053   6.819  66.710  1.00  0.00    -0.338 OA 
ATOM      8  C   CYS A   1     -10.623   6.035  67.727  1.00  0.00    -0.267 C  
ATOM      9  OXT CYS A   1     -10.513   4.823  67.610  1.00  0.00    -0.037 OA 
BRANCH   6  10
ATOM     10  CB  CYS A   1     -11.196   6.141  70.129  1.00  0.00    -0.382 C  
ATOM     11  SG  CYS A   1     -10.169   5.184  71.298  1.00  0.00    -0.209 SA 
ATOM     12  HG  CYS A   1     -10.938   4.592  72.293  1.00  0.00     0.000 H  
ENDBRANCH   6  10
ENDBRANCH   4   6
TORSDOF 2
ENDMDL
MODEL      143
REMARK 921   NORMALIZED FREE ENERGY PREDICTED BY IDOCK:   -2.06 KCAL/MOL
REMARK 922        TOTAL FREE ENERGY PREDICTED BY IDOCK:   -2.46 KCAL/MOL
REMARK 923 INTER-LIGAND FREE ENERGY PREDICTED BY IDOCK:   -2.31 KCAL/MOL
REMARK 924 INTRA-LIGAND FREE ENERGY PREDICTED BY IDOCK:   -0.15 KCAL/MOL
REMARK 927      BINDING AFFINITY PREDICTED BY RF-SCORE:    0.00 PKD
ROOT
HETATM    1  C   UNK A   0     -10.493   4.720  65.997  1.00  0.00    -0.332 C  
HETATM    2  C   UNK A   0     -10.540   5.852  66.986  1.00  0.00    -0.305 C  
HETATM    3  O   UNK A   0     -10.761   7.010  66.660  1.00  0.00    -0.249 OA 
ATOM      4  N   CYS A   1     -10.191   5.495  68.273  1.00  0.00    -0.178 N  
ATOM      5  H   CYS A   1      -9.860   4.550  68.468  1.00  0.00     0.000 HD 
ENDROOT
BRANCH   4   6
ATOM      6  CA  CYS A   1     -10.298   6.482  69.370  1.00  0.00    -0.205 C  
ATOM      7  O   CYS A   1      -7.886   6.438  69.122  1.00  0.00    -0.105 OA 
ATOM      8  C   CYS A   1      -8.916   6.977  69.815  1.00  0.00    -0.141 C  
ATOM      9  OXT CYS A   1      -8.739   7.754  70.742  1.00  0.00    -0.132 OA 
BRANCH   6  10
ATOM     10  CB  CYS A   1     -10.996   5.902  70.607  1.00  0.00    -0.287 C  
ATOM     11  SG  CYS A   1     -12.317   7.005  71.219  1.00  0.00    -0.374 SA 
ATOM     12  HG  CYS A   1     -12.949   6.479  72.339  1.00  0.00     0.000 H  
ENDBRANCH   6  10
ENDBRANCH   4   6
TORSDOF 2
ENDMDL
MODEL      144
REMARK 921   NORMALIZED FREE ENERGY PREDICTED BY IDOCK:   -2.05 KCAL/MOL
REMARK 922        TOTAL FREE ENERGY PREDICTED BY IDOCK:   -2.46 KCAL/MOL
REMARK 923 INTER-LIGAND FREE ENERGY PREDICTED BY IDOCK:   -2.30 KCAL/MOL
REMARK 924 INTRA-LIGAND FREE ENERGY PREDICTED BY IDOCK:   -0.15 KCAL/MOL
REMARK 927      BINDING AFFINITY PREDICTED BY RF-SCORE:    0.00 PKD
ROOT
HETATM    1  C   UNK A   0     -11.447  11.848  69.619  1.00  0.00    -0.337 C  
HETATM    2  C   UNK A   0     -11.289  10.396  69.974  1.00  0.00    -0.313 C  
HETATM    3  O   UNK A   0     -12.132   9.770  70.602  1.00  0.00    -0.274 OA 
ATOM      4  N   CYS A   1     -10.061   9.861  69.641  1.00  0.00    -0.216 N  
ATOM      5  H   CYS A   1      -9.329  10.462  69.261  1.00  0.00     0.000 HD 
ENDROOT
BRANCH   4   6
ATOM      6  CA  CYS A   1      -9.805   8.416  69.832  1.00  0.00    -0.186 C  
ATOM      7  O   CYS A   1      -8.504   9.290  71.683  1.00  0.00    -0.304 OA 
ATOM      8  C   CYS A   1      -8.885   8.165  71.034  1.00  0.00    -0.143 C  
ATOM      9  OXT CYS A   1      -8.484   7.058  71.363  1.00  0.00    -0.114 OA 
BRANCH   6  10
ATOM     10  CB  CYS A   1      -9.141   7.776  68.606  1.00  0.00    -0.136 C  
ATOM     11  SG  CYS A   1      -9.956   8.285  67.053  1.00  0.00    -0.283 SA 
ATOM     12  HG  CYS A   1      -9.355   7.705  65.942  1.00  0.00     0.000 H  
ENDBRANCH   6  10
ENDBRANCH   4   6
TORSDOF 2
ENDMDL
MODEL      145
REMARK 921   NORMALIZED FREE ENERGY PREDICTED BY IDOCK:   -2.04 KCAL/MOL
REMARK 922        TOTAL FREE ENERGY PREDICTED BY IDOCK:   -2.44 KCAL/MOL
REMARK 923 INTER-LIGAND FREE ENERGY PREDICTED BY IDOCK:   -2.25 KCAL/MOL
REMARK 924 INTRA-LIGAND FREE ENERGY PREDICTED BY IDOCK:   -0.20 KCAL/MOL
REMARK 927      BINDING AFFINITY PREDICTED BY RF-SCORE:    0.00 PKD
ROOT
HETATM    1  C   UNK A   0     -11.059  12.510  68.893  1.00  0.00    -0.309 C  
HETATM    2  C   UNK A   0      -9.990  13.163  68.063  1.00  0.00    -0.233 C  
HETATM    3  O   UNK A   0      -9.185  12.526  67.396  1.00  0.00    -0.174 OA 
ATOM      4  N   CYS A   1      -9.914  14.533  68.210  1.00  0.00    -0.223 N  
ATOM      5  H   CYS A   1     -10.502  15.005  68.898  1.00  0.00     0.000 HD 
ENDROOT
BRANCH   4   6
ATOM      6  CA  CYS A   1      -8.982  15.319  67.372  1.00  0.00    -0.183 C  
ATOM      7  O   CYS A   1      -7.819  15.473  69.495  1.00  0.00    -0.224 OA 
ATOM      8  C   CYS A   1      -7.794  15.839  68.193  1.00  0.00    -0.131 C  
ATOM      9  OXT CYS A   1      -6.917  16.558  67.737  1.00  0.00    -0.130 OA 
BRANCH   6  10
ATOM     10  CB  CYS A   1      -9.662  16.536  66.731  1.00  0.00    -0.258 C  
ATOM     11  SG  CYS A   1     -10.454  17.605  67.981  1.00  0.00    -0.384 SA 
ATOM     12  HG  CYS A   1     -11.070  18.707  67.400  1.00  0.00     0.000 H  
ENDBRANCH   6  10
ENDBRANCH   4   6
TORSDOF 2
ENDMDL
MODEL      146
REMARK 921   NORMALIZED FREE ENERGY PREDICTED BY IDOCK:   -2.02 KCAL/MOL
REMARK 922        TOTAL FREE ENERGY PREDICTED BY IDOCK:   -2.42 KCAL/MOL
REMARK 923 INTER-LIGAND FREE ENERGY PREDICTED BY IDOCK:   -2.25 KCAL/MOL
REMARK 924 INTRA-LIGAND FREE ENERGY PREDICTED BY IDOCK:   -0.17 KCAL/MOL
REMARK 927      BINDING AFFINITY PREDICTED BY RF-SCORE:    0.00 PKD
ROOT
HETATM    1  C   UNK A   0      -9.153   3.296  67.095  1.00  0.00    -0.200 C  
HETATM    2  C   UNK A   0     -10.079   4.479  67.134  1.00  0.00    -0.112 C  
HETATM    3  O   UNK A   0     -10.781   4.804  66.187  1.00  0.00    -0.308 OA 
ATOM      4  N   CYS A   1      -9.982   5.239  68.283  1.00  0.00    -0.155 N  
ATOM      5  H   CYS A   1      -9.270   5.020  68.980  1.00  0.00     0.000 HD 
ENDROOT
BRANCH   4   6
ATOM      6  CA  CYS A   1     -10.911   6.369  68.505  1.00  0.00    -0.319 C  
ATOM      7  O   CYS A   1      -8.924   7.615  67.886  1.00  0.00    -0.129 OA 
ATOM      8  C   CYS A   1     -10.220   7.717  68.264  1.00  0.00    -0.201 C  
ATOM      9  OXT CYS A   1     -10.762   8.799  68.436  1.00  0.00    -0.169 OA 
BRANCH   6  10
ATOM     10  CB  CYS A   1     -11.468   6.391  69.934  1.00  0.00    -0.415 C  
ATOM     11  SG  CYS A   1     -10.307   5.636  71.125  1.00  0.00    -0.242 SA 
ATOM     12  HG  CYS A   1     -10.812   5.655  72.419  1.00  0.00     0.000 H  
ENDBRANCH   6  10
ENDBRANCH   4   6
TORSDOF 2
ENDMDL
MODEL      147
REMARK 921   NORMALIZED FREE ENERGY PREDICTED BY IDOCK:   -2.02 KCAL/MOL
REMARK 922        TOTAL FREE ENERGY PREDICTED BY IDOCK:   -2.41 KCAL/MOL
REMARK 923 INTER-LIGAND FREE ENERGY PREDICTED BY IDOCK:   -2.29 KCAL/MOL
REMARK 924 INTRA-LIGAND FREE ENERGY PREDICTED BY IDOCK:   -0.13 KCAL/MOL
REMARK 927      BINDING AFFINITY PREDICTED BY RF-SCORE:    0.00 PKD
ROOT
HETATM    1  C   UNK A   0     -11.093  14.390  65.172  1.00  0.00    -0.365 C  
HETATM    2  C   UNK A   0     -10.455  15.537  65.906  1.00  0.00    -0.342 C  
HETATM    3  O   UNK A   0     -10.702  16.708  65.652  1.00  0.00    -0.317 OA 
ATOM      4  N   CYS A   1      -9.478  15.162  66.806  1.00  0.00    -0.229 N  
ATOM      5  H   CYS A   1      -9.194  14.184  66.871  1.00  0.00     0.000 HD 
ENDROOT
BRANCH   4   6
ATOM      6  CA  CYS A   1      -8.843  16.176  67.676  1.00  0.00    -0.186 C  
ATOM      7  O   CYS A   1      -6.847  15.136  66.772  1.00  0.00     0.000 OA 
ATOM      8  C   CYS A   1      -7.313  16.091  67.609  1.00  0.00    -0.151 C  
ATOM      9  OXT CYS A   1      -6.564  16.787  68.280  1.00  0.00    -0.145 OA 
BRANCH   6  10
ATOM     10  CB  CYS A   1      -9.246  16.012  69.148  1.00  0.00    -0.247 C  
ATOM     11  SG  CYS A   1     -11.010  16.405  69.413  1.00  0.00    -0.304 SA 
ATOM     12  HG  CYS A   1     -11.374  16.257  70.746  1.00  0.00     0.000 H  
ENDBRANCH   6  10
ENDBRANCH   4   6
TORSDOF 2
ENDMDL
MODEL      148
REMARK 921   NORMALIZED FREE ENERGY PREDICTED BY IDOCK:   -1.96 KCAL/MOL
REMARK 922        TOTAL FREE ENERGY PREDICTED BY IDOCK:   -2.35 KCAL/MOL
REMARK 923 INTER-LIGAND FREE ENERGY PREDICTED BY IDOCK:   -2.15 KCAL/MOL
REMARK 924 INTRA-LIGAND FREE ENERGY PREDICTED BY IDOCK:   -0.20 KCAL/MOL
REMARK 927      BINDING AFFINITY PREDICTED BY RF-SCORE:    0.00 PKD
ROOT
HETATM    1  C   UNK A   0      -8.214   3.324  66.794  1.00  0.00    -0.092 C  
HETATM    2  C   UNK A   0      -9.060   3.505  68.024  1.00  0.00    -0.156 C  
HETATM    3  O   UNK A   0      -9.631   2.576  68.580  1.00  0.00    -0.180 OA 
ATOM      4  N   CYS A   1      -9.238   4.820  68.402  1.00  0.00    -0.118 N  
ATOM      5  H   CYS A   1      -8.874   5.572  67.817  1.00  0.00     0.000 HD 
ENDROOT
BRANCH   4   6
ATOM      6  CA  CYS A   1      -9.957   5.141  69.655  1.00  0.00    -0.243 C  
ATOM      7  O   CYS A   1     -11.259   6.479  68.107  1.00  0.00    -0.275 OA 
ATOM      8  C   CYS A   1     -11.112   6.118  69.403  1.00  0.00    -0.409 C  
ATOM      9  OXT CYS A   1     -11.820   6.576  70.289  1.00  0.00    -0.413 OA 
BRANCH   6  10
ATOM     10  CB  CYS A   1      -9.038   5.780  70.704  1.00  0.00    -0.151 C  
ATOM     11  SG  CYS A   1      -7.818   6.904  69.940  1.00  0.00    -0.117 SA 
ATOM     12  HG  CYS A   1      -6.986   7.482  70.891  1.00  0.00     0.000 H  
ENDBRANCH   6  10
ENDBRANCH   4   6
TORSDOF 2
ENDMDL
MODEL      149
REMARK 921   NORMALIZED FREE ENERGY PREDICTED BY IDOCK:   -1.91 KCAL/MOL
REMARK 922        TOTAL FREE ENERGY PREDICTED BY IDOCK:   -2.30 KCAL/MOL
REMARK 923 INTER-LIGAND FREE ENERGY PREDICTED BY IDOCK:   -2.10 KCAL/MOL
REMARK 924 INTRA-LIGAND FREE ENERGY PREDICTED BY IDOCK:   -0.20 KCAL/MOL
REMARK 927      BINDING AFFINITY PREDICTED BY RF-SCORE:    0.00 PKD
ROOT
HETATM    1  C   UNK A   0      -9.485  11.435  63.048  1.00  0.00    -0.380 C  
HETATM    2  C   UNK A   0      -9.412  10.634  64.318  1.00  0.00    -0.274 C  
HETATM    3  O   UNK A   0      -9.198   9.429  64.331  1.00  0.00    -0.202 OA 
ATOM      4  N   CYS A   1      -9.726  11.346  65.457  1.00  0.00    -0.223 N  
ATOM      5  H   CYS A   1     -10.053  12.310  65.382  1.00  0.00     0.000 HD 
ENDROOT
BRANCH   4   6
ATOM      6  CA  CYS A   1      -9.589  10.714  66.789  1.00  0.00    -0.169 C  
ATOM      7  O   CYS A   1     -11.512  12.126  67.225  1.00  0.00    -0.309 OA 
ATOM      8  C   CYS A   1     -10.657  11.226  67.763  1.00  0.00    -0.201 C  
ATOM      9  OXT CYS A   1     -10.719  10.894  68.939  1.00  0.00    -0.189 OA 
BRANCH   6  10
ATOM     10  CB  CYS A   1      -8.220  10.990  67.424  1.00  0.00    -0.122 C  
ATOM     11  SG  CYS A   1      -7.679  12.711  67.144  1.00  0.00    -0.031 SA 
ATOM     12  HG  CYS A   1      -6.438  12.961  67.719  1.00  0.00     0.000 H  
ENDBRANCH   6  10
ENDBRANCH   4   6
TORSDOF 2
ENDMDL
MODEL      150
REMARK 921   NORMALIZED FREE ENERGY PREDICTED BY IDOCK:   -1.91 KCAL/MOL
REMARK 922        TOTAL FREE ENERGY PREDICTED BY IDOCK:   -2.30 KCAL/MOL
REMARK 923 INTER-LIGAND FREE ENERGY PREDICTED BY IDOCK:   -3.24 KCAL/MOL
REMARK 924 INTRA-LIGAND FREE ENERGY PREDICTED BY IDOCK:    0.95 KCAL/MOL
REMARK 927      BINDING AFFINITY PREDICTED BY RF-SCORE:    0.00 PKD
ROOT
HETATM    1  C   UNK A   0     -11.995  15.631  71.208  1.00  0.00    -0.467 C  
HETATM    2  C   UNK A   0     -11.671  15.250  69.790  1.00  0.00    -0.323 C  
HETATM    3  O   UNK A   0     -11.952  15.958  68.831  1.00  0.00    -0.370 OA 
ATOM      4  N   CYS A   1     -11.141  13.984  69.649  1.00  0.00    -0.429 N  
ATOM      5  H   CYS A   1     -11.071  13.368  70.459  1.00  0.00     0.000 HD 
ENDROOT
BRANCH   4   6
ATOM      6  CA  CYS A   1     -10.673  13.518  68.324  1.00  0.00    -0.258 C  
ATOM      7  O   CYS A   1      -8.728  14.804  68.992  1.00  0.00    -0.183 OA 
ATOM      8  C   CYS A   1      -9.267  14.044  68.010  1.00  0.00    -0.201 C  
ATOM      9  OXT CYS A   1      -8.686  13.842  66.953  1.00  0.00    -0.219 OA 
BRANCH   6  10
ATOM     10  CB  CYS A   1     -11.597  13.978  67.188  1.00  0.00    -0.372 C  
ATOM     11  SG  CYS A   1     -11.876  12.651  65.964  1.00  0.00    -0.422 SA 
ATOM     12  HG  CYS A   1     -12.713  13.067  64.935  1.00  0.00     0.000 H  
ENDBRANCH   6  10
ENDBRANCH   4   6
TORSDOF 2
ENDMDL
MODEL      151
REMARK 921   NORMALIZED FREE ENERGY PREDICTED BY IDOCK:   -1.91 KCAL/MOL
REMARK 922        TOTAL FREE ENERGY PREDICTED BY IDOCK:   -2.29 KCAL/MOL
REMARK 923 INTER-LIGAND FREE ENERGY PREDICTED BY IDOCK:   -2.14 KCAL/MOL
REMARK 924 INTRA-LIGAND FREE ENERGY PREDICTED BY IDOCK:   -0.15 KCAL/MOL
REMARK 927      BINDING AFFINITY PREDICTED BY RF-SCORE:    0.00 PKD
ROOT
HETATM    1  C   UNK A   0     -11.345   5.183  72.917  1.00  0.00    -0.354 C  
HETATM    2  C   UNK A   0     -10.971   6.410  72.132  1.00  0.00    -0.251 C  
HETATM    3  O   UNK A   0     -11.410   7.522  72.388  1.00  0.00    -0.275 OA 
ATOM      4  N   CYS A   1     -10.187   6.157  71.024  1.00  0.00    -0.191 N  
ATOM      5  H   CYS A   1      -9.975   5.195  70.758  1.00  0.00     0.000 HD 
ENDROOT
BRANCH   4   6
ATOM      6  CA  CYS A   1      -9.653   7.281  70.221  1.00  0.00    -0.165 C  
ATOM      7  O   CYS A   1     -11.334   6.463  68.676  1.00  0.00    -0.313 OA 
ATOM      8  C   CYS A   1     -10.364   7.388  68.866  1.00  0.00    -0.206 C  
ATOM      9  OXT CYS A   1     -10.065   8.201  68.004  1.00  0.00    -0.181 OA 
BRANCH   6  10
ATOM     10  CB  CYS A   1      -8.153   7.131  69.939  1.00  0.00    -0.125 C  
ATOM     11  SG  CYS A   1      -7.365   5.944  71.082  1.00  0.00    -0.085 SA 
ATOM     12  HG  CYS A   1      -6.005   5.810  70.827  1.00  0.00     0.000 H  
ENDBRANCH   6  10
ENDBRANCH   4   6
TORSDOF 2
ENDMDL
MODEL      152
REMARK 921   NORMALIZED FREE ENERGY PREDICTED BY IDOCK:   -1.90 KCAL/MOL
REMARK 922        TOTAL FREE ENERGY PREDICTED BY IDOCK:   -2.29 KCAL/MOL
REMARK 923 INTER-LIGAND FREE ENERGY PREDICTED BY IDOCK:   -2.09 KCAL/MOL
REMARK 924 INTRA-LIGAND FREE ENERGY PREDICTED BY IDOCK:   -0.20 KCAL/MOL
REMARK 927      BINDING AFFINITY PREDICTED BY RF-SCORE:    0.00 PKD
ROOT
HETATM    1  C   UNK A   0     -11.709   7.893  71.458  1.00  0.00    -0.317 C  
HETATM    2  C   UNK A   0     -11.289   7.096  70.255  1.00  0.00    -0.269 C  
HETATM    3  O   UNK A   0     -11.575   5.915  70.107  1.00  0.00    -0.202 OA 
ATOM      4  N   CYS A   1     -10.453   7.772  69.390  1.00  0.00    -0.220 N  
ATOM      5  H   CYS A   1     -10.113   8.703  69.633  1.00  0.00     0.000 HD 
ENDROOT
BRANCH   4   6
ATOM      6  CA  CYS A   1     -10.049   7.149  68.109  1.00  0.00    -0.169 C  
ATOM      7  O   CYS A   1      -7.854   7.499  69.080  1.00  0.00    -0.115 OA 
ATOM      8  C   CYS A   1      -8.524   7.033  68.000  1.00  0.00    -0.125 C  
ATOM      9  OXT CYS A   1      -7.944   6.602  67.013  1.00  0.00    -0.106 OA 
BRANCH   6  10
ATOM     10  CB  CYS A   1     -10.535   7.950  66.895  1.00  0.00    -0.318 C  
ATOM     11  SG  CYS A   1     -10.374   9.750  67.163  1.00  0.00    -0.246 SA 
ATOM     12  HG  CYS A   1     -10.815  10.476  66.063  1.00  0.00     0.000 H  
ENDBRANCH   6  10
ENDBRANCH   4   6
TORSDOF 2
ENDMDL
MODEL      153
REMARK 921   NORMALIZED FREE ENERGY PREDICTED BY IDOCK:   -1.89 KCAL/MOL
REMARK 922        TOTAL FREE ENERGY PREDICTED BY IDOCK:   -2.27 KCAL/MOL
REMARK 923 INTER-LIGAND FREE ENERGY PREDICTED BY IDOCK:   -2.17 KCAL/MOL
REMARK 924 INTRA-LIGAND FREE ENERGY PREDICTED BY IDOCK:   -0.10 KCAL/MOL
REMARK 927      BINDING AFFINITY PREDICTED BY RF-SCORE:    0.00 PKD
ROOT
HETATM    1  C   UNK A   0     -11.119   6.322  68.681  1.00  0.00    -0.409 C  
HETATM    2  C   UNK A   0     -11.019   6.054  70.157  1.00  0.00    -0.359 C  
HETATM    3  O   UNK A   0     -11.657   6.682  70.990  1.00  0.00    -0.309 OA 
ATOM      4  N   CYS A   1     -10.059   5.124  70.501  1.00  0.00    -0.238 N  
ATOM      5  H   CYS A   1      -9.440   4.742  69.786  1.00  0.00     0.000 HD 
ENDROOT
BRANCH   4   6
ATOM      6  CA  CYS A   1      -9.925   4.682  71.907  1.00  0.00    -0.189 C  
ATOM      7  O   CYS A   1      -8.184   6.370  71.864  1.00  0.00    -0.109 OA 
ATOM      8  C   CYS A   1      -8.809   5.446  72.631  1.00  0.00    -0.123 C  
ATOM      9  OXT CYS A   1      -8.470   5.222  73.784  1.00  0.00    -0.111 OA 
BRANCH   6  10
ATOM     10  CB  CYS A   1      -9.601   3.186  72.017  1.00  0.00    -0.146 C  
ATOM     11  SG  CYS A   1     -10.687   2.346  73.221  1.00  0.00    -0.178 SA 
ATOM     12  HG  CYS A   1     -10.393   0.991  73.321  1.00  0.00     0.000 H  
ENDBRANCH   6  10
ENDBRANCH   4   6
TORSDOF 2
ENDMDL
MODEL      154
REMARK 921   NORMALIZED FREE ENERGY PREDICTED BY IDOCK:   -1.88 KCAL/MOL
REMARK 922        TOTAL FREE ENERGY PREDICTED BY IDOCK:   -2.27 KCAL/MOL
REMARK 923 INTER-LIGAND FREE ENERGY PREDICTED BY IDOCK:   -2.12 KCAL/MOL
REMARK 924 INTRA-LIGAND FREE ENERGY PREDICTED BY IDOCK:   -0.15 KCAL/MOL
REMARK 927      BINDING AFFINITY PREDICTED BY RF-SCORE:    0.00 PKD
ROOT
HETATM    1  C   UNK A   0      -8.610   8.523  66.332  1.00  0.00    -0.136 C  
HETATM    2  C   UNK A   0      -9.426   9.459  67.180  1.00  0.00    -0.145 C  
HETATM    3  O   UNK A   0     -10.111   9.078  68.118  1.00  0.00    -0.175 OA 
ATOM      4  N   CYS A   1      -9.433  10.766  66.736  1.00  0.00    -0.171 N  
ATOM      5  H   CYS A   1      -8.975  11.009  65.857  1.00  0.00     0.000 HD 
ENDROOT
BRANCH   4   6
ATOM      6  CA  CYS A   1     -10.105  11.816  67.533  1.00  0.00    -0.192 C  
ATOM      7  O   CYS A   1     -11.619  11.738  65.640  1.00  0.00    -0.274 OA 
ATOM      8  C   CYS A   1     -11.362  12.338  66.826  1.00  0.00    -0.339 C  
ATOM      9  OXT CYS A   1     -12.058  13.245  67.259  1.00  0.00    -0.357 OA 
BRANCH   6  10
ATOM     10  CB  CYS A   1      -9.192  13.022  67.791  1.00  0.00    -0.200 C  
ATOM     11  SG  CYS A   1      -7.503  12.505  68.253  1.00  0.00    -0.130 SA 
ATOM     12  HG  CYS A   1      -6.676  13.598  68.487  1.00  0.00     0.000 H  
ENDBRANCH   6  10
ENDBRANCH   4   6
TORSDOF 2
ENDMDL
MODEL      155
REMARK 921   NORMALIZED FREE ENERGY PREDICTED BY IDOCK:   -1.88 KCAL/MOL
REMARK 922        TOTAL FREE ENERGY PREDICTED BY IDOCK:   -2.26 KCAL/MOL
REMARK 923 INTER-LIGAND FREE ENERGY PREDICTED BY IDOCK:   -2.10 KCAL/MOL
REMARK 924 INTRA-LIGAND FREE ENERGY PREDICTED BY IDOCK:   -0.16 KCAL/MOL
REMARK 927      BINDING AFFINITY PREDICTED BY RF-SCORE:    0.00 PKD
ROOT
HETATM    1  C   UNK A   0     -11.008  11.914  67.723  1.00  0.00    -0.278 C  
HETATM    2  C   UNK A   0     -10.211  10.655  67.926  1.00  0.00    -0.177 C  
HETATM    3  O   UNK A   0      -9.416  10.514  68.845  1.00  0.00    -0.176 OA 
ATOM      4  N   CYS A   1     -10.360   9.721  66.921  1.00  0.00    -0.240 N  
ATOM      5  H   CYS A   1     -10.912   9.946  66.093  1.00  0.00     0.000 HD 
ENDROOT
BRANCH   4   6
ATOM      6  CA  CYS A   1      -9.720   8.392  67.043  1.00  0.00    -0.206 C  
ATOM      7  O   CYS A   1      -8.653   9.150  65.002  1.00  0.00    -0.161 OA 
ATOM      8  C   CYS A   1      -8.749   8.129  65.886  1.00  0.00    -0.156 C  
ATOM      9  OXT CYS A   1      -8.140   7.080  65.735  1.00  0.00    -0.109 OA 
BRANCH   6  10
ATOM     10  CB  CYS A   1     -10.747   7.251  67.046  1.00  0.00    -0.336 C  
ATOM     11  SG  CYS A   1     -10.456   6.083  68.419  1.00  0.00    -0.262 SA 
ATOM     12  HG  CYS A   1     -11.387   5.050  68.421  1.00  0.00     0.000 H  
ENDBRANCH   6  10
ENDBRANCH   4   6
TORSDOF 2
ENDMDL
MODEL      156
REMARK 921   NORMALIZED FREE ENERGY PREDICTED BY IDOCK:   -1.87 KCAL/MOL
REMARK 922        TOTAL FREE ENERGY PREDICTED BY IDOCK:   -2.26 KCAL/MOL
REMARK 923 INTER-LIGAND FREE ENERGY PREDICTED BY IDOCK:   -2.06 KCAL/MOL
REMARK 924 INTRA-LIGAND FREE ENERGY PREDICTED BY IDOCK:   -0.19 KCAL/MOL
REMARK 927      BINDING AFFINITY PREDICTED BY RF-SCORE:    0.00 PKD
ROOT
HETATM    1  C   UNK A   0      -6.231  10.636  70.614  1.00  0.00    -0.045 C  
HETATM    2  C   UNK A   0      -7.155  10.108  69.552  1.00  0.00    -0.101 C  
HETATM    3  O   UNK A   0      -6.752   9.607  68.511  1.00  0.00    -0.052 OA 
ATOM      4  N   CYS A   1      -8.493  10.347  69.793  1.00  0.00    -0.375 N  
ATOM      5  H   CYS A   1      -8.773  10.909  70.597  1.00  0.00     0.000 HD 
ENDROOT
BRANCH   4   6
ATOM      6  CA  CYS A   1      -9.521   9.789  68.887  1.00  0.00    -0.161 C  
ATOM      7  O   CYS A   1      -9.881  12.152  68.473  1.00  0.00    -0.209 OA 
ATOM      8  C   CYS A   1     -10.292  10.900  68.163  1.00  0.00    -0.178 C  
ATOM      9  OXT CYS A   1     -11.227  10.694  67.403  1.00  0.00    -0.317 OA 
BRANCH   6  10
ATOM     10  CB  CYS A   1     -10.550   8.931  69.635  1.00  0.00    -0.226 C  
ATOM     11  SG  CYS A   1     -11.415   9.887  70.929  1.00  0.00    -0.397 SA 
ATOM     12  HG  CYS A   1     -12.347   9.109  71.606  1.00  0.00     0.000 H  
ENDBRANCH   6  10
ENDBRANCH   4   6
TORSDOF 2
ENDMDL
MODEL      157
REMARK 921   NORMALIZED FREE ENERGY PREDICTED BY IDOCK:   -1.86 KCAL/MOL
REMARK 922        TOTAL FREE ENERGY PREDICTED BY IDOCK:   -2.24 KCAL/MOL
REMARK 923 INTER-LIGAND FREE ENERGY PREDICTED BY IDOCK:   -2.08 KCAL/MOL
REMARK 924 INTRA-LIGAND FREE ENERGY PREDICTED BY IDOCK:   -0.15 KCAL/MOL
REMARK 927      BINDING AFFINITY PREDICTED BY RF-SCORE:    0.00 PKD
ROOT
HETATM    1  C   UNK A   0     -10.895   8.324  71.390  1.00  0.00    -0.293 C  
HETATM    2  C   UNK A   0     -10.074   8.691  70.185  1.00  0.00    -0.185 C  
HETATM    3  O   UNK A   0      -9.694   7.867  69.364  1.00  0.00    -0.167 OA 
ATOM      4  N   CYS A   1      -9.683  10.014  70.146  1.00  0.00    -0.394 N  
ATOM      5  H   CYS A   1      -9.889  10.629  70.933  1.00  0.00     0.000 HD 
ENDROOT
BRANCH   4   6
ATOM      6  CA  CYS A   1      -8.964  10.540  68.965  1.00  0.00    -0.176 C  
ATOM      7  O   CYS A   1      -7.140  10.547  70.564  1.00  0.00    -0.278 OA 
ATOM      8  C   CYS A   1      -7.494  10.835  69.290  1.00  0.00    -0.135 C  
ATOM      9  OXT CYS A   1      -6.707  11.327  68.493  1.00  0.00    -0.058 OA 
BRANCH   6  10
ATOM     10  CB  CYS A   1      -9.585  11.841  68.439  1.00  0.00    -0.191 C  
ATOM     11  SG  CYS A   1      -9.783  11.810  66.624  1.00  0.00    -0.206 SA 
ATOM     12  HG  CYS A   1     -10.346  12.988  66.148  1.00  0.00     0.000 H  
ENDBRANCH   6  10
ENDBRANCH   4   6
TORSDOF 2
ENDMDL
MODEL      158
REMARK 921   NORMALIZED FREE ENERGY PREDICTED BY IDOCK:   -1.84 KCAL/MOL
REMARK 922        TOTAL FREE ENERGY PREDICTED BY IDOCK:   -2.22 KCAL/MOL
REMARK 923 INTER-LIGAND FREE ENERGY PREDICTED BY IDOCK:   -2.61 KCAL/MOL
REMARK 924 INTRA-LIGAND FREE ENERGY PREDICTED BY IDOCK:    0.40 KCAL/MOL
REMARK 927      BINDING AFFINITY PREDICTED BY RF-SCORE:    0.00 PKD
ROOT
HETATM    1  C   UNK A   0      -9.604  10.863  62.405  1.00  0.00    -0.150 C  
HETATM    2  C   UNK A   0      -9.638  10.899  63.908  1.00  0.00    -0.284 C  
HETATM    3  O   UNK A   0      -9.495   9.901  64.600  1.00  0.00    -0.276 OA 
ATOM      4  N   CYS A   1      -9.964  12.131  64.439  1.00  0.00    -0.442 N  
ATOM      5  H   CYS A   1     -10.231  12.898  63.820  1.00  0.00     0.000 HD 
ENDROOT
BRANCH   4   6
ATOM      6  CA  CYS A   1      -9.928  12.341  65.903  1.00  0.00    -0.254 C  
ATOM      7  O   CYS A   1     -10.197  14.643  65.187  1.00  0.00    -0.383 OA 
ATOM      8  C   CYS A   1     -10.060  13.827  66.259  1.00  0.00    -0.300 C  
ATOM      9  OXT CYS A   1     -10.004  14.260  67.401  1.00  0.00    -0.238 OA 
BRANCH   6  10
ATOM     10  CB  CYS A   1      -8.623  11.835  66.530  1.00  0.00    -0.148 C  
ATOM     11  SG  CYS A   1      -8.936  10.590  67.830  1.00  0.00    -0.138 SA 
ATOM     12  HG  CYS A   1      -7.753  10.132  68.398  1.00  0.00     0.000 H  
ENDBRANCH   6  10
ENDBRANCH   4   6
TORSDOF 2
ENDMDL
MODEL      159
REMARK 921   NORMALIZED FREE ENERGY PREDICTED BY IDOCK:   -1.83 KCAL/MOL
REMARK 922        TOTAL FREE ENERGY PREDICTED BY IDOCK:   -2.21 KCAL/MOL
REMARK 923 INTER-LIGAND FREE ENERGY PREDICTED BY IDOCK:   -3.14 KCAL/MOL
REMARK 924 INTRA-LIGAND FREE ENERGY PREDICTED BY IDOCK:    0.93 KCAL/MOL
REMARK 927      BINDING AFFINITY PREDICTED BY RF-SCORE:    0.00 PKD
ROOT
HETATM    1  C   UNK A   0     -12.915  12.103  71.475  1.00  0.00    -0.398 C  
HETATM    2  C   UNK A   0     -12.219  10.947  70.811  1.00  0.00    -0.383 C  
HETATM    3  O   UNK A   0     -12.528   9.781  71.013  1.00  0.00    -0.312 OA 
ATOM      4  N   CYS A   1     -11.125  11.306  70.049  1.00  0.00    -0.477 N  
ATOM      5  H   CYS A   1     -10.809  12.275  70.036  1.00  0.00     0.000 HD 
ENDROOT
BRANCH   4   6
ATOM      6  CA  CYS A   1     -10.411  10.285  69.250  1.00  0.00    -0.228 C  
ATOM      7  O   CYS A   1     -12.057  10.980  67.610  1.00  0.00    -0.447 OA 
ATOM      8  C   CYS A   1     -11.017  10.147  67.848  1.00  0.00    -0.277 C  
ATOM      9  OXT CYS A   1     -10.636   9.331  67.020  1.00  0.00    -0.246 OA 
BRANCH   6  10
ATOM     10  CB  CYS A   1     -10.456   8.898  69.906  1.00  0.00    -0.214 C  
ATOM     11  SG  CYS A   1      -8.825   8.409  70.565  1.00  0.00    -0.156 SA 
ATOM     12  HG  CYS A   1      -8.866   7.153  71.159  1.00  0.00     0.000 H  
ENDBRANCH   6  10
ENDBRANCH   4   6
TORSDOF 2
ENDMDL
MODEL      160
REMARK 921   NORMALIZED FREE ENERGY PREDICTED BY IDOCK:   -1.81 KCAL/MOL
REMARK 922        TOTAL FREE ENERGY PREDICTED BY IDOCK:   -2.19 KCAL/MOL
REMARK 923 INTER-LIGAND FREE ENERGY PREDICTED BY IDOCK:   -3.15 KCAL/MOL
REMARK 924 INTRA-LIGAND FREE ENERGY PREDICTED BY IDOCK:    0.96 KCAL/MOL
REMARK 927      BINDING AFFINITY PREDICTED BY RF-SCORE:    0.00 PKD
ROOT
HETATM    1  C   UNK A   0      -7.698  13.039  67.271  1.00  0.00    -0.112 C  
HETATM    2  C   UNK A   0      -9.086  13.594  67.115  1.00  0.00    -0.239 C  
HETATM    3  O   UNK A   0      -9.334  14.791  67.180  1.00  0.00    -0.208 OA 
ATOM      4  N   CYS A   1     -10.074  12.635  67.015  1.00  0.00    -0.223 N  
ATOM      5  H   CYS A   1      -9.839  11.648  67.124  1.00  0.00     0.000 HD 
ENDROOT
BRANCH   4   6
ATOM      6  CA  CYS A   1     -11.473  13.036  66.748  1.00  0.00    -0.345 C  
ATOM      7  O   CYS A   1     -10.546  13.365  64.531  1.00  0.00    -0.392 OA 
ATOM      8  C   CYS A   1     -11.666  13.455  65.285  1.00  0.00    -0.323 C  
ATOM      9  OXT CYS A   1     -12.720  13.879  64.833  1.00  0.00    -0.648 OA 
BRANCH   6  10
ATOM     10  CB  CYS A   1     -11.916  14.215  67.624  1.00  0.00    -0.370 C  
ATOM     11  SG  CYS A   1     -12.058  13.737  69.381  1.00  0.00    -0.290 SA 
ATOM     12  HG  CYS A   1     -12.459  14.806  70.174  1.00  0.00     0.000 H  
ENDBRANCH   6  10
ENDBRANCH   4   6
TORSDOF 2
ENDMDL
MODEL      161
REMARK 921   NORMALIZED FREE ENERGY PREDICTED BY IDOCK:   -1.81 KCAL/MOL
REMARK 922        TOTAL FREE ENERGY PREDICTED BY IDOCK:   -2.18 KCAL/MOL
REMARK 923 INTER-LIGAND FREE ENERGY PREDICTED BY IDOCK:   -3.16 KCAL/MOL
REMARK 924 INTRA-LIGAND FREE ENERGY PREDICTED BY IDOCK:    0.98 KCAL/MOL
REMARK 927      BINDING AFFINITY PREDICTED BY RF-SCORE:    0.00 PKD
ROOT
HETATM    1  C   UNK A   0     -11.137  11.271  69.685  1.00  0.00    -0.273 C  
HETATM    2  C   UNK A   0     -11.301   9.896  70.272  1.00  0.00    -0.291 C  
HETATM    3  O   UNK A   0     -11.112   8.873  69.628  1.00  0.00    -0.175 OA 
ATOM      4  N   CYS A   1     -11.798   9.884  71.559  1.00  0.00    -0.385 N  
ATOM      5  H   CYS A   1     -12.090  10.756  72.001  1.00  0.00     0.000 HD 
ENDROOT
BRANCH   4   6
ATOM      6  CA  CYS A   1     -11.906   8.608  72.301  1.00  0.00    -0.366 C  
ATOM      7  O   CYS A   1      -9.500   8.901  72.384  1.00  0.00    -0.315 OA 
ATOM      8  C   CYS A   1     -10.528   8.096  72.739  1.00  0.00    -0.315 C  
ATOM      9  OXT CYS A   1     -10.351   7.034  73.318  1.00  0.00    -0.243 OA 
BRANCH   6  10
ATOM     10  CB  CYS A   1     -12.559   7.502  71.461  1.00  0.00    -0.355 C  
ATOM     11  SG  CYS A   1     -14.380   7.541  71.590  1.00  0.00    -0.443 SA 
ATOM     12  HG  CYS A   1     -14.972   6.539  70.829  1.00  0.00     0.000 H  
ENDBRANCH   6  10
ENDBRANCH   4   6
TORSDOF 2
ENDMDL
MODEL      162
REMARK 921   NORMALIZED FREE ENERGY PREDICTED BY IDOCK:   -1.79 KCAL/MOL
REMARK 922        TOTAL FREE ENERGY PREDICTED BY IDOCK:   -2.16 KCAL/MOL
REMARK 923 INTER-LIGAND FREE ENERGY PREDICTED BY IDOCK:   -1.98 KCAL/MOL
REMARK 924 INTRA-LIGAND FREE ENERGY PREDICTED BY IDOCK:   -0.18 KCAL/MOL
REMARK 927      BINDING AFFINITY PREDICTED BY RF-SCORE:    0.00 PKD
ROOT
HETATM    1  C   UNK A   0      -7.162   5.646  68.503  1.00  0.00    -0.075 C  
HETATM    2  C   UNK A   0      -8.567   5.271  68.886  1.00  0.00    -0.091 C  
HETATM    3  O   UNK A   0      -9.220   4.434  68.278  1.00  0.00    -0.121 OA 
ATOM      4  N   CYS A   1      -9.102   6.036  69.903  1.00  0.00    -0.140 N  
ATOM      5  H   CYS A   1      -8.578   6.829  70.274  1.00  0.00     0.000 HD 
ENDROOT
BRANCH   4   6
ATOM      6  CA  CYS A   1     -10.435   5.708  70.456  1.00  0.00    -0.277 C  
ATOM      7  O   CYS A   1     -10.731   8.091  70.119  1.00  0.00    -0.238 OA 
ATOM      8  C   CYS A   1     -11.321   6.955  70.559  1.00  0.00    -0.327 C  
ATOM      9  OXT CYS A   1     -12.447   6.951  71.036  1.00  0.00    -0.382 OA 
BRANCH   6  10
ATOM     10  CB  CYS A   1     -10.345   5.093  71.859  1.00  0.00    -0.212 C  
ATOM     11  SG  CYS A   1      -8.790   5.549  72.700  1.00  0.00    -0.122 SA 
ATOM     12  HG  CYS A   1      -8.709   4.991  73.970  1.00  0.00     0.000 H  
ENDBRANCH   6  10
ENDBRANCH   4   6
TORSDOF 2
ENDMDL
MODEL      163
REMARK 921   NORMALIZED FREE ENERGY PREDICTED BY IDOCK:   -1.79 KCAL/MOL
REMARK 922        TOTAL FREE ENERGY PREDICTED BY IDOCK:   -2.16 KCAL/MOL
REMARK 923 INTER-LIGAND FREE ENERGY PREDICTED BY IDOCK:   -2.21 KCAL/MOL
REMARK 924 INTRA-LIGAND FREE ENERGY PREDICTED BY IDOCK:    0.06 KCAL/MOL
REMARK 927      BINDING AFFINITY PREDICTED BY RF-SCORE:    0.00 PKD
ROOT
HETATM    1  C   UNK A   0     -11.256  14.932  70.480  1.00  0.00    -0.243 C  
HETATM    2  C   UNK A   0     -12.162  13.775  70.163  1.00  0.00    -0.356 C  
HETATM    3  O   UNK A   0     -13.379  13.882  70.105  1.00  0.00     0.279 OA 
ATOM      4  N   CYS A   1     -11.516  12.559  70.063  1.00  0.00    -0.526 N  
ATOM      5  H   CYS A   1     -10.521  12.492  70.276  1.00  0.00     0.000 HD 
ENDROOT
BRANCH   4   6
ATOM      6  CA  CYS A   1     -12.267  11.353  69.648  1.00  0.00    -0.249 C  
ATOM      7  O   CYS A   1     -12.698  11.277  72.034  1.00  0.00    -0.269 OA 
ATOM      8  C   CYS A   1     -12.917  10.657  70.851  1.00  0.00    -0.340 C  
ATOM      9  OXT CYS A   1     -13.545   9.611  70.772  1.00  0.00    -0.187 OA 
BRANCH   6  10
ATOM     10  CB  CYS A   1     -11.368  10.321  68.954  1.00  0.00    -0.173 C  
ATOM     11  SG  CYS A   1      -9.618  10.843  68.947  1.00  0.00    -0.149 SA 
ATOM     12  HG  CYS A   1      -8.805   9.908  68.318  1.00  0.00     0.000 H  
ENDBRANCH   6  10
ENDBRANCH   4   6
TORSDOF 2
ENDMDL
MODEL      164
REMARK 921   NORMALIZED FREE ENERGY PREDICTED BY IDOCK:   -1.78 KCAL/MOL
REMARK 922        TOTAL FREE ENERGY PREDICTED BY IDOCK:   -2.15 KCAL/MOL
REMARK 923 INTER-LIGAND FREE ENERGY PREDICTED BY IDOCK:   -1.96 KCAL/MOL
REMARK 924 INTRA-LIGAND FREE ENERGY PREDICTED BY IDOCK:   -0.18 KCAL/MOL
REMARK 927      BINDING AFFINITY PREDICTED BY RF-SCORE:    0.00 PKD
ROOT
HETATM    1  C   UNK A   0      -8.615   6.682  71.179  1.00  0.00    -0.130 C  
HETATM    2  C   UNK A   0      -9.517   5.871  70.290  1.00  0.00    -0.162 C  
HETATM    3  O   UNK A   0     -10.202   4.946  70.705  1.00  0.00    -0.232 OA 
ATOM      4  N   CYS A   1      -9.416   6.178  68.948  1.00  0.00    -0.123 N  
ATOM      5  H   CYS A   1      -8.715   6.848  68.630  1.00  0.00     0.000 HD 
ENDROOT
BRANCH   4   6
ATOM      6  CA  CYS A   1     -10.322   5.536  67.970  1.00  0.00    -0.177 C  
ATOM      7  O   CYS A   1      -8.223   4.551  67.258  1.00  0.00    -0.101 OA 
ATOM      8  C   CYS A   1      -9.554   4.612  67.017  1.00  0.00    -0.180 C  
ATOM      9  OXT CYS A   1     -10.073   4.012  66.087  1.00  0.00    -0.172 OA 
BRANCH   6  10
ATOM     10  CB  CYS A   1     -11.069   6.563  67.110  1.00  0.00    -0.360 C  
ATOM     11  SG  CYS A   1     -10.176   8.154  67.027  1.00  0.00    -0.325 SA 
ATOM     12  HG  CYS A   1     -10.853   9.084  66.247  1.00  0.00     0.000 H  
ENDBRANCH   6  10
ENDBRANCH   4   6
TORSDOF 2
ENDMDL
MODEL      165
REMARK 921   NORMALIZED FREE ENERGY PREDICTED BY IDOCK:   -1.77 KCAL/MOL
REMARK 922        TOTAL FREE ENERGY PREDICTED BY IDOCK:   -2.14 KCAL/MOL
REMARK 923 INTER-LIGAND FREE ENERGY PREDICTED BY IDOCK:   -1.95 KCAL/MOL
REMARK 924 INTRA-LIGAND FREE ENERGY PREDICTED BY IDOCK:   -0.19 KCAL/MOL
REMARK 927      BINDING AFFINITY PREDICTED BY RF-SCORE:    0.00 PKD
ROOT
HETATM    1  C   UNK A   0      -6.911   5.921  67.108  1.00  0.00    -0.069 C  
HETATM    2  C   UNK A   0      -7.777   5.688  68.314  1.00  0.00    -0.089 C  
HETATM    3  O   UNK A   0      -7.788   4.630  68.929  1.00  0.00    -0.071 OA 
ATOM      4  N   CYS A   1      -8.646   6.722  68.598  1.00  0.00    -0.123 N  
ATOM      5  H   CYS A   1      -8.713   7.519  67.965  1.00  0.00     0.000 HD 
ENDROOT
BRANCH   4   6
ATOM      6  CA  CYS A   1      -9.480   6.676  69.820  1.00  0.00    -0.147 C  
ATOM      7  O   CYS A   1     -11.201   6.274  68.160  1.00  0.00    -0.327 OA 
ATOM      8  C   CYS A   1     -10.954   6.421  69.483  1.00  0.00    -0.359 C  
ATOM      9  OXT CYS A   1     -11.847   6.394  70.317  1.00  0.00    -0.396 OA 
BRANCH   6  10
ATOM     10  CB  CYS A   1      -9.413   7.985  70.618  1.00  0.00    -0.162 C  
ATOM     11  SG  CYS A   1      -9.933   9.418  69.612  1.00  0.00    -0.211 SA 
ATOM     12  HG  CYS A   1      -9.872  10.603  70.335  1.00  0.00     0.000 H  
ENDBRANCH   6  10
ENDBRANCH   4   6
TORSDOF 2
ENDMDL
MODEL      166
REMARK 921   NORMALIZED FREE ENERGY PREDICTED BY IDOCK:   -1.77 KCAL/MOL
REMARK 922        TOTAL FREE ENERGY PREDICTED BY IDOCK:   -2.14 KCAL/MOL
REMARK 923 INTER-LIGAND FREE ENERGY PREDICTED BY IDOCK:   -1.96 KCAL/MOL
REMARK 924 INTRA-LIGAND FREE ENERGY PREDICTED BY IDOCK:   -0.18 KCAL/MOL
REMARK 927      BINDING AFFINITY PREDICTED BY RF-SCORE:    0.00 PKD
ROOT
HETATM    1  C   UNK A   0      -9.301  12.104  66.627  1.00  0.00    -0.226 C  
HETATM    2  C   UNK A   0      -9.764  10.674  66.638  1.00  0.00    -0.184 C  
HETATM    3  O   UNK A   0     -10.282  10.136  65.669  1.00  0.00    -0.275 OA 
ATOM      4  N   CYS A   1      -9.668  10.056  67.869  1.00  0.00    -0.145 N  
ATOM      5  H   CYS A   1      -9.377  10.592  68.687  1.00  0.00     0.000 HD 
ENDROOT
BRANCH   4   6
ATOM      6  CA  CYS A   1      -9.986   8.617  68.003  1.00  0.00    -0.182 C  
ATOM      7  O   CYS A   1     -10.620   9.363  70.222  1.00  0.00    -0.214 OA 
ATOM      8  C   CYS A   1     -10.525   8.291  69.401  1.00  0.00    -0.220 C  
ATOM      9  OXT CYS A   1     -10.808   7.161  69.774  1.00  0.00    -0.234 OA 
BRANCH   6  10
ATOM     10  CB  CYS A   1      -8.759   7.727  67.767  1.00  0.00    -0.123 C  
ATOM     11  SG  CYS A   1      -9.071   6.473  66.476  1.00  0.00    -0.153 SA 
ATOM     12  HG  CYS A   1      -7.959   5.667  66.263  1.00  0.00     0.000 H  
ENDBRANCH   6  10
ENDBRANCH   4   6
TORSDOF 2
ENDMDL
MODEL      167
REMARK 921   NORMALIZED FREE ENERGY PREDICTED BY IDOCK:   -1.75 KCAL/MOL
REMARK 922        TOTAL FREE ENERGY PREDICTED BY IDOCK:   -2.12 KCAL/MOL
REMARK 923 INTER-LIGAND FREE ENERGY PREDICTED BY IDOCK:   -1.92 KCAL/MOL
REMARK 924 INTRA-LIGAND FREE ENERGY PREDICTED BY IDOCK:   -0.20 KCAL/MOL
REMARK 927      BINDING AFFINITY PREDICTED BY RF-SCORE:    0.00 PKD
ROOT
HETATM    1  C   UNK A   0     -10.367   5.308  70.540  1.00  0.00    -0.336 C  
HETATM    2  C   UNK A   0      -9.236   6.266  70.288  1.00  0.00    -0.157 C  
HETATM    3  O   UNK A   0      -8.153   6.177  70.850  1.00  0.00    -0.116 OA 
ATOM      4  N   CYS A   1      -9.561   7.324  69.464  1.00  0.00    -0.155 N  
ATOM      5  H   CYS A   1     -10.523   7.444  69.144  1.00  0.00     0.000 HD 
ENDROOT
BRANCH   4   6
ATOM      6  CA  CYS A   1      -8.517   8.284  69.042  1.00  0.00    -0.131 C  
ATOM      7  O   CYS A   1      -9.825   9.738  70.476  1.00  0.00    -0.260 OA 
ATOM      8  C   CYS A   1      -8.744   9.667  69.665  1.00  0.00    -0.197 C  
ATOM      9  OXT CYS A   1      -8.047  10.643  69.425  1.00  0.00    -0.151 OA 
BRANCH   6  10
ATOM     10  CB  CYS A   1      -8.478   8.469  67.519  1.00  0.00    -0.128 C  
ATOM     11  SG  CYS A   1     -10.109   8.955  66.856  1.00  0.00    -0.285 SA 
ATOM     12  HG  CYS A   1     -10.074   9.122  65.476  1.00  0.00     0.000 H  
ENDBRANCH   6  10
ENDBRANCH   4   6
TORSDOF 2
ENDMDL
MODEL      168
REMARK 921   NORMALIZED FREE ENERGY PREDICTED BY IDOCK:   -1.74 KCAL/MOL
REMARK 922        TOTAL FREE ENERGY PREDICTED BY IDOCK:   -2.11 KCAL/MOL
REMARK 923 INTER-LIGAND FREE ENERGY PREDICTED BY IDOCK:   -1.96 KCAL/MOL
REMARK 924 INTRA-LIGAND FREE ENERGY PREDICTED BY IDOCK:   -0.15 KCAL/MOL
REMARK 927      BINDING AFFINITY PREDICTED BY RF-SCORE:    0.00 PKD
ROOT
HETATM    1  C   UNK A   0      -9.306   9.780  69.821  1.00  0.00    -0.249 C  
HETATM    2  C   UNK A   0      -9.834   8.914  70.930  1.00  0.00    -0.242 C  
HETATM    3  O   UNK A   0     -10.805   9.221  71.608  1.00  0.00    -0.357 OA 
ATOM      4  N   CYS A   1      -9.060   7.803  71.200  1.00  0.00    -0.141 N  
ATOM      5  H   CYS A   1      -8.173   7.670  70.714  1.00  0.00     0.000 HD 
ENDROOT
BRANCH   4   6
ATOM      6  CA  CYS A   1      -9.517   6.803  72.191  1.00  0.00    -0.139 C  
ATOM      7  O   CYS A   1      -7.811   7.910  73.513  1.00  0.00    -0.138 OA 
ATOM      8  C   CYS A   1      -8.737   6.923  73.507  1.00  0.00    -0.134 C  
ATOM      9  OXT CYS A   1      -8.894   6.174  74.460  1.00  0.00    -0.128 OA 
BRANCH   6  10
ATOM     10  CB  CYS A   1      -9.346   5.365  71.687  1.00  0.00    -0.147 C  
ATOM     11  SG  CYS A   1     -10.160   5.112  70.072  1.00  0.00    -0.285 SA 
ATOM     12  HG  CYS A   1     -10.005   3.808  69.616  1.00  0.00     0.000 H  
ENDBRANCH   6  10
ENDBRANCH   4   6
TORSDOF 2
ENDMDL
MODEL      169
REMARK 921   NORMALIZED FREE ENERGY PREDICTED BY IDOCK:   -1.74 KCAL/MOL
REMARK 922        TOTAL FREE ENERGY PREDICTED BY IDOCK:   -2.10 KCAL/MOL
REMARK 923 INTER-LIGAND FREE ENERGY PREDICTED BY IDOCK:   -1.95 KCAL/MOL
REMARK 924 INTRA-LIGAND FREE ENERGY PREDICTED BY IDOCK:   -0.16 KCAL/MOL
REMARK 927      BINDING AFFINITY PREDICTED BY RF-SCORE:    0.00 PKD
ROOT
HETATM    1  C   UNK A   0      -9.324   7.536  71.419  1.00  0.00    -0.151 C  
HETATM    2  C   UNK A   0     -10.229   8.320  70.510  1.00  0.00    -0.198 C  
HETATM    3  O   UNK A   0     -11.442   8.366  70.659  1.00  0.00    -0.267 OA 
ATOM      4  N   CYS A   1      -9.592   8.885  69.423  1.00  0.00    -0.161 N  
ATOM      5  H   CYS A   1      -8.605   8.688  69.253  1.00  0.00     0.000 HD 
ENDROOT
BRANCH   4   6
ATOM      6  CA  CYS A   1     -10.338   9.774  68.505  1.00  0.00    -0.202 C  
ATOM      7  O   CYS A   1      -9.435   8.212  66.884  1.00  0.00    -0.165 OA 
ATOM      8  C   CYS A   1     -10.190   9.323  67.047  1.00  0.00    -0.262 C  
ATOM      9  OXT CYS A   1     -10.669   9.927  66.097  1.00  0.00    -0.045 OA 
BRANCH   6  10
ATOM     10  CB  CYS A   1      -9.855  11.228  68.586  1.00  0.00    -0.202 C  
ATOM     11  SG  CYS A   1     -11.252  12.398  68.712  1.00  0.00    -0.292 SA 
ATOM     12  HG  CYS A   1     -10.814  13.716  68.784  1.00  0.00     0.000 H  
ENDBRANCH   6  10
ENDBRANCH   4   6
TORSDOF 2
ENDMDL
MODEL      170
REMARK 921   NORMALIZED FREE ENERGY PREDICTED BY IDOCK:   -1.74 KCAL/MOL
REMARK 922        TOTAL FREE ENERGY PREDICTED BY IDOCK:   -2.10 KCAL/MOL
REMARK 923 INTER-LIGAND FREE ENERGY PREDICTED BY IDOCK:   -1.92 KCAL/MOL
REMARK 924 INTRA-LIGAND FREE ENERGY PREDICTED BY IDOCK:   -0.18 KCAL/MOL
REMARK 927      BINDING AFFINITY PREDICTED BY RF-SCORE:    0.00 PKD
ROOT
HETATM    1  C   UNK A   0      -8.565  13.537  68.032  1.00  0.00    -0.177 C  
HETATM    2  C   UNK A   0      -9.119  12.472  67.127  1.00  0.00    -0.205 C  
HETATM    3  O   UNK A   0      -9.832  12.723  66.165  1.00  0.00    -0.262 OA 
ATOM      4  N   CYS A   1      -8.857  11.182  67.542  1.00  0.00    -0.138 N  
ATOM      5  H   CYS A   1      -8.394  11.019  68.436  1.00  0.00     0.000 HD 
ENDROOT
BRANCH   4   6
ATOM      6  CA  CYS A   1      -9.247  10.036  66.691  1.00  0.00    -0.149 C  
ATOM      7  O   CYS A   1     -10.353   9.386  68.750  1.00  0.00    -0.198 OA 
ATOM      8  C   CYS A   1     -10.108   9.030  67.467  1.00  0.00    -0.228 C  
ATOM      9  OXT CYS A   1     -10.508   7.975  66.998  1.00  0.00    -0.316 OA 
BRANCH   6  10
ATOM     10  CB  CYS A   1      -8.030   9.274  66.150  1.00  0.00    -0.107 C  
ATOM     11  SG  CYS A   1      -7.489   9.927  64.532  1.00  0.00    -0.142 SA 
ATOM     12  HG  CYS A   1      -6.386   9.237  64.042  1.00  0.00     0.000 H  
ENDBRANCH   6  10
ENDBRANCH   4   6
TORSDOF 2
ENDMDL
MODEL      171
REMARK 921   NORMALIZED FREE ENERGY PREDICTED BY IDOCK:   -1.73 KCAL/MOL
REMARK 922        TOTAL FREE ENERGY PREDICTED BY IDOCK:   -2.10 KCAL/MOL
REMARK 923 INTER-LIGAND FREE ENERGY PREDICTED BY IDOCK:   -1.90 KCAL/MOL
REMARK 924 INTRA-LIGAND FREE ENERGY PREDICTED BY IDOCK:   -0.20 KCAL/MOL
REMARK 927      BINDING AFFINITY PREDICTED BY RF-SCORE:    0.00 PKD
ROOT
HETATM    1  C   UNK A   0      -8.073   6.522  68.432  1.00  0.00    -0.111 C  
HETATM    2  C   UNK A   0      -8.018   6.534  69.934  1.00  0.00    -0.116 C  
HETATM    3  O   UNK A   0      -7.077   6.078  70.569  1.00  0.00    -0.066 OA 
ATOM      4  N   CYS A   1      -9.171   6.992  70.540  1.00  0.00    -0.159 N  
ATOM      5  H   CYS A   1      -9.990   7.214  69.974  1.00  0.00     0.000 HD 
ENDROOT
BRANCH   4   6
ATOM      6  CA  CYS A   1      -9.219   7.162  72.009  1.00  0.00    -0.134 C  
ATOM      7  O   CYS A   1     -10.717   5.268  71.788  1.00  0.00    -0.223 OA 
ATOM      8  C   CYS A   1     -10.146   6.129  72.662  1.00  0.00    -0.181 C  
ATOM      9  OXT CYS A   1     -10.394   6.098  73.859  1.00  0.00    -0.247 OA 
BRANCH   6  10
ATOM     10  CB  CYS A   1      -9.725   8.552  72.417  1.00  0.00    -0.287 C  
ATOM     11  SG  CYS A   1     -11.242   9.013  71.509  1.00  0.00    -0.373 SA 
ATOM     12  HG  CYS A   1     -11.700  10.272  71.879  1.00  0.00     0.000 H  
ENDBRANCH   6  10
ENDBRANCH   4   6
TORSDOF 2
ENDMDL
MODEL      172
REMARK 921   NORMALIZED FREE ENERGY PREDICTED BY IDOCK:   -1.72 KCAL/MOL
REMARK 922        TOTAL FREE ENERGY PREDICTED BY IDOCK:   -2.08 KCAL/MOL
REMARK 923 INTER-LIGAND FREE ENERGY PREDICTED BY IDOCK:   -2.00 KCAL/MOL
REMARK 924 INTRA-LIGAND FREE ENERGY PREDICTED BY IDOCK:   -0.08 KCAL/MOL
REMARK 927      BINDING AFFINITY PREDICTED BY RF-SCORE:    0.00 PKD
ROOT
HETATM    1  C   UNK A   0     -11.063   6.888  67.421  1.00  0.00    -0.322 C  
HETATM    2  C   UNK A   0     -10.295   6.920  68.713  1.00  0.00    -0.189 C  
HETATM    3  O   UNK A   0      -9.989   5.907  69.329  1.00  0.00    -0.154 OA 
ATOM      4  N   CYS A   1     -10.070   8.188  69.209  1.00  0.00    -0.197 N  
ATOM      5  H   CYS A   1     -10.481   8.998  68.743  1.00  0.00     0.000 HD 
ENDROOT
BRANCH   4   6
ATOM      6  CA  CYS A   1      -9.233   8.375  70.415  1.00  0.00    -0.153 C  
ATOM      7  O   CYS A   1     -11.424   8.403  71.455  1.00  0.00    -0.257 OA 
ATOM      8  C   CYS A   1     -10.093   8.501  71.679  1.00  0.00    -0.268 C  
ATOM      9  OXT CYS A   1      -9.637   8.716  72.793  1.00  0.00    -0.224 OA 
BRANCH   6  10
ATOM     10  CB  CYS A   1      -8.362   9.635  70.328  1.00  0.00    -0.186 C  
ATOM     11  SG  CYS A   1      -6.746   9.287  69.550  1.00  0.00    -0.049 SA 
ATOM     12  HG  CYS A   1      -5.957  10.428  69.471  1.00  0.00     0.000 H  
ENDBRANCH   6  10
ENDBRANCH   4   6
TORSDOF 2
ENDMDL
MODEL      173
REMARK 921   NORMALIZED FREE ENERGY PREDICTED BY IDOCK:   -1.71 KCAL/MOL
REMARK 922        TOTAL FREE ENERGY PREDICTED BY IDOCK:   -2.07 KCAL/MOL
REMARK 923 INTER-LIGAND FREE ENERGY PREDICTED BY IDOCK:   -2.05 KCAL/MOL
REMARK 924 INTRA-LIGAND FREE ENERGY PREDICTED BY IDOCK:   -0.02 KCAL/MOL
REMARK 927      BINDING AFFINITY PREDICTED BY RF-SCORE:    0.00 PKD
ROOT
HETATM    1  C   UNK A   0     -11.951  10.330  70.908  1.00  0.00    -0.473 C  
HETATM    2  C   UNK A   0     -10.573   9.887  70.505  1.00  0.00    -0.293 C  
HETATM    3  O   UNK A   0      -9.805   9.325  71.274  1.00  0.00    -0.289 OA 
ATOM      4  N   CYS A   1     -10.200  10.275  69.234  1.00  0.00    -0.214 N  
ATOM      5  H   CYS A   1     -10.812  10.879  68.686  1.00  0.00     0.000 HD 
ENDROOT
BRANCH   4   6
ATOM      6  CA  CYS A   1      -8.913   9.815  68.665  1.00  0.00    -0.130 C  
ATOM      7  O   CYS A   1      -8.675  12.199  68.288  1.00  0.00    -0.178 OA 
ATOM      8  C   CYS A   1      -8.087  10.990  68.128  1.00  0.00    -0.122 C  
ATOM      9  OXT CYS A   1      -7.011  10.862  67.561  1.00  0.00    -0.079 OA 
BRANCH   6  10
ATOM     10  CB  CYS A   1      -9.110   8.827  67.508  1.00  0.00    -0.133 C  
ATOM     11  SG  CYS A   1     -10.569   7.761  67.770  1.00  0.00    -0.143 SA 
ATOM     12  HG  CYS A   1     -10.747   6.866  66.722  1.00  0.00     0.000 H  
ENDBRANCH   6  10
ENDBRANCH   4   6
TORSDOF 2
ENDMDL
MODEL      174
REMARK 921   NORMALIZED FREE ENERGY PREDICTED BY IDOCK:   -1.71 KCAL/MOL
REMARK 922        TOTAL FREE ENERGY PREDICTED BY IDOCK:   -2.07 KCAL/MOL
REMARK 923 INTER-LIGAND FREE ENERGY PREDICTED BY IDOCK:   -3.00 KCAL/MOL
REMARK 924 INTRA-LIGAND FREE ENERGY PREDICTED BY IDOCK:    0.93 KCAL/MOL
REMARK 927      BINDING AFFINITY PREDICTED BY RF-SCORE:    0.00 PKD
ROOT
HETATM    1  C   UNK A   0     -10.406  17.934  66.485  1.00  0.00    -0.362 C  
HETATM    2  C   UNK A   0     -10.200  16.460  66.277  1.00  0.00    -0.330 C  
HETATM    3  O   UNK A   0      -9.447  16.008  65.424  1.00  0.00    -0.378 OA 
ATOM      4  N   CYS A   1     -11.020  15.657  67.044  1.00  0.00    -0.301 N  
ATOM      5  H   CYS A   1     -11.744  16.078  67.627  1.00  0.00     0.000 HD 
ENDROOT
BRANCH   4   6
ATOM      6  CA  CYS A   1     -10.850  14.187  67.023  1.00  0.00    -0.295 C  
ATOM      7  O   CYS A   1      -9.006  14.770  68.486  1.00  0.00    -0.170 OA 
ATOM      8  C   CYS A   1      -9.654  13.750  67.877  1.00  0.00    -0.222 C  
ATOM      9  OXT CYS A   1      -9.276  12.591  67.975  1.00  0.00    -0.191 OA 
BRANCH   6  10
ATOM     10  CB  CYS A   1     -10.621  13.650  65.604  1.00  0.00    -0.293 C  
ATOM     11  SG  CYS A   1     -12.039  12.659  65.019  1.00  0.00    -0.455 SA 
ATOM     12  HG  CYS A   1     -11.831  12.172  63.734  1.00  0.00     0.000 H  
ENDBRANCH   6  10
ENDBRANCH   4   6
TORSDOF 2
ENDMDL
MODEL      175
REMARK 921   NORMALIZED FREE ENERGY PREDICTED BY IDOCK:   -1.67 KCAL/MOL
REMARK 922        TOTAL FREE ENERGY PREDICTED BY IDOCK:   -2.03 KCAL/MOL
REMARK 923 INTER-LIGAND FREE ENERGY PREDICTED BY IDOCK:   -1.85 KCAL/MOL
REMARK 924 INTRA-LIGAND FREE ENERGY PREDICTED BY IDOCK:   -0.18 KCAL/MOL
REMARK 927      BINDING AFFINITY PREDICTED BY RF-SCORE:    0.00 PKD
ROOT
HETATM    1  C   UNK A   0      -7.418   4.978  65.396  1.00  0.00    -0.073 C  
HETATM    2  C   UNK A   0      -8.201   4.765  66.661  1.00  0.00    -0.107 C  
HETATM    3  O   UNK A   0      -8.595   3.663  67.021  1.00  0.00    -0.102 OA 
ATOM      4  N   CYS A   1      -8.544   5.928  67.320  1.00  0.00    -0.107 N  
ATOM      5  H   CYS A   1      -8.330   6.833  66.900  1.00  0.00     0.000 HD 
ENDROOT
BRANCH   4   6
ATOM      6  CA  CYS A   1      -9.220   5.865  68.635  1.00  0.00    -0.118 C  
ATOM      7  O   CYS A   1     -11.122   6.449  67.248  1.00  0.00    -0.368 OA 
ATOM      8  C   CYS A   1     -10.714   6.188  68.512  1.00  0.00    -0.300 C  
ATOM      9  OXT CYS A   1     -11.476   6.254  69.466  1.00  0.00    -0.428 OA 
BRANCH   6  10
ATOM     10  CB  CYS A   1      -8.620   6.851  69.645  1.00  0.00    -0.134 C  
ATOM     11  SG  CYS A   1      -8.107   8.411  68.844  1.00  0.00    -0.114 SA 
ATOM     12  HG  CYS A   1      -7.563   9.304  69.759  1.00  0.00     0.000 H  
ENDBRANCH   6  10
ENDBRANCH   4   6
TORSDOF 2
ENDMDL
MODEL      176
REMARK 921   NORMALIZED FREE ENERGY PREDICTED BY IDOCK:   -1.57 KCAL/MOL
REMARK 922        TOTAL FREE ENERGY PREDICTED BY IDOCK:   -1.92 KCAL/MOL
REMARK 923 INTER-LIGAND FREE ENERGY PREDICTED BY IDOCK:   -1.74 KCAL/MOL
REMARK 924 INTRA-LIGAND FREE ENERGY PREDICTED BY IDOCK:   -0.18 KCAL/MOL
REMARK 927      BINDING AFFINITY PREDICTED BY RF-SCORE:    0.00 PKD
ROOT
HETATM    1  C   UNK A   0     -11.647  11.302  68.939  1.00  0.00    -0.386 C  
HETATM    2  C   UNK A   0     -10.679  10.242  68.493  1.00  0.00    -0.227 C  
HETATM    3  O   UNK A   0     -10.885   9.518  67.528  1.00  0.00    -0.280 OA 
ATOM      4  N   CYS A   1      -9.598  10.070  69.333  1.00  0.00    -0.210 N  
ATOM      5  H   CYS A   1      -9.548  10.587  70.211  1.00  0.00     0.000 HD 
ENDROOT
BRANCH   4   6
ATOM      6  CA  CYS A   1      -8.510   9.137  68.962  1.00  0.00    -0.132 C  
ATOM      7  O   CYS A   1      -8.542   8.762  71.357  1.00  0.00    -0.172 OA 
ATOM      8  C   CYS A   1      -7.942   8.422  70.193  1.00  0.00    -0.102 C  
ATOM      9  OXT CYS A   1      -6.999   7.643  70.152  1.00  0.00    -0.049 OA 
BRANCH   6  10
ATOM     10  CB  CYS A   1      -7.343   9.853  68.269  1.00  0.00    -0.079 C  
ATOM     11  SG  CYS A   1      -7.166  11.576  68.848  1.00  0.00    -0.108 SA 
ATOM     12  HG  CYS A   1      -6.109  12.224  68.220  1.00  0.00     0.000 H  
ENDBRANCH   6  10
ENDBRANCH   4   6
TORSDOF 2
ENDMDL
MODEL      177
REMARK 921   NORMALIZED FREE ENERGY PREDICTED BY IDOCK:   -1.55 KCAL/MOL
REMARK 922        TOTAL FREE ENERGY PREDICTED BY IDOCK:   -1.89 KCAL/MOL
REMARK 923 INTER-LIGAND FREE ENERGY PREDICTED BY IDOCK:   -1.70 KCAL/MOL
REMARK 924 INTRA-LIGAND FREE ENERGY PREDICTED BY IDOCK:   -0.19 KCAL/MOL
REMARK 927      BINDING AFFINITY PREDICTED BY RF-SCORE:    0.00 PKD
ROOT
HETATM    1  C   UNK A   0      -9.378   2.763  68.265  1.00  0.00    -0.258 C  
HETATM    2  C   UNK A   0      -9.657   4.163  68.739  1.00  0.00    -0.140 C  
HETATM    3  O   UNK A   0     -10.268   4.982  68.067  1.00  0.00    -0.146 OA 
ATOM      4  N   CYS A   1      -9.061   4.484  69.942  1.00  0.00    -0.098 N  
ATOM      5  H   CYS A   1      -8.429   3.820  70.391  1.00  0.00     0.000 HD 
ENDROOT
BRANCH   4   6
ATOM      6  CA  CYS A   1      -9.338   5.790  70.581  1.00  0.00    -0.159 C  
ATOM      7  O   CYS A   1      -7.097   5.410  71.428  1.00  0.00    -0.065 OA 
ATOM      8  C   CYS A   1      -8.153   6.257  71.435  1.00  0.00    -0.117 C  
ATOM      9  OXT CYS A   1      -8.160   7.279  72.107  1.00  0.00    -0.093 OA 
BRANCH   6  10
ATOM     10  CB  CYS A   1     -10.569   5.739  71.496  1.00  0.00    -0.246 C  
ATOM     11  SG  CYS A   1     -11.864   6.906  70.952  1.00  0.00    -0.380 SA 
ATOM     12  HG  CYS A   1     -12.979   6.860  71.781  1.00  0.00     0.000 H  
ENDBRANCH   6  10
ENDBRANCH   4   6
TORSDOF 2
ENDMDL
MODEL      178
REMARK 921   NORMALIZED FREE ENERGY PREDICTED BY IDOCK:   -1.55 KCAL/MOL
REMARK 922        TOTAL FREE ENERGY PREDICTED BY IDOCK:   -1.89 KCAL/MOL
REMARK 923 INTER-LIGAND FREE ENERGY PREDICTED BY IDOCK:   -1.77 KCAL/MOL
REMARK 924 INTRA-LIGAND FREE ENERGY PREDICTED BY IDOCK:   -0.12 KCAL/MOL
REMARK 927      BINDING AFFINITY PREDICTED BY RF-SCORE:    0.00 PKD
ROOT
HETATM    1  C   UNK A   0     -10.457   7.745  67.699  1.00  0.00    -0.308 C  
HETATM    2  C   UNK A   0     -10.662   6.474  68.476  1.00  0.00    -0.273 C  
HETATM    3  O   UNK A   0     -11.643   6.277  69.179  1.00  0.00    -0.324 OA 
ATOM      4  N   CYS A   1      -9.595   5.600  68.426  1.00  0.00    -0.121 N  
ATOM      5  H   CYS A   1      -8.732   5.875  67.956  1.00  0.00     0.000 HD 
ENDROOT
BRANCH   4   6
ATOM      6  CA  CYS A   1      -9.701   4.264  69.054  1.00  0.00    -0.139 C  
ATOM      7  O   CYS A   1      -8.516   5.430  70.820  1.00  0.00    -0.116 OA 
ATOM      8  C   CYS A   1      -9.043   4.243  70.439  1.00  0.00    -0.106 C  
ATOM      9  OXT CYS A   1      -8.952   3.240  71.133  1.00  0.00    -0.085 OA 
BRANCH   6  10
ATOM     10  CB  CYS A   1      -9.029   3.172  68.212  1.00  0.00    -0.140 C  
ATOM     11  SG  CYS A   1      -9.212   3.490  66.422  1.00  0.00    -0.161 SA 
ATOM     12  HG  CYS A   1      -8.603   2.500  65.659  1.00  0.00     0.000 H  
ENDBRANCH   6  10
ENDBRANCH   4   6
TORSDOF 2
ENDMDL
MODEL      179
REMARK 921   NORMALIZED FREE ENERGY PREDICTED BY IDOCK:   -1.54 KCAL/MOL
REMARK 922        TOTAL FREE ENERGY PREDICTED BY IDOCK:   -1.89 KCAL/MOL
REMARK 923 INTER-LIGAND FREE ENERGY PREDICTED BY IDOCK:   -1.70 KCAL/MOL
REMARK 924 INTRA-LIGAND FREE ENERGY PREDICTED BY IDOCK:   -0.18 KCAL/MOL
REMARK 927      BINDING AFFINITY PREDICTED BY RF-SCORE:    0.00 PKD
ROOT
HETATM    1  C   UNK A   0      -9.869   5.484  71.102  1.00  0.00    -0.235 C  
HETATM    2  C   UNK A   0      -9.129   6.268  70.054  1.00  0.00    -0.148 C  
HETATM    3  O   UNK A   0      -8.379   7.196  70.326  1.00  0.00    -0.132 OA 
ATOM      4  N   CYS A   1      -9.460   5.935  68.756  1.00  0.00    -0.124 N  
ATOM      5  H   CYS A   1     -10.208   5.264  68.577  1.00  0.00     0.000 HD 
ENDROOT
BRANCH   4   6
ATOM      6  CA  CYS A   1      -8.731   6.549  67.624  1.00  0.00    -0.114 C  
ATOM      7  O   CYS A   1     -10.792   7.821  67.495  1.00  0.00    -0.216 OA 
ATOM      8  C   CYS A   1      -9.574   7.629  66.936  1.00  0.00    -0.193 C  
ATOM      9  OXT CYS A   1      -9.212   8.243  65.942  1.00  0.00    -0.181 OA 
BRANCH   6  10
ATOM     10  CB  CYS A   1      -8.346   5.518  66.554  1.00  0.00    -0.109 C  
ATOM     11  SG  CYS A   1      -9.796   4.572  65.975  1.00  0.00    -0.248 SA 
ATOM     12  HG  CYS A   1      -9.447   3.638  65.006  1.00  0.00     0.000 H  
ENDBRANCH   6  10
ENDBRANCH   4   6
TORSDOF 2
ENDMDL
MODEL      180
REMARK 921   NORMALIZED FREE ENERGY PREDICTED BY IDOCK:   -1.53 KCAL/MOL
REMARK 922        TOTAL FREE ENERGY PREDICTED BY IDOCK:   -1.88 KCAL/MOL
REMARK 923 INTER-LIGAND FREE ENERGY PREDICTED BY IDOCK:   -1.72 KCAL/MOL
REMARK 924 INTRA-LIGAND FREE ENERGY PREDICTED BY IDOCK:   -0.16 KCAL/MOL
REMARK 927      BINDING AFFINITY PREDICTED BY RF-SCORE:    0.00 PKD
ROOT
HETATM    1  C   UNK A   0     -10.716  10.731  68.276  1.00  0.00    -0.253 C  
HETATM    2  C   UNK A   0     -10.040   9.404  68.478  1.00  0.00    -0.187 C  
HETATM    3  O   UNK A   0      -9.427   8.829  67.589  1.00  0.00    -0.138 OA 
ATOM      4  N   CYS A   1     -10.273   8.829  69.711  1.00  0.00    -0.196 N  
ATOM      5  H   CYS A   1     -10.921   9.270  70.364  1.00  0.00     0.000 HD 
ENDROOT
BRANCH   4   6
ATOM      6  CA  CYS A   1      -9.583   7.575  70.088  1.00  0.00    -0.168 C  
ATOM      7  O   CYS A   1     -11.476   7.446  71.599  1.00  0.00    -0.251 OA 
ATOM      8  C   CYS A   1     -10.338   6.832  71.197  1.00  0.00    -0.205 C  
ATOM      9  OXT CYS A   1      -9.940   5.799  71.715  1.00  0.00    -0.164 OA 
BRANCH   6  10
ATOM     10  CB  CYS A   1      -8.157   7.827  70.595  1.00  0.00    -0.103 C  
ATOM     11  SG  CYS A   1      -6.909   7.023  69.530  1.00  0.00    -0.052 SA 
ATOM     12  HG  CYS A   1      -5.617   7.251  69.990  1.00  0.00     0.000 H  
ENDBRANCH   6  10
ENDBRANCH   4   6
TORSDOF 2
ENDMDL
MODEL      181
REMARK 921   NORMALIZED FREE ENERGY PREDICTED BY IDOCK:   -1.52 KCAL/MOL
REMARK 922        TOTAL FREE ENERGY PREDICTED BY IDOCK:   -1.86 KCAL/MOL
REMARK 923 INTER-LIGAND FREE ENERGY PREDICTED BY IDOCK:   -2.80 KCAL/MOL
REMARK 924 INTRA-LIGAND FREE ENERGY PREDICTED BY IDOCK:    0.94 KCAL/MOL
REMARK 927      BINDING AFFINITY PREDICTED BY RF-SCORE:    0.00 PKD
ROOT
HETATM    1  C   UNK A   0     -10.216  12.854  65.819  1.00  0.00    -0.298 C  
HETATM    2  C   UNK A   0     -10.391  12.504  67.270  1.00  0.00    -0.220 C  
HETATM    3  O   UNK A   0      -9.449  12.289  68.021  1.00  0.00    -0.193 OA 
ATOM      4  N   CYS A   1     -11.705  12.326  67.657  1.00  0.00    -0.350 N  
ATOM      5  H   CYS A   1     -12.450  12.360  66.960  1.00  0.00     0.000 HD 
ENDROOT
BRANCH   4   6
ATOM      6  CA  CYS A   1     -12.033  12.086  69.080  1.00  0.00    -0.264 C  
ATOM      7  O   CYS A   1     -11.854  14.504  69.125  1.00  0.00    -0.293 OA 
ATOM      8  C   CYS A   1     -12.093  13.399  69.869  1.00  0.00    -0.322 C  
ATOM      9  OXT CYS A   1     -12.293  13.459  71.074  1.00  0.00    -0.363 OA 
BRANCH   6  10
ATOM     10  CB  CYS A   1     -11.002  11.183  69.770  1.00  0.00    -0.150 C  
ATOM     11  SG  CYS A   1     -11.802   9.929  70.829  1.00  0.00    -0.346 SA 
ATOM     12  HG  CYS A   1     -10.867   9.112  71.454  1.00  0.00     0.000 H  
ENDBRANCH   6  10
ENDBRANCH   4   6
TORSDOF 2
ENDMDL
MODEL      182
REMARK 921   NORMALIZED FREE ENERGY PREDICTED BY IDOCK:   -1.51 KCAL/MOL
REMARK 922        TOTAL FREE ENERGY PREDICTED BY IDOCK:   -1.85 KCAL/MOL
REMARK 923 INTER-LIGAND FREE ENERGY PREDICTED BY IDOCK:   -1.65 KCAL/MOL
REMARK 924 INTRA-LIGAND FREE ENERGY PREDICTED BY IDOCK:   -0.20 KCAL/MOL
REMARK 927      BINDING AFFINITY PREDICTED BY RF-SCORE:    0.00 PKD
ROOT
HETATM    1  C   UNK A   0      -6.733   4.488  69.287  1.00  0.00    -0.045 C  
HETATM    2  C   UNK A   0      -7.613   5.046  68.203  1.00  0.00    -0.079 C  
HETATM    3  O   UNK A   0      -7.545   4.679  67.038  1.00  0.00    -0.085 OA 
ATOM      4  N   CYS A   1      -8.418   6.092  68.607  1.00  0.00    -0.113 N  
ATOM      5  H   CYS A   1      -8.327   6.469  69.551  1.00  0.00     0.000 HD 
ENDROOT
BRANCH   4   6
ATOM      6  CA  CYS A   1      -9.413   6.666  67.675  1.00  0.00    -0.124 C  
ATOM      7  O   CYS A   1      -8.670   8.707  68.753  1.00  0.00    -0.133 OA 
ATOM      8  C   CYS A   1      -9.509   8.189  67.826  1.00  0.00    -0.142 C  
ATOM      9  OXT CYS A   1     -10.299   8.885  67.204  1.00  0.00    -0.249 OA 
BRANCH   6  10
ATOM     10  CB  CYS A   1     -10.819   6.094  67.902  1.00  0.00    -0.319 C  
ATOM     11  SG  CYS A   1     -11.386   6.355  69.618  1.00  0.00    -0.363 SA 
ATOM     12  HG  CYS A   1     -12.660   5.837  69.823  1.00  0.00     0.000 H  
ENDBRANCH   6  10
ENDBRANCH   4   6
TORSDOF 2
ENDMDL
MODEL      183
REMARK 921   NORMALIZED FREE ENERGY PREDICTED BY IDOCK:   -1.50 KCAL/MOL
REMARK 922        TOTAL FREE ENERGY PREDICTED BY IDOCK:   -1.84 KCAL/MOL
REMARK 923 INTER-LIGAND FREE ENERGY PREDICTED BY IDOCK:   -1.64 KCAL/MOL
REMARK 924 INTRA-LIGAND FREE ENERGY PREDICTED BY IDOCK:   -0.19 KCAL/MOL
REMARK 927      BINDING AFFINITY PREDICTED BY RF-SCORE:    0.00 PKD
ROOT
HETATM    1  C   UNK A   0      -9.564   8.162  69.779  1.00  0.00    -0.171 C  
HETATM    2  C   UNK A   0      -9.928   7.842  68.356  1.00  0.00    -0.180 C  
HETATM    3  O   UNK A   0     -10.666   8.550  67.684  1.00  0.00    -0.219 OA 
ATOM      4  N   CYS A   1      -9.459   6.623  67.910  1.00  0.00    -0.118 N  
ATOM      5  H   CYS A   1      -8.982   5.994  68.556  1.00  0.00     0.000 HD 
ENDROOT
BRANCH   4   6
ATOM      6  CA  CYS A   1      -9.649   6.227  66.496  1.00  0.00    -0.146 C  
ATOM      7  O   CYS A   1      -9.784   4.039  67.534  1.00  0.00    -0.184 OA 
ATOM      8  C   CYS A   1      -9.822   4.709  66.359  1.00  0.00    -0.225 C  
ATOM      9  OXT CYS A   1      -9.939   4.133  65.286  1.00  0.00    -0.193 OA 
BRANCH   6  10
ATOM     10  CB  CYS A   1      -8.461   6.634  65.615  1.00  0.00    -0.144 C  
ATOM     11  SG  CYS A   1      -6.872   6.461  66.499  1.00  0.00    -0.063 SA 
ATOM     12  HG  CYS A   1      -5.796   6.830  65.701  1.00  0.00     0.000 H  
ENDBRANCH   6  10
ENDBRANCH   4   6
TORSDOF 2
ENDMDL
MODEL      184
REMARK 921   NORMALIZED FREE ENERGY PREDICTED BY IDOCK:   -1.47 KCAL/MOL
REMARK 922        TOTAL FREE ENERGY PREDICTED BY IDOCK:   -1.80 KCAL/MOL
REMARK 923 INTER-LIGAND FREE ENERGY PREDICTED BY IDOCK:   -1.65 KCAL/MOL
REMARK 924 INTRA-LIGAND FREE ENERGY PREDICTED BY IDOCK:   -0.16 KCAL/MOL
REMARK 927      BINDING AFFINITY PREDICTED BY RF-SCORE:    0.00 PKD
ROOT
HETATM    1  C   UNK A   0     -11.386   7.330  71.015  1.00  0.00    -0.301 C  
HETATM    2  C   UNK A   0     -10.191   6.434  71.179  1.00  0.00    -0.191 C  
HETATM    3  O   UNK A   0      -9.094   6.847  71.530  1.00  0.00    -0.144 OA 
ATOM      4  N   CYS A   1     -10.402   5.128  70.785  1.00  0.00    -0.241 N  
ATOM      5  H   CYS A   1     -11.286   4.864  70.350  1.00  0.00     0.000 HD 
ENDROOT
BRANCH   4   6
ATOM      6  CA  CYS A   1      -9.347   4.110  70.993  1.00  0.00    -0.149 C  
ATOM      7  O   CYS A   1      -9.392   4.134  68.568  1.00  0.00    -0.135 OA 
ATOM      8  C   CYS A   1      -8.817   3.574  69.658  1.00  0.00    -0.091 C  
ATOM      9  OXT CYS A   1      -7.980   2.686  69.567  1.00  0.00    -0.042 OA 
BRANCH   6  10
ATOM     10  CB  CYS A   1      -9.852   2.908  71.802  1.00  0.00    -0.148 C  
ATOM     11  SG  CYS A   1     -10.575   3.422  73.398  1.00  0.00    -0.207 SA 
ATOM     12  HG  CYS A   1     -11.032   2.332  74.130  1.00  0.00     0.000 H  
ENDBRANCH   6  10
ENDBRANCH   4   6
TORSDOF 2
ENDMDL
MODEL      185
REMARK 921   NORMALIZED FREE ENERGY PREDICTED BY IDOCK:   -1.45 KCAL/MOL
REMARK 922        TOTAL FREE ENERGY PREDICTED BY IDOCK:   -1.78 KCAL/MOL
REMARK 923 INTER-LIGAND FREE ENERGY PREDICTED BY IDOCK:   -2.48 KCAL/MOL
REMARK 924 INTRA-LIGAND FREE ENERGY PREDICTED BY IDOCK:    0.70 KCAL/MOL
REMARK 927      BINDING AFFINITY PREDICTED BY RF-SCORE:    0.00 PKD
ROOT
HETATM    1  C   UNK A   0     -10.848  10.221  68.246  1.00  0.00    -0.300 C  
HETATM    2  C   UNK A   0     -10.544   8.806  67.836  1.00  0.00    -0.174 C  
HETATM    3  O   UNK A   0     -10.039   8.521  66.758  1.00  0.00    -0.251 OA 
ATOM      4  N   CYS A   1     -10.993   7.849  68.723  1.00  0.00    -0.417 N  
ATOM      5  H   CYS A   1     -11.549   8.126  69.533  1.00  0.00     0.000 HD 
ENDROOT
BRANCH   4   6
ATOM      6  CA  CYS A   1     -10.668   6.422  68.503  1.00  0.00    -0.288 C  
ATOM      7  O   CYS A   1     -10.831   6.414  70.923  1.00  0.00    -0.237 OA 
ATOM      8  C   CYS A   1     -10.582   5.656  69.829  1.00  0.00    -0.329 C  
ATOM      9  OXT CYS A   1     -10.274   4.476  69.913  1.00  0.00    -0.208 OA 
BRANCH   6  10
ATOM     10  CB  CYS A   1      -9.327   6.237  67.780  1.00  0.00    -0.113 C  
ATOM     11  SG  CYS A   1      -9.473   5.091  66.366  1.00  0.00    -0.167 SA 
ATOM     12  HG  CYS A   1      -8.258   4.923  65.712  1.00  0.00     0.000 H  
ENDBRANCH   6  10
ENDBRANCH   4   6
TORSDOF 2
ENDMDL
MODEL      186
REMARK 921   NORMALIZED FREE ENERGY PREDICTED BY IDOCK:   -1.44 KCAL/MOL
REMARK 922        TOTAL FREE ENERGY PREDICTED BY IDOCK:   -1.77 KCAL/MOL
REMARK 923 INTER-LIGAND FREE ENERGY PREDICTED BY IDOCK:   -1.62 KCAL/MOL
REMARK 924 INTRA-LIGAND FREE ENERGY PREDICTED BY IDOCK:   -0.15 KCAL/MOL
REMARK 927      BINDING AFFINITY PREDICTED BY RF-SCORE:    0.00 PKD
ROOT
HETATM    1  C   UNK A   0      -9.921   3.635  72.358  1.00  0.00    -0.235 C  
HETATM    2  C   UNK A   0      -9.121   4.905  72.290  1.00  0.00    -0.130 C  
HETATM    3  O   UNK A   0      -8.281   5.207  73.128  1.00  0.00    -0.107 OA 
ATOM      4  N   CYS A   1      -9.496   5.759  71.273  1.00  0.00    -0.153 N  
ATOM      5  H   CYS A   1     -10.307   5.538  70.694  1.00  0.00     0.000 HD 
ENDROOT
BRANCH   4   6
ATOM      6  CA  CYS A   1      -8.724   6.996  71.020  1.00  0.00    -0.139 C  
ATOM      7  O   CYS A   1     -10.740   7.979  71.942  1.00  0.00    -0.227 OA 
ATOM      8  C   CYS A   1      -9.517   8.244  71.426  1.00  0.00    -0.175 C  
ATOM      9  OXT CYS A   1      -9.115   9.388  71.264  1.00  0.00    -0.277 OA 
BRANCH   6  10
ATOM     10  CB  CYS A   1      -8.349   7.154  69.540  1.00  0.00    -0.133 C  
ATOM     11  SG  CYS A   1      -6.581   6.801  69.249  1.00  0.00    -0.050 SA 
ATOM     12  HG  CYS A   1      -6.241   6.944  67.909  1.00  0.00     0.000 H  
ENDBRANCH   6  10
ENDBRANCH   4   6
TORSDOF 2
ENDMDL
MODEL      187
REMARK 921   NORMALIZED FREE ENERGY PREDICTED BY IDOCK:   -1.43 KCAL/MOL
REMARK 922        TOTAL FREE ENERGY PREDICTED BY IDOCK:   -1.76 KCAL/MOL
REMARK 923 INTER-LIGAND FREE ENERGY PREDICTED BY IDOCK:   -2.67 KCAL/MOL
REMARK 924 INTRA-LIGAND FREE ENERGY PREDICTED BY IDOCK:    0.91 KCAL/MOL
REMARK 927      BINDING AFFINITY PREDICTED BY RF-SCORE:    0.00 PKD
ROOT
HETATM    1  C   UNK A   0      -9.573  15.018  69.627  1.00  0.00    -0.047 C  
HETATM    2  C   UNK A   0      -9.386  15.806  68.360  1.00  0.00    -0.196 C  
HETATM    3  O   UNK A   0      -8.287  16.025  67.870  1.00  0.00    -0.151 OA 
ATOM      4  N   CYS A   1     -10.546  16.364  67.863  1.00  0.00    -0.310 N  
ATOM      5  H   CYS A   1     -11.416  16.288  68.391  1.00  0.00     0.000 HD 
ENDROOT
BRANCH   4   6
ATOM      6  CA  CYS A   1     -10.530  17.074  66.564  1.00  0.00    -0.250 C  
ATOM      7  O   CYS A   1     -10.941  14.819  65.770  1.00  0.00    -0.315 OA 
ATOM      8  C   CYS A   1     -10.757  16.107  65.395  1.00  0.00    -0.358 C  
ATOM      9  OXT CYS A   1     -10.734  16.444  64.220  1.00  0.00    -0.503 OA 
BRANCH   6  10
ATOM     10  CB  CYS A   1      -9.199  17.792  66.311  1.00  0.00    -0.182 C  
ATOM     11  SG  CYS A   1      -9.242  19.522  66.896  1.00  0.00    -0.359 SA 
ATOM     12  HG  CYS A   1      -8.035  20.173  66.667  1.00  0.00     0.000 H  
ENDBRANCH   6  10
ENDBRANCH   4   6
TORSDOF 2
ENDMDL
MODEL      188
REMARK 921   NORMALIZED FREE ENERGY PREDICTED BY IDOCK:   -1.43 KCAL/MOL
REMARK 922        TOTAL FREE ENERGY PREDICTED BY IDOCK:   -1.76 KCAL/MOL
REMARK 923 INTER-LIGAND FREE ENERGY PREDICTED BY IDOCK:   -1.56 KCAL/MOL
REMARK 924 INTRA-LIGAND FREE ENERGY PREDICTED BY IDOCK:   -0.20 KCAL/MOL
REMARK 927      BINDING AFFINITY PREDICTED BY RF-SCORE:    0.00 PKD
ROOT
HETATM    1  C   UNK A   0      -9.573  10.288  67.013  1.00  0.00    -0.205 C  
HETATM    2  C   UNK A   0      -9.256   9.176  66.052  1.00  0.00    -0.215 C  
HETATM    3  O   UNK A   0      -9.278   9.322  64.837  1.00  0.00    -0.225 OA 
ATOM      4  N   CYS A   1      -9.057   7.948  66.649  1.00  0.00    -0.155 N  
ATOM      5  H   CYS A   1      -9.204   7.840  67.653  1.00  0.00     0.000 HD 
ENDROOT
BRANCH   4   6
ATOM      6  CA  CYS A   1      -8.631   6.787  65.835  1.00  0.00    -0.147 C  
ATOM      7  O   CYS A   1     -10.700   5.894  66.731  1.00  0.00    -0.288 OA 
ATOM      8  C   CYS A   1      -9.632   5.631  65.942  1.00  0.00    -0.027 C  
ATOM      9  OXT CYS A   1      -9.475   4.544  65.405  1.00  0.00    -0.157 OA 
BRANCH   6  10
ATOM     10  CB  CYS A   1      -7.261   6.248  66.267  1.00  0.00    -0.069 C  
ATOM     11  SG  CYS A   1      -7.253   5.752  68.025  1.00  0.00    -0.073 SA 
ATOM     12  HG  CYS A   1      -6.012   5.263  68.416  1.00  0.00     0.000 H  
ENDBRANCH   6  10
ENDBRANCH   4   6
TORSDOF 2
ENDMDL
MODEL      189
REMARK 921   NORMALIZED FREE ENERGY PREDICTED BY IDOCK:   -1.41 KCAL/MOL
REMARK 922        TOTAL FREE ENERGY PREDICTED BY IDOCK:   -1.74 KCAL/MOL
REMARK 923 INTER-LIGAND FREE ENERGY PREDICTED BY IDOCK:   -1.54 KCAL/MOL
REMARK 924 INTRA-LIGAND FREE ENERGY PREDICTED BY IDOCK:   -0.19 KCAL/MOL
REMARK 927      BINDING AFFINITY PREDICTED BY RF-SCORE:    0.00 PKD
ROOT
HETATM    1  C   UNK A   0      -9.163   9.685  64.991  1.00  0.00    -0.310 C  
HETATM    2  C   UNK A   0      -8.366   8.577  65.622  1.00  0.00    -0.148 C  
HETATM    3  O   UNK A   0      -7.183   8.387  65.374  1.00  0.00    -0.079 OA 
ATOM      4  N   CYS A   1      -9.108   7.720  66.408  1.00  0.00    -0.168 N  
ATOM      5  H   CYS A   1     -10.122   7.824  66.459  1.00  0.00     0.000 HD 
ENDROOT
BRANCH   4   6
ATOM      6  CA  CYS A   1      -8.436   6.649  67.177  1.00  0.00    -0.113 C  
ATOM      7  O   CYS A   1      -9.699   5.278  65.626  1.00  0.00    -0.117 OA 
ATOM      8  C   CYS A   1      -8.837   5.259  66.669  1.00  0.00    -0.113 C  
ATOM      9  OXT CYS A   1      -8.457   4.214  67.178  1.00  0.00    -0.100 OA 
BRANCH   6  10
ATOM     10  CB  CYS A   1      -8.777   6.706  68.672  1.00  0.00    -0.124 C  
ATOM     11  SG  CYS A   1     -10.572   6.535  68.963  1.00  0.00    -0.273 SA 
ATOM     12  HG  CYS A   1     -10.881   6.587  70.317  1.00  0.00     0.000 H  
ENDBRANCH   6  10
ENDBRANCH   4   6
TORSDOF 2
ENDMDL
MODEL      190
REMARK 921   NORMALIZED FREE ENERGY PREDICTED BY IDOCK:   -1.40 KCAL/MOL
REMARK 922        TOTAL FREE ENERGY PREDICTED BY IDOCK:   -1.73 KCAL/MOL
REMARK 923 INTER-LIGAND FREE ENERGY PREDICTED BY IDOCK:   -1.62 KCAL/MOL
REMARK 924 INTRA-LIGAND FREE ENERGY PREDICTED BY IDOCK:   -0.11 KCAL/MOL
REMARK 927      BINDING AFFINITY PREDICTED BY RF-SCORE:    0.00 PKD
ROOT
HETATM    1  C   UNK A   0      -7.013  11.284  69.205  1.00  0.00    -0.114 C  
HETATM    2  C   UNK A   0      -7.415   9.847  69.020  1.00  0.00    -0.083 C  
HETATM    3  O   UNK A   0      -6.627   8.918  69.126  1.00  0.00    -0.046 OA 
ATOM      4  N   CYS A   1      -8.719   9.672  68.602  1.00  0.00    -0.122 N  
ATOM      5  H   CYS A   1      -9.294  10.483  68.374  1.00  0.00     0.000 HD 
ENDROOT
BRANCH   4   6
ATOM      6  CA  CYS A   1      -9.284   8.309  68.485  1.00  0.00    -0.136 C  
ATOM      7  O   CYS A   1      -9.728   9.108  66.238  1.00  0.00    -0.231 OA 
ATOM      8  C   CYS A   1      -9.859   8.060  67.085  1.00  0.00    -0.210 C  
ATOM      9  OXT CYS A   1     -10.429   7.029  66.758  1.00  0.00    -0.262 OA 
BRANCH   6  10
ATOM     10  CB  CYS A   1     -10.412   8.059  69.494  1.00  0.00    -0.226 C  
ATOM     11  SG  CYS A   1      -9.847   8.300  71.214  1.00  0.00    -0.187 SA 
ATOM     12  HG  CYS A   1     -10.869   8.073  72.128  1.00  0.00     0.000 H  
ENDBRANCH   6  10
ENDBRANCH   4   6
TORSDOF 2
ENDMDL
MODEL      191
REMARK 921   NORMALIZED FREE ENERGY PREDICTED BY IDOCK:   -1.40 KCAL/MOL
REMARK 922        TOTAL FREE ENERGY PREDICTED BY IDOCK:   -1.72 KCAL/MOL
REMARK 923 INTER-LIGAND FREE ENERGY PREDICTED BY IDOCK:   -1.53 KCAL/MOL
REMARK 924 INTRA-LIGAND FREE ENERGY PREDICTED BY IDOCK:   -0.20 KCAL/MOL
REMARK 927      BINDING AFFINITY PREDICTED BY RF-SCORE:    0.00 PKD
ROOT
HETATM    1  C   UNK A   0      -9.864   7.768  67.141  1.00  0.00    -0.270 C  
HETATM    2  C   UNK A   0      -9.910   6.784  68.277  1.00  0.00    -0.142 C  
HETATM    3  O   UNK A   0     -10.557   5.746  68.230  1.00  0.00    -0.218 OA 
ATOM      4  N   CYS A   1      -9.263   7.206  69.420  1.00  0.00    -0.148 N  
ATOM      5  H   CYS A   1      -8.872   8.147  69.466  1.00  0.00     0.000 HD 
ENDROOT
BRANCH   4   6
ATOM      6  CA  CYS A   1      -9.134   6.295  70.579  1.00  0.00    -0.154 C  
ATOM      7  O   CYS A   1      -9.832   8.306  71.742  1.00  0.00    -0.181 OA 
ATOM      8  C   CYS A   1      -9.473   7.010  71.893  1.00  0.00    -0.140 C  
ATOM      9  OXT CYS A   1      -9.388   6.484  72.994  1.00  0.00    -0.136 OA 
BRANCH   6  10
ATOM     10  CB  CYS A   1      -7.715   5.729  70.719  1.00  0.00    -0.093 C  
ATOM     11  SG  CYS A   1      -6.449   6.952  70.233  1.00  0.00    -0.044 SA 
ATOM     12  HG  CYS A   1      -5.163   6.439  70.359  1.00  0.00     0.000 H  
ENDBRANCH   6  10
ENDBRANCH   4   6
TORSDOF 2
ENDMDL
MODEL      192
REMARK 921   NORMALIZED FREE ENERGY PREDICTED BY IDOCK:   -1.39 KCAL/MOL
REMARK 922        TOTAL FREE ENERGY PREDICTED BY IDOCK:   -1.72 KCAL/MOL
REMARK 923 INTER-LIGAND FREE ENERGY PREDICTED BY IDOCK:   -1.57 KCAL/MOL
REMARK 924 INTRA-LIGAND FREE ENERGY PREDICTED BY IDOCK:   -0.15 KCAL/MOL
REMARK 927      BINDING AFFINITY PREDICTED BY RF-SCORE:    0.00 PKD
ROOT
HETATM    1  C   UNK A   0      -9.399   9.893  69.351  1.00  0.00    -0.226 C  
HETATM    2  C   UNK A   0      -8.944   8.753  70.220  1.00  0.00    -0.161 C  
HETATM    3  O   UNK A   0      -7.957   8.820  70.939  1.00  0.00    -0.106 OA 
ATOM      4  N   CYS A   1      -9.661   7.586  70.047  1.00  0.00    -0.165 N  
ATOM      5  H   CYS A   1     -10.375   7.530  69.321  1.00  0.00     0.000 HD 
ENDROOT
BRANCH   4   6
ATOM      6  CA  CYS A   1      -9.394   6.417  70.914  1.00  0.00    -0.161 C  
ATOM      7  O   CYS A   1      -8.498   5.565  68.827  1.00  0.00    -0.101 OA 
ATOM      8  C   CYS A   1      -8.725   5.280  70.131  1.00  0.00    -0.121 C  
ATOM      9  OXT CYS A   1      -8.455   4.190  70.613  1.00  0.00    -0.069 OA 
BRANCH   6  10
ATOM     10  CB  CYS A   1     -10.677   5.851  71.536  1.00  0.00    -0.256 C  
ATOM     11  SG  CYS A   1     -10.904   6.422  73.256  1.00  0.00    -0.202 SA 
ATOM     12  HG  CYS A   1     -12.066   5.908  73.819  1.00  0.00     0.000 H  
ENDBRANCH   6  10
ENDBRANCH   4   6
TORSDOF 2
ENDMDL
MODEL      193
REMARK 921   NORMALIZED FREE ENERGY PREDICTED BY IDOCK:   -1.39 KCAL/MOL
REMARK 922        TOTAL FREE ENERGY PREDICTED BY IDOCK:   -1.72 KCAL/MOL
REMARK 923 INTER-LIGAND FREE ENERGY PREDICTED BY IDOCK:   -1.54 KCAL/MOL
REMARK 924 INTRA-LIGAND FREE ENERGY PREDICTED BY IDOCK:   -0.17 KCAL/MOL
REMARK 927      BINDING AFFINITY PREDICTED BY RF-SCORE:    0.00 PKD
ROOT
HETATM    1  C   UNK A   0      -6.681   4.378  71.141  1.00  0.00    -0.031 C  
HETATM    2  C   UNK A   0      -8.051   4.992  71.057  1.00  0.00    -0.101 C  
HETATM    3  O   UNK A   0      -9.079   4.331  71.111  1.00  0.00    -0.115 OA 
ATOM      4  N   CYS A   1      -8.050   6.347  70.794  1.00  0.00    -0.118 N  
ATOM      5  H   CYS A   1      -7.172   6.828  70.599  1.00  0.00     0.000 HD 
ENDROOT
BRANCH   4   6
ATOM      6  CA  CYS A   1      -9.323   7.103  70.793  1.00  0.00    -0.160 C  
ATOM      7  O   CYS A   1      -8.285   8.087  68.834  1.00  0.00    -0.122 OA 
ATOM      8  C   CYS A   1      -9.380   8.101  69.630  1.00  0.00    -0.159 C  
ATOM      9  OXT CYS A   1     -10.305   8.879  69.447  1.00  0.00    -0.204 OA 
BRANCH   6  10
ATOM     10  CB  CYS A   1      -9.526   7.899  72.089  1.00  0.00    -0.177 C  
ATOM     11  SG  CYS A   1     -11.154   7.558  72.843  1.00  0.00    -0.357 SA 
ATOM     12  HG  CYS A   1     -11.337   8.279  74.017  1.00  0.00     0.000 H  
ENDBRANCH   6  10
ENDBRANCH   4   6
TORSDOF 2
ENDMDL
MODEL      194
REMARK 921   NORMALIZED FREE ENERGY PREDICTED BY IDOCK:   -1.38 KCAL/MOL
REMARK 922        TOTAL FREE ENERGY PREDICTED BY IDOCK:   -1.71 KCAL/MOL
REMARK 923 INTER-LIGAND FREE ENERGY PREDICTED BY IDOCK:   -1.84 KCAL/MOL
REMARK 924 INTRA-LIGAND FREE ENERGY PREDICTED BY IDOCK:    0.13 KCAL/MOL
REMARK 927      BINDING AFFINITY PREDICTED BY RF-SCORE:    0.00 PKD
ROOT
HETATM    1  C   UNK A   0      -7.094   7.900  62.838  1.00  0.00    -0.087 C  
HETATM    2  C   UNK A   0      -7.946   8.186  64.043  1.00  0.00    -0.139 C  
HETATM    3  O   UNK A   0      -8.219   7.337  64.880  1.00  0.00    -0.130 OA 
ATOM      4  N   CYS A   1      -8.494   9.453  64.063  1.00  0.00    -0.184 N  
ATOM      5  H   CYS A   1      -8.368  10.075  63.264  1.00  0.00     0.000 HD 
ENDROOT
BRANCH   4   6
ATOM      6  CA  CYS A   1      -9.265   9.909  65.241  1.00  0.00    -0.226 C  
ATOM      7  O   CYS A   1      -9.909  11.635  63.663  1.00  0.00    -0.310 OA 
ATOM      8  C   CYS A   1     -10.054  11.188  64.933  1.00  0.00    -0.289 C  
ATOM      9  OXT CYS A   1     -10.724  11.789  65.760  1.00  0.00    -0.264 OA 
BRANCH   6  10
ATOM     10  CB  CYS A   1      -8.362  10.208  66.445  1.00  0.00    -0.125 C  
ATOM     11  SG  CYS A   1      -6.678  10.685  65.926  1.00  0.00    -0.087 SA 
ATOM     12  HG  CYS A   1      -5.860  10.956  67.017  1.00  0.00     0.000 H  
ENDBRANCH   6  10
ENDBRANCH   4   6
TORSDOF 2
ENDMDL
MODEL      195
REMARK 921   NORMALIZED FREE ENERGY PREDICTED BY IDOCK:   -1.37 KCAL/MOL
REMARK 922        TOTAL FREE ENERGY PREDICTED BY IDOCK:   -1.69 KCAL/MOL
REMARK 923 INTER-LIGAND FREE ENERGY PREDICTED BY IDOCK:   -1.50 KCAL/MOL
REMARK 924 INTRA-LIGAND FREE ENERGY PREDICTED BY IDOCK:   -0.20 KCAL/MOL
REMARK 927      BINDING AFFINITY PREDICTED BY RF-SCORE:    0.00 PKD
ROOT
HETATM    1  C   UNK A   0     -11.117   6.019  67.736  1.00  0.00    -0.216 C  
HETATM    2  C   UNK A   0      -9.924   5.234  67.268  1.00  0.00    -0.177 C  
HETATM    3  O   UNK A   0      -9.238   4.556  68.020  1.00  0.00    -0.118 OA 
ATOM      4  N   CYS A   1      -9.594   5.438  65.943  1.00  0.00    -0.273 N  
ATOM      5  H   CYS A   1     -10.099   6.134  65.393  1.00  0.00     0.000 HD 
ENDROOT
BRANCH   4   6
ATOM      6  CA  CYS A   1      -8.510   4.648  65.318  1.00  0.00    -0.128 C  
ATOM      7  O   CYS A   1      -8.109   6.781  64.236  1.00  0.00    -0.113 OA 
ATOM      8  C   CYS A   1      -7.697   5.496  64.332  1.00  0.00    -0.095 C  
ATOM      9  OXT CYS A   1      -6.782   5.055  63.650  1.00  0.00    -0.036 OA 
BRANCH   6  10
ATOM     10  CB  CYS A   1      -9.045   3.435  64.546  1.00  0.00    -0.130 C  
ATOM     11  SG  CYS A   1     -10.640   3.801  63.734  1.00  0.00    -0.209 SA 
ATOM     12  HG  CYS A   1     -11.125   2.702  63.035  1.00  0.00     0.000 H  
ENDBRANCH   6  10
ENDBRANCH   4   6
TORSDOF 2
ENDMDL
MODEL      196
REMARK 921   NORMALIZED FREE ENERGY PREDICTED BY IDOCK:   -1.36 KCAL/MOL
REMARK 922        TOTAL FREE ENERGY PREDICTED BY IDOCK:   -1.69 KCAL/MOL
REMARK 923 INTER-LIGAND FREE ENERGY PREDICTED BY IDOCK:   -1.63 KCAL/MOL
REMARK 924 INTRA-LIGAND FREE ENERGY PREDICTED BY IDOCK:   -0.06 KCAL/MOL
REMARK 927      BINDING AFFINITY PREDICTED BY RF-SCORE:    0.00 PKD
ROOT
HETATM    1  C   UNK A   0      -7.043   9.082  64.625  1.00  0.00    -0.089 C  
HETATM    2  C   UNK A   0      -8.197   9.058  65.590  1.00  0.00    -0.119 C  
HETATM    3  O   UNK A   0      -8.915   8.079  65.743  1.00  0.00    -0.165 OA 
ATOM      4  N   CYS A   1      -8.453  10.270  66.198  1.00  0.00    -0.137 N  
ATOM      5  H   CYS A   1      -7.928  11.100  65.921  1.00  0.00     0.000 HD 
ENDROOT
BRANCH   4   6
ATOM      6  CA  CYS A   1      -9.489  10.368  67.250  1.00  0.00    -0.154 C  
ATOM      7  O   CYS A   1      -9.160  12.730  66.809  1.00  0.00    -0.217 OA 
ATOM      8  C   CYS A   1      -9.840  11.829  67.557  1.00  0.00    -0.186 C  
ATOM      9  OXT CYS A   1     -10.628  12.171  68.427  1.00  0.00    -0.212 OA 
BRANCH   6  10
ATOM     10  CB  CYS A   1      -9.041   9.719  68.567  1.00  0.00    -0.128 C  
ATOM     11  SG  CYS A   1     -10.371   8.714  69.312  1.00  0.00    -0.219 SA 
ATOM     12  HG  CYS A   1      -9.966   8.126  70.504  1.00  0.00     0.000 H  
ENDBRANCH   6  10
ENDBRANCH   4   6
TORSDOF 2
ENDMDL
MODEL      197
REMARK 921   NORMALIZED FREE ENERGY PREDICTED BY IDOCK:   -1.36 KCAL/MOL
REMARK 922        TOTAL FREE ENERGY PREDICTED BY IDOCK:   -1.68 KCAL/MOL
REMARK 923 INTER-LIGAND FREE ENERGY PREDICTED BY IDOCK:   -1.50 KCAL/MOL
REMARK 924 INTRA-LIGAND FREE ENERGY PREDICTED BY IDOCK:   -0.18 KCAL/MOL
REMARK 927      BINDING AFFINITY PREDICTED BY RF-SCORE:    0.00 PKD
ROOT
HETATM    1  C   UNK A   0     -10.385   8.264  66.753  1.00  0.00    -0.361 C  
HETATM    2  C   UNK A   0      -9.639   9.074  67.776  1.00  0.00    -0.150 C  
HETATM    3  O   UNK A   0      -9.923   9.065  68.967  1.00  0.00    -0.175 OA 
ATOM      4  N   CYS A   1      -8.686   9.919  67.246  1.00  0.00    -0.128 N  
ATOM      5  H   CYS A   1      -8.591  10.010  66.234  1.00  0.00     0.000 HD 
ENDROOT
BRANCH   4   6
ATOM      6  CA  CYS A   1      -7.800  10.695  68.143  1.00  0.00    -0.110 C  
ATOM      7  O   CYS A   1      -9.013  12.527  67.116  1.00  0.00    -0.186 OA 
ATOM      8  C   CYS A   1      -8.044  12.203  68.003  1.00  0.00    -0.155 C  
ATOM      9  OXT CYS A   1      -7.399  13.054  68.599  1.00  0.00    -0.104 OA 
BRANCH   6  10
ATOM     10  CB  CYS A   1      -6.315  10.443  67.853  1.00  0.00    -0.060 C  
ATOM     11  SG  CYS A   1      -6.062   9.736  66.188  1.00  0.00    -0.068 SA 
ATOM     12  HG  CYS A   1      -4.716   9.507  65.926  1.00  0.00     0.000 H  
ENDBRANCH   6  10
ENDBRANCH   4   6
TORSDOF 2
ENDMDL
MODEL      198
REMARK 921   NORMALIZED FREE ENERGY PREDICTED BY IDOCK:   -1.33 KCAL/MOL
REMARK 922        TOTAL FREE ENERGY PREDICTED BY IDOCK:   -1.65 KCAL/MOL
REMARK 923 INTER-LIGAND FREE ENERGY PREDICTED BY IDOCK:   -1.50 KCAL/MOL
REMARK 924 INTRA-LIGAND FREE ENERGY PREDICTED BY IDOCK:   -0.15 KCAL/MOL
REMARK 927      BINDING AFFINITY PREDICTED BY RF-SCORE:    0.00 PKD
ROOT
HETATM    1  C   UNK A   0      -7.174   7.209  69.826  1.00  0.00    -0.079 C  
HETATM    2  C   UNK A   0      -7.591   6.801  68.440  1.00  0.00    -0.104 C  
HETATM    3  O   UNK A   0      -7.316   7.456  67.444  1.00  0.00    -0.096 OA 
ATOM      4  N   CYS A   1      -8.413   5.693  68.398  1.00  0.00    -0.105 N  
ATOM      5  H   CYS A   1      -8.746   5.272  69.266  1.00  0.00     0.000 HD 
ENDROOT
BRANCH   4   6
ATOM      6  CA  CYS A   1      -8.812   5.115  67.095  1.00  0.00    -0.109 C  
ATOM      7  O   CYS A   1     -10.968   5.956  67.823  1.00  0.00    -0.279 OA 
ATOM      8  C   CYS A   1     -10.313   5.299  66.837  1.00  0.00    -0.255 C  
ATOM      9  OXT CYS A   1     -10.892   4.860  65.855  1.00  0.00    -0.289 OA 
BRANCH   6  10
ATOM     10  CB  CYS A   1      -8.515   3.612  67.012  1.00  0.00    -0.105 C  
ATOM     11  SG  CYS A   1      -7.754   3.161  65.414  1.00  0.00    -0.082 SA 
ATOM     12  HG  CYS A   1      -7.485   1.799  65.339  1.00  0.00     0.000 H  
ENDBRANCH   6  10
ENDBRANCH   4   6
TORSDOF 2
ENDMDL
MODEL      199
REMARK 921   NORMALIZED FREE ENERGY PREDICTED BY IDOCK:   -1.30 KCAL/MOL
REMARK 922        TOTAL FREE ENERGY PREDICTED BY IDOCK:   -1.62 KCAL/MOL
REMARK 923 INTER-LIGAND FREE ENERGY PREDICTED BY IDOCK:   -1.53 KCAL/MOL
REMARK 924 INTRA-LIGAND FREE ENERGY PREDICTED BY IDOCK:   -0.09 KCAL/MOL
REMARK 927      BINDING AFFINITY PREDICTED BY RF-SCORE:    0.00 PKD
ROOT
HETATM    1  C   UNK A   0      -7.977   3.690  63.550  1.00  0.00    -0.087 C  
HETATM    2  C   UNK A   0      -7.993   4.456  64.843  1.00  0.00    -0.094 C  
HETATM    3  O   UNK A   0      -7.532   4.010  65.885  1.00  0.00    -0.081 OA 
ATOM      4  N   CYS A   1      -8.679   5.652  64.786  1.00  0.00    -0.324 N  
ATOM      5  H   CYS A   1      -9.183   5.911  63.937  1.00  0.00     0.000 HD 
ENDROOT
BRANCH   4   6
ATOM      6  CA  CYS A   1      -8.683   6.561  65.954  1.00  0.00    -0.141 C  
ATOM      7  O   CYS A   1     -10.802   5.441  66.325  1.00  0.00    -0.260 OA 
ATOM      8  C   CYS A   1      -9.954   6.386  66.795  1.00  0.00    -0.171 C  
ATOM      9  OXT CYS A   1     -10.215   7.061  67.780  1.00  0.00    -0.157 OA 
BRANCH   6  10
ATOM     10  CB  CYS A   1      -8.608   8.037  65.541  1.00  0.00    -0.135 C  
ATOM     11  SG  CYS A   1      -6.926   8.505  65.005  1.00  0.00    -0.076 SA 
ATOM     12  HG  CYS A   1      -6.859   9.842  64.631  1.00  0.00     0.000 H  
ENDBRANCH   6  10
ENDBRANCH   4   6
TORSDOF 2
ENDMDL
MODEL      200
REMARK 921   NORMALIZED FREE ENERGY PREDICTED BY IDOCK:   -1.27 KCAL/MOL
REMARK 922        TOTAL FREE ENERGY PREDICTED BY IDOCK:   -1.58 KCAL/MOL
REMARK 923 INTER-LIGAND FREE ENERGY PREDICTED BY IDOCK:   -1.48 KCAL/MOL
REMARK 924 INTRA-LIGAND FREE ENERGY PREDICTED BY IDOCK:   -0.11 KCAL/MOL
REMARK 927      BINDING AFFINITY PREDICTED BY RF-SCORE:    0.00 PKD
ROOT
HETATM    1  C   UNK A   0     -10.580   7.849  70.082  1.00  0.00    -0.237 C  
HETATM    2  C   UNK A   0     -10.199   8.420  68.744  1.00  0.00    -0.207 C  
HETATM    3  O   UNK A   0     -10.801   9.348  68.222  1.00  0.00    -0.197 OA 
ATOM      4  N   CYS A   1      -9.191   7.731  68.100  1.00  0.00    -0.139 N  
ATOM      5  H   CYS A   1      -8.826   6.868  68.502  1.00  0.00     0.000 HD 
ENDROOT
BRANCH   4   6
ATOM      6  CA  CYS A   1      -8.640   8.244  66.826  1.00  0.00    -0.127 C  
ATOM      7  O   CYS A   1      -8.990   5.929  66.194  1.00  0.00    -0.145 OA 
ATOM      8  C   CYS A   1      -8.545   7.135  65.770  1.00  0.00    -0.133 C  
ATOM      9  OXT CYS A   1      -8.071   7.298  64.655  1.00  0.00    -0.127 OA 
BRANCH   6  10
ATOM     10  CB  CYS A   1      -7.234   8.834  66.997  1.00  0.00    -0.079 C  
ATOM     11  SG  CYS A   1      -7.262  10.378  67.971  1.00  0.00    -0.085 SA 
ATOM     12  HG  CYS A   1      -5.988  10.912  68.126  1.00  0.00     0.000 H  
ENDBRANCH   6  10
ENDBRANCH   4   6
TORSDOF 2
ENDMDL
MODEL      201
REMARK 921   NORMALIZED FREE ENERGY PREDICTED BY IDOCK:   -1.26 KCAL/MOL
REMARK 922        TOTAL FREE ENERGY PREDICTED BY IDOCK:   -1.57 KCAL/MOL
REMARK 923 INTER-LIGAND FREE ENERGY PREDICTED BY IDOCK:   -1.47 KCAL/MOL
REMARK 924 INTRA-LIGAND FREE ENERGY PREDICTED BY IDOCK:   -0.10 KCAL/MOL
REMARK 927      BINDING AFFINITY PREDICTED BY RF-SCORE:    0.00 PKD
ROOT
HETATM    1  C   UNK A   0      -9.756   6.176  68.502  1.00  0.00    -0.141 C  
HETATM    2  C   UNK A   0      -9.340   5.696  69.864  1.00  0.00    -0.147 C  
HETATM    3  O   UNK A   0      -9.107   4.521  70.112  1.00  0.00    -0.088 OA 
ATOM      4  N   CYS A   1      -9.360   6.672  70.841  1.00  0.00    -0.158 N  
ATOM      5  H   CYS A   1      -9.713   7.604  70.622  1.00  0.00     0.000 HD 
ENDROOT
BRANCH   4   6
ATOM      6  CA  CYS A   1      -8.871   6.368  72.204  1.00  0.00    -0.136 C  
ATOM      7  O   CYS A   1     -11.258   6.283  72.621  1.00  0.00    -0.260 OA 
ATOM      8  C   CYS A   1     -10.033   6.163  73.183  1.00  0.00    -0.179 C  
ATOM      9  OXT CYS A   1      -9.885   5.955  74.379  1.00  0.00    -0.189 OA 
BRANCH   6  10
ATOM     10  CB  CYS A   1      -7.989   7.489  72.767  1.00  0.00    -0.104 C  
ATOM     11  SG  CYS A   1      -6.564   6.827  73.698  1.00  0.00    -0.067 SA 
ATOM     12  HG  CYS A   1      -5.765   7.843  74.209  1.00  0.00     0.000 H  
ENDBRANCH   6  10
ENDBRANCH   4   6
TORSDOF 2
ENDMDL
MODEL      202
REMARK 921   NORMALIZED FREE ENERGY PREDICTED BY IDOCK:   -1.24 KCAL/MOL
REMARK 922        TOTAL FREE ENERGY PREDICTED BY IDOCK:   -1.55 KCAL/MOL
REMARK 923 INTER-LIGAND FREE ENERGY PREDICTED BY IDOCK:   -1.36 KCAL/MOL
REMARK 924 INTRA-LIGAND FREE ENERGY PREDICTED BY IDOCK:   -0.19 KCAL/MOL
REMARK 927      BINDING AFFINITY PREDICTED BY RF-SCORE:    0.00 PKD
ROOT
HETATM    1  C   UNK A   0      -9.932   2.127  71.804  1.00  0.00    -0.209 C  
HETATM    2  C   UNK A   0      -9.781   3.535  71.301  1.00  0.00    -0.166 C  
HETATM    3  O   UNK A   0     -10.211   4.507  71.908  1.00  0.00    -0.195 OA 
ATOM      4  N   CYS A   1      -9.226   3.632  70.041  1.00  0.00    -0.136 N  
ATOM      5  H   CYS A   1      -9.027   2.787  69.506  1.00  0.00     0.000 HD 
ENDROOT
BRANCH   4   6
ATOM      6  CA  CYS A   1      -8.917   4.961  69.467  1.00  0.00    -0.092 C  
ATOM      7  O   CYS A   1      -9.746   3.858  67.472  1.00  0.00    -0.187 OA 
ATOM      8  C   CYS A   1      -9.238   5.011  67.968  1.00  0.00    -0.119 C  
ATOM      9  OXT CYS A   1      -9.019   5.982  67.258  1.00  0.00    -0.111 OA 
BRANCH   6  10
ATOM     10  CB  CYS A   1      -7.439   5.336  69.631  1.00  0.00    -0.065 C  
ATOM     11  SG  CYS A   1      -7.171   6.414  71.080  1.00  0.00    -0.080 SA 
ATOM     12  HG  CYS A   1      -5.831   6.754  71.229  1.00  0.00     0.000 H  
ENDBRANCH   6  10
ENDBRANCH   4   6
TORSDOF 2
ENDMDL
MODEL      203
REMARK 921   NORMALIZED FREE ENERGY PREDICTED BY IDOCK:   -1.21 KCAL/MOL
REMARK 922        TOTAL FREE ENERGY PREDICTED BY IDOCK:   -1.52 KCAL/MOL
REMARK 923 INTER-LIGAND FREE ENERGY PREDICTED BY IDOCK:   -1.40 KCAL/MOL
REMARK 924 INTRA-LIGAND FREE ENERGY PREDICTED BY IDOCK:   -0.12 KCAL/MOL
REMARK 927      BINDING AFFINITY PREDICTED BY RF-SCORE:    0.00 PKD
ROOT
HETATM    1  C   UNK A   0     -10.814   9.442  70.411  1.00  0.00    -0.321 C  
HETATM    2  C   UNK A   0      -9.848   8.294  70.513  1.00  0.00    -0.183 C  
HETATM    3  O   UNK A   0      -9.792   7.397  69.682  1.00  0.00    -0.172 OA 
ATOM      4  N   CYS A   1      -9.114   8.272  71.682  1.00  0.00    -0.166 N  
ATOM      5  H   CYS A   1      -9.307   8.952  72.417  1.00  0.00     0.000 HD 
ENDROOT
BRANCH   4   6
ATOM      6  CA  CYS A   1      -8.048   7.263  71.869  1.00  0.00    -0.099 C  
ATOM      7  O   CYS A   1      -8.439   7.851  74.190  1.00  0.00    -0.237 OA 
ATOM      8  C   CYS A   1      -7.705   7.080  73.353  1.00  0.00    -0.085 C  
ATOM      9  OXT CYS A   1      -6.819   6.343  73.760  1.00  0.00    -0.077 OA 
BRANCH   6  10
ATOM     10  CB  CYS A   1      -6.752   7.645  71.144  1.00  0.00    -0.045 C  
ATOM     11  SG  CYS A   1      -6.404   9.433  71.277  1.00  0.00    -0.011 SA 
ATOM     12  HG  CYS A   1      -5.230   9.780  70.619  1.00  0.00     0.000 H  
ENDBRANCH   6  10
ENDBRANCH   4   6
TORSDOF 2
ENDMDL
MODEL      204
REMARK 921   NORMALIZED FREE ENERGY PREDICTED BY IDOCK:   -1.21 KCAL/MOL
REMARK 922        TOTAL FREE ENERGY PREDICTED BY IDOCK:   -1.52 KCAL/MOL
REMARK 923 INTER-LIGAND FREE ENERGY PREDICTED BY IDOCK:   -1.33 KCAL/MOL
REMARK 924 INTRA-LIGAND FREE ENERGY PREDICTED BY IDOCK:   -0.19 KCAL/MOL
REMARK 927      BINDING AFFINITY PREDICTED BY RF-SCORE:    0.00 PKD
ROOT
HETATM    1  C   UNK A   0      -8.321   8.666  70.059  1.00  0.00    -0.124 C  
HETATM    2  C   UNK A   0      -8.291   8.703  68.557  1.00  0.00    -0.123 C  
HETATM    3  O   UNK A   0      -8.850   7.867  67.860  1.00  0.00    -0.124 OA 
ATOM      4  N   CYS A   1      -7.480   9.688  68.029  1.00  0.00    -0.082 N  
ATOM      5  H   CYS A   1      -6.908  10.263  68.648  1.00  0.00     0.000 HD 
ENDROOT
BRANCH   4   6
ATOM      6  CA  CYS A   1      -7.440   9.911  66.566  1.00  0.00    -0.100 C  
ATOM      7  O   CYS A   1      -5.149  10.490  67.111  1.00  0.00    -0.039 OA 
ATOM      8  C   CYS A   1      -6.054  10.384  66.110  1.00  0.00    -0.096 C  
ATOM      9  OXT CYS A   1      -5.786  10.688  64.957  1.00  0.00    -0.139 OA 
BRANCH   6  10
ATOM     10  CB  CYS A   1      -8.457  10.966  66.112  1.00  0.00    -0.171 C  
ATOM     11  SG  CYS A   1      -9.811  10.225  65.136  1.00  0.00    -0.327 SA 
ATOM     12  HG  CYS A   1     -10.732  11.181  64.724  1.00  0.00     0.000 H  
ENDBRANCH   6  10
ENDBRANCH   4   6
TORSDOF 2
ENDMDL
MODEL      205
REMARK 921   NORMALIZED FREE ENERGY PREDICTED BY IDOCK:   -1.20 KCAL/MOL
REMARK 922        TOTAL FREE ENERGY PREDICTED BY IDOCK:   -1.50 KCAL/MOL
REMARK 923 INTER-LIGAND FREE ENERGY PREDICTED BY IDOCK:   -1.33 KCAL/MOL
REMARK 924 INTRA-LIGAND FREE ENERGY PREDICTED BY IDOCK:   -0.18 KCAL/MOL
REMARK 927      BINDING AFFINITY PREDICTED BY RF-SCORE:    0.00 PKD
ROOT
HETATM    1  C   UNK A   0      -8.965   2.708  66.116  1.00  0.00    -0.139 C  
HETATM    2  C   UNK A   0      -9.485   4.095  65.859  1.00  0.00    -0.178 C  
HETATM    3  O   UNK A   0     -10.527   4.312  65.255  1.00  0.00    -0.249 OA 
ATOM      4  N   CYS A   1      -8.629   5.104  66.253  1.00  0.00    -0.113 N  
ATOM      5  H   CYS A   1      -7.701   4.875  66.608  1.00  0.00     0.000 HD 
ENDROOT
BRANCH   4   6
ATOM      6  CA  CYS A   1      -9.058   6.518  66.161  1.00  0.00    -0.124 C  
ATOM      7  O   CYS A   1      -6.655   6.834  66.074  1.00  0.00    -0.048 OA 
ATOM      8  C   CYS A   1      -7.853   7.463  66.069  1.00  0.00    -0.102 C  
ATOM      9  OXT CYS A   1      -7.947   8.681  66.038  1.00  0.00    -0.101 OA 
BRANCH   6  10
ATOM     10  CB  CYS A   1      -9.890   6.953  67.374  1.00  0.00    -0.144 C  
ATOM     11  SG  CYS A   1      -9.158   6.364  68.941  1.00  0.00    -0.128 SA 
ATOM     12  HG  CYS A   1      -9.912   6.758  70.040  1.00  0.00     0.000 H  
ENDBRANCH   6  10
ENDBRANCH   4   6
TORSDOF 2
ENDMDL
MODEL      206
REMARK 921   NORMALIZED FREE ENERGY PREDICTED BY IDOCK:   -1.20 KCAL/MOL
REMARK 922        TOTAL FREE ENERGY PREDICTED BY IDOCK:   -1.50 KCAL/MOL
REMARK 923 INTER-LIGAND FREE ENERGY PREDICTED BY IDOCK:   -2.44 KCAL/MOL
REMARK 924 INTRA-LIGAND FREE ENERGY PREDICTED BY IDOCK:    0.94 KCAL/MOL
REMARK 927      BINDING AFFINITY PREDICTED BY RF-SCORE:    0.00 PKD
ROOT
HETATM    1  C   UNK A   0      -9.291  10.393  69.106  1.00  0.00    -0.211 C  
HETATM    2  C   UNK A   0      -9.720   9.225  69.951  1.00  0.00    -0.201 C  
HETATM    3  O   UNK A   0      -9.215   8.970  71.036  1.00  0.00    -0.226 OA 
ATOM      4  N   CYS A   1     -10.644   8.397  69.348  1.00  0.00    -0.276 N  
ATOM      5  H   CYS A   1     -10.920   8.561  68.379  1.00  0.00     0.000 HD 
ENDROOT
BRANCH   4   6
ATOM      6  CA  CYS A   1     -11.236   7.271  70.104  1.00  0.00    -0.239 C  
ATOM      7  O   CYS A   1     -12.513   9.097  71.062  1.00  0.00    -0.274 OA 
ATOM      8  C   CYS A   1     -12.308   7.759  71.087  1.00  0.00    -0.247 C  
ATOM      9  OXT CYS A   1     -12.903   7.025  71.863  1.00  0.00    -0.324 OA 
BRANCH   6  10
ATOM     10  CB  CYS A   1     -10.187   6.502  70.917  1.00  0.00    -0.190 C  
ATOM     11  SG  CYS A   1      -9.841   4.861  70.194  1.00  0.00    -0.256 SA 
ATOM     12  HG  CYS A   1      -8.890   4.164  70.931  1.00  0.00     0.000 H  
ENDBRANCH   6  10
ENDBRANCH   4   6
TORSDOF 2
ENDMDL
MODEL      207
REMARK 921   NORMALIZED FREE ENERGY PREDICTED BY IDOCK:   -1.18 KCAL/MOL
REMARK 922        TOTAL FREE ENERGY PREDICTED BY IDOCK:   -1.48 KCAL/MOL
REMARK 923 INTER-LIGAND FREE ENERGY PREDICTED BY IDOCK:   -1.31 KCAL/MOL
REMARK 924 INTRA-LIGAND FREE ENERGY PREDICTED BY IDOCK:   -0.17 KCAL/MOL
REMARK 927      BINDING AFFINITY PREDICTED BY RF-SCORE:    0.00 PKD
ROOT
HETATM    1  C   UNK A   0     -10.539  10.066  67.759  1.00  0.00    -0.311 C  
HETATM    2  C   UNK A   0      -9.062  10.264  67.561  1.00  0.00    -0.137 C  
HETATM    3  O   UNK A   0      -8.324   9.381  67.146  1.00  0.00    -0.122 OA 
ATOM      4  N   CYS A   1      -8.589  11.484  68.001  1.00  0.00    -0.143 N  
ATOM      5  H   CYS A   1      -9.214  12.128  68.486  1.00  0.00     0.000 HD 
ENDROOT
BRANCH   4   6
ATOM      6  CA  CYS A   1      -7.176  11.858  67.770  1.00  0.00    -0.104 C  
ATOM      7  O   CYS A   1      -7.026  11.195  70.099  1.00  0.00    -0.131 OA 
ATOM      8  C   CYS A   1      -6.333  11.672  69.038  1.00  0.00    -0.072 C  
ATOM      9  OXT CYS A   1      -5.148  11.964  69.116  1.00  0.00    -0.052 OA 
BRANCH   6  10
ATOM     10  CB  CYS A   1      -7.027  13.321  67.333  1.00  0.00    -0.092 C  
ATOM     11  SG  CYS A   1      -7.799  14.466  68.528  1.00  0.00    -0.142 SA 
ATOM     12  HG  CYS A   1      -7.664  15.792  68.131  1.00  0.00     0.000 H  
ENDBRANCH   6  10
ENDBRANCH   4   6
TORSDOF 2
ENDMDL
MODEL      208
REMARK 921   NORMALIZED FREE ENERGY PREDICTED BY IDOCK:   -1.15 KCAL/MOL
REMARK 922        TOTAL FREE ENERGY PREDICTED BY IDOCK:   -1.45 KCAL/MOL
REMARK 923 INTER-LIGAND FREE ENERGY PREDICTED BY IDOCK:   -1.29 KCAL/MOL
REMARK 924 INTRA-LIGAND FREE ENERGY PREDICTED BY IDOCK:   -0.16 KCAL/MOL
REMARK 927      BINDING AFFINITY PREDICTED BY RF-SCORE:    0.00 PKD
ROOT
HETATM    1  C   UNK A   0      -7.751   7.300  68.546  1.00  0.00    -0.120 C  
HETATM    2  C   UNK A   0      -8.796   6.220  68.536  1.00  0.00    -0.114 C  
HETATM    3  O   UNK A   0      -9.751   6.213  69.301  1.00  0.00    -0.134 OA 
ATOM      4  N   CYS A   1      -8.524   5.174  67.678  1.00  0.00    -0.105 N  
ATOM      5  H   CYS A   1      -7.636   5.145  67.175  1.00  0.00     0.000 HD 
ENDROOT
BRANCH   4   6
ATOM      6  CA  CYS A   1      -9.518   4.094  67.485  1.00  0.00    -0.184 C  
ATOM      7  O   CYS A   1      -8.016   2.969  69.020  1.00  0.00    -0.055 OA 
ATOM      8  C   CYS A   1      -9.148   2.843  68.291  1.00  0.00    -0.171 C  
ATOM      9  OXT CYS A   1      -9.784   1.799  68.254  1.00  0.00    -0.177 OA 
BRANCH   6  10
ATOM     10  CB  CYS A   1      -9.640   3.673  66.015  1.00  0.00    -0.133 C  
ATOM     11  SG  CYS A   1      -8.047   3.826  65.134  1.00  0.00    -0.097 SA 
ATOM     12  HG  CYS A   1      -8.158   3.444  63.802  1.00  0.00     0.000 H  
ENDBRANCH   6  10
ENDBRANCH   4   6
TORSDOF 2
ENDMDL
MODEL      209
REMARK 921   NORMALIZED FREE ENERGY PREDICTED BY IDOCK:   -1.13 KCAL/MOL
REMARK 922        TOTAL FREE ENERGY PREDICTED BY IDOCK:   -1.43 KCAL/MOL
REMARK 923 INTER-LIGAND FREE ENERGY PREDICTED BY IDOCK:   -2.40 KCAL/MOL
REMARK 924 INTRA-LIGAND FREE ENERGY PREDICTED BY IDOCK:    0.98 KCAL/MOL
REMARK 927      BINDING AFFINITY PREDICTED BY RF-SCORE:    0.00 PKD
ROOT
HETATM    1  C   UNK A   0     -10.098  10.163  65.561  1.00  0.00    -0.338 C  
HETATM    2  C   UNK A   0     -10.081  11.319  66.522  1.00  0.00    -0.217 C  
HETATM    3  O   UNK A   0     -10.617  11.277  67.621  1.00  0.00    -0.194 OA 
ATOM      4  N   CYS A   1      -9.518  12.472  66.013  1.00  0.00    -0.390 N  
ATOM      5  H   CYS A   1      -9.226  12.509  65.036  1.00  0.00     0.000 HD 
ENDROOT
BRANCH   4   6
ATOM      6  CA  CYS A   1      -9.336  13.655  66.884  1.00  0.00    -0.257 C  
ATOM      7  O   CYS A   1      -7.132  12.668  67.105  1.00  0.00    -0.129 OA 
ATOM      8  C   CYS A   1      -7.927  13.694  67.488  1.00  0.00    -0.182 C  
ATOM      9  OXT CYS A   1      -7.551  14.544  68.283  1.00  0.00    -0.106 OA 
BRANCH   6  10
ATOM     10  CB  CYS A   1     -10.334  13.678  68.049  1.00  0.00    -0.250 C  
ATOM     11  SG  CYS A   1     -11.387  15.170  68.007  1.00  0.00    -0.341 SA 
ATOM     12  HG  CYS A   1     -12.291  15.191  69.063  1.00  0.00     0.000 H  
ENDBRANCH   6  10
ENDBRANCH   4   6
TORSDOF 2
ENDMDL
MODEL      210
REMARK 921   NORMALIZED FREE ENERGY PREDICTED BY IDOCK:   -1.13 KCAL/MOL
REMARK 922        TOTAL FREE ENERGY PREDICTED BY IDOCK:   -1.43 KCAL/MOL
REMARK 923 INTER-LIGAND FREE ENERGY PREDICTED BY IDOCK:   -1.26 KCAL/MOL
REMARK 924 INTRA-LIGAND FREE ENERGY PREDICTED BY IDOCK:   -0.17 KCAL/MOL
REMARK 927      BINDING AFFINITY PREDICTED BY RF-SCORE:    0.00 PKD
ROOT
HETATM    1  C   UNK A   0     -10.471   6.985  69.823  1.00  0.00    -0.235 C  
HETATM    2  C   UNK A   0      -9.962   5.743  70.500  1.00  0.00    -0.195 C  
HETATM    3  O   UNK A   0     -10.384   4.624  70.240  1.00  0.00    -0.202 OA 
ATOM      4  N   CYS A   1      -9.067   5.980  71.524  1.00  0.00    -0.143 N  
ATOM      5  H   CYS A   1      -8.864   6.938  71.811  1.00  0.00     0.000 HD 
ENDROOT
BRANCH   4   6
ATOM      6  CA  CYS A   1      -8.402   4.847  72.205  1.00  0.00    -0.120 C  
ATOM      7  O   CYS A   1      -8.205   6.520  73.950  1.00  0.00    -0.107 OA 
ATOM      8  C   CYS A   1      -7.921   5.242  73.607  1.00  0.00    -0.109 C  
ATOM      9  OXT CYS A   1      -7.294   4.495  74.346  1.00  0.00    -0.071 OA 
BRANCH   6  10
ATOM     10  CB  CYS A   1      -7.180   4.338  71.428  1.00  0.00    -0.043 C  
ATOM     11  SG  CYS A   1      -5.942   5.656  71.177  1.00  0.00    -0.034 SA 
ATOM     12  HG  CYS A   1      -4.835   5.195  70.473  1.00  0.00     0.000 H  
ENDBRANCH   6  10
ENDBRANCH   4   6
TORSDOF 2
ENDMDL
MODEL      211
REMARK 921   NORMALIZED FREE ENERGY PREDICTED BY IDOCK:   -1.13 KCAL/MOL
REMARK 922        TOTAL FREE ENERGY PREDICTED BY IDOCK:   -1.42 KCAL/MOL
REMARK 923 INTER-LIGAND FREE ENERGY PREDICTED BY IDOCK:   -1.56 KCAL/MOL
REMARK 924 INTRA-LIGAND FREE ENERGY PREDICTED BY IDOCK:    0.14 KCAL/MOL
REMARK 927      BINDING AFFINITY PREDICTED BY RF-SCORE:    0.00 PKD
ROOT
HETATM    1  C   UNK A   0      -9.978  11.070  64.929  1.00  0.00    -0.343 C  
HETATM    2  C   UNK A   0      -9.119  10.166  65.769  1.00  0.00    -0.171 C  
HETATM    3  O   UNK A   0      -8.231   9.468  65.298  1.00  0.00    -0.121 OA 
ATOM      4  N   CYS A   1      -9.493  10.099  67.095  1.00  0.00    -0.156 N  
ATOM      5  H   CYS A   1     -10.338  10.576  67.411  1.00  0.00     0.000 HD 
ENDROOT
BRANCH   4   6
ATOM      6  CA  CYS A   1      -8.671   9.334  68.060  1.00  0.00    -0.125 C  
ATOM      7  O   CYS A   1     -10.009   7.519  67.166  1.00  0.00    -0.179 OA 
ATOM      8  C   CYS A   1      -9.036   7.845  68.049  1.00  0.00    -0.132 C  
ATOM      9  OXT CYS A   1      -8.535   7.017  68.797  1.00  0.00    -0.121 OA 
BRANCH   6  10
ATOM     10  CB  CYS A   1      -8.847   9.838  69.499  1.00  0.00    -0.193 C  
ATOM     11  SG  CYS A   1      -7.240  10.069  70.335  1.00  0.00    -0.020 SA 
ATOM     12  HG  CYS A   1      -7.399  10.525  71.638  1.00  0.00     0.000 H  
ENDBRANCH   6  10
ENDBRANCH   4   6
TORSDOF 2
ENDMDL
MODEL      212
REMARK 921   NORMALIZED FREE ENERGY PREDICTED BY IDOCK:   -1.10 KCAL/MOL
REMARK 922        TOTAL FREE ENERGY PREDICTED BY IDOCK:   -1.39 KCAL/MOL
REMARK 923 INTER-LIGAND FREE ENERGY PREDICTED BY IDOCK:   -1.27 KCAL/MOL
REMARK 924 INTRA-LIGAND FREE ENERGY PREDICTED BY IDOCK:   -0.12 KCAL/MOL
REMARK 927      BINDING AFFINITY PREDICTED BY RF-SCORE:    0.00 PKD
ROOT
HETATM    1  C   UNK A   0      -7.441   3.327  70.332  1.00  0.00    -0.040 C  
HETATM    2  C   UNK A   0      -8.552   4.170  70.892  1.00  0.00    -0.076 C  
HETATM    3  O   UNK A   0      -9.734   3.875  70.774  1.00  0.00    -0.181 OA 
ATOM      4  N   CYS A   1      -8.136   5.365  71.444  1.00  0.00    -0.114 N  
ATOM      5  H   CYS A   1      -7.156   5.641  71.379  1.00  0.00     0.000 HD 
ENDROOT
BRANCH   4   6
ATOM      6  CA  CYS A   1      -9.108   6.244  72.131  1.00  0.00    -0.141 C  
ATOM      7  O   CYS A   1      -8.106   7.867  70.633  1.00  0.00    -0.098 OA 
ATOM      8  C   CYS A   1      -9.024   7.684  71.611  1.00  0.00    -0.127 C  
ATOM      9  OXT CYS A   1      -9.688   8.608  72.059  1.00  0.00    -0.276 OA 
BRANCH   6  10
ATOM     10  CB  CYS A   1      -8.880   6.291  73.647  1.00  0.00    -0.124 C  
ATOM     11  SG  CYS A   1      -7.369   5.386  74.131  1.00  0.00    -0.090 SA 
ATOM     12  HG  CYS A   1      -7.162   5.429  75.505  1.00  0.00     0.000 H  
ENDBRANCH   6  10
ENDBRANCH   4   6
TORSDOF 2
ENDMDL
MODEL      213
REMARK 921   NORMALIZED FREE ENERGY PREDICTED BY IDOCK:   -1.05 KCAL/MOL
REMARK 922        TOTAL FREE ENERGY PREDICTED BY IDOCK:   -1.33 KCAL/MOL
REMARK 923 INTER-LIGAND FREE ENERGY PREDICTED BY IDOCK:   -1.18 KCAL/MOL
REMARK 924 INTRA-LIGAND FREE ENERGY PREDICTED BY IDOCK:   -0.16 KCAL/MOL
REMARK 927      BINDING AFFINITY PREDICTED BY RF-SCORE:    0.00 PKD
ROOT
HETATM    1  C   UNK A   0      -9.732  10.831  67.502  1.00  0.00    -0.188 C  
HETATM    2  C   UNK A   0      -9.070   9.646  66.855  1.00  0.00    -0.138 C  
HETATM    3  O   UNK A   0      -8.976   9.518  65.642  1.00  0.00    -0.158 OA 
ATOM      4  N   CYS A   1      -8.688   8.657  67.738  1.00  0.00    -0.136 N  
ATOM      5  H   CYS A   1      -8.929   8.735  68.727  1.00  0.00     0.000 HD 
ENDROOT
BRANCH   4   6
ATOM      6  CA  CYS A   1      -7.927   7.483  67.254  1.00  0.00    -0.118 C  
ATOM      7  O   CYS A   1      -9.423   6.365  68.802  1.00  0.00    -0.128 OA 
ATOM      8  C   CYS A   1      -8.407   6.190  67.925  1.00  0.00    -0.117 C  
ATOM      9  OXT CYS A   1      -7.898   5.095  67.731  1.00  0.00    -0.090 OA 
BRANCH   6  10
ATOM     10  CB  CYS A   1      -6.423   7.611  67.529  1.00  0.00    -0.058 C  
ATOM     11  SG  CYS A   1      -6.083   8.769  68.901  1.00  0.00    -0.045 SA 
ATOM     12  HG  CYS A   1      -4.721   8.885  69.150  1.00  0.00     0.000 H  
ENDBRANCH   6  10
ENDBRANCH   4   6
TORSDOF 2
ENDMDL
MODEL      214
REMARK 921   NORMALIZED FREE ENERGY PREDICTED BY IDOCK:   -1.04 KCAL/MOL
REMARK 922        TOTAL FREE ENERGY PREDICTED BY IDOCK:   -1.32 KCAL/MOL
REMARK 923 INTER-LIGAND FREE ENERGY PREDICTED BY IDOCK:   -1.37 KCAL/MOL
REMARK 924 INTRA-LIGAND FREE ENERGY PREDICTED BY IDOCK:    0.05 KCAL/MOL
REMARK 927      BINDING AFFINITY PREDICTED BY RF-SCORE:    0.00 PKD
ROOT
HETATM    1  C   UNK A   0      -7.021  11.259  69.283  1.00  0.00    -0.119 C  
HETATM    2  C   UNK A   0      -7.331   9.828  69.623  1.00  0.00    -0.103 C  
HETATM    3  O   UNK A   0      -6.463   8.986  69.805  1.00  0.00    -0.037 OA 
ATOM      4  N   CYS A   1      -8.675   9.516  69.595  1.00  0.00    -0.165 N  
ATOM      5  H   CYS A   1      -9.354  10.212  69.283  1.00  0.00     0.000 HD 
ENDROOT
BRANCH   4   6
ATOM      6  CA  CYS A   1      -9.134   8.173  70.015  1.00  0.00    -0.151 C  
ATOM      7  O   CYS A   1     -11.256   9.100  69.294  1.00  0.00    -0.050 OA 
ATOM      8  C   CYS A   1     -10.647   8.011  69.818  1.00  0.00    -0.238 C  
ATOM      9  OXT CYS A   1     -11.271   7.011  70.142  1.00  0.00    -0.273 OA 
BRANCH   6  10
ATOM     10  CB  CYS A   1      -8.833   7.893  71.493  1.00  0.00    -0.132 C  
ATOM     11  SG  CYS A   1      -7.897   6.340  71.710  1.00  0.00    -0.102 SA 
ATOM     12  HG  CYS A   1      -7.624   6.086  73.050  1.00  0.00     0.000 H  
ENDBRANCH   6  10
ENDBRANCH   4   6
TORSDOF 2
ENDMDL
MODEL      215
REMARK 921   NORMALIZED FREE ENERGY PREDICTED BY IDOCK:   -0.95 KCAL/MOL
REMARK 922        TOTAL FREE ENERGY PREDICTED BY IDOCK:   -1.22 KCAL/MOL
REMARK 923 INTER-LIGAND FREE ENERGY PREDICTED BY IDOCK:   -2.13 KCAL/MOL
REMARK 924 INTRA-LIGAND FREE ENERGY PREDICTED BY IDOCK:    0.91 KCAL/MOL
REMARK 927      BINDING AFFINITY PREDICTED BY RF-SCORE:    0.00 PKD
ROOT
HETATM    1  C   UNK A   0     -11.141  12.353  64.748  1.00  0.00    -0.345 C  
HETATM    2  C   UNK A   0     -10.363  12.280  66.032  1.00  0.00    -0.245 C  
HETATM    3  O   UNK A   0     -10.213  13.243  66.772  1.00  0.00    -0.247 OA 
ATOM      4  N   CYS A   1      -9.732  11.072  66.246  1.00  0.00    -0.200 N  
ATOM      5  H   CYS A   1      -9.755  10.350  65.525  1.00  0.00     0.000 HD 
ENDROOT
BRANCH   4   6
ATOM      6  CA  CYS A   1      -9.021  10.821  67.520  1.00  0.00    -0.132 C  
ATOM      7  O   CYS A   1     -11.258  10.161  68.186  1.00  0.00    -0.258 OA 
ATOM      8  C   CYS A   1      -9.977  10.302  68.601  1.00  0.00    -0.173 C  
ATOM      9  OXT CYS A   1      -9.640  10.073  69.754  1.00  0.00    -0.222 OA 
BRANCH   6  10
ATOM     10  CB  CYS A   1      -8.352  12.087  68.070  1.00  0.00    -0.162 C  
ATOM     11  SG  CYS A   1      -6.678  12.322  67.379  1.00  0.00    -0.144 SA 
ATOM     12  HG  CYS A   1      -6.072  13.470  67.878  1.00  0.00     0.000 H  
ENDBRANCH   6  10
ENDBRANCH   4   6
TORSDOF 2
ENDMDL
MODEL      216
REMARK 921   NORMALIZED FREE ENERGY PREDICTED BY IDOCK:   -0.94 KCAL/MOL
REMARK 922        TOTAL FREE ENERGY PREDICTED BY IDOCK:   -1.21 KCAL/MOL
REMARK 923 INTER-LIGAND FREE ENERGY PREDICTED BY IDOCK:   -2.21 KCAL/MOL
REMARK 924 INTRA-LIGAND FREE ENERGY PREDICTED BY IDOCK:    1.00 KCAL/MOL
REMARK 927      BINDING AFFINITY PREDICTED BY RF-SCORE:    0.00 PKD
ROOT
HETATM    1  C   UNK A   0      -7.051  17.943  65.919  1.00  0.00    -0.298 C  
HETATM    2  C   UNK A   0      -7.832  16.948  66.731  1.00  0.00    -0.244 C  
HETATM    3  O   UNK A   0      -8.726  17.274  67.500  1.00  0.00    -0.207 OA 
ATOM      4  N   CYS A   1      -7.376  15.649  66.629  1.00  0.00    -0.115 N  
ATOM      5  H   CYS A   1      -6.528  15.447  66.099  1.00  0.00     0.000 HD 
ENDROOT
BRANCH   4   6
ATOM      6  CA  CYS A   1      -8.115  14.549  67.287  1.00  0.00    -0.196 C  
ATOM      7  O   CYS A   1      -9.672  15.046  65.495  1.00  0.00    -0.337 OA 
ATOM      8  C   CYS A   1      -9.444  14.264  66.576  1.00  0.00    -0.287 C  
ATOM      9  OXT CYS A   1     -10.257  13.437  66.962  1.00  0.00    -0.244 OA 
BRANCH   6  10
ATOM     10  CB  CYS A   1      -8.440  14.864  68.754  1.00  0.00    -0.172 C  
ATOM     11  SG  CYS A   1      -6.961  14.736  69.817  1.00  0.00    -0.115 SA 
ATOM     12  HG  CYS A   1      -7.256  15.021  71.145  1.00  0.00     0.000 H  
ENDBRANCH   6  10
ENDBRANCH   4   6
TORSDOF 2
ENDMDL
MODEL      217
REMARK 921   NORMALIZED FREE ENERGY PREDICTED BY IDOCK:   -0.78 KCAL/MOL
REMARK 922        TOTAL FREE ENERGY PREDICTED BY IDOCK:   -1.03 KCAL/MOL
REMARK 923 INTER-LIGAND FREE ENERGY PREDICTED BY IDOCK:   -1.96 KCAL/MOL
REMARK 924 INTRA-LIGAND FREE ENERGY PREDICTED BY IDOCK:    0.93 KCAL/MOL
REMARK 927      BINDING AFFINITY PREDICTED BY RF-SCORE:    0.00 PKD
ROOT
HETATM    1  C   UNK A   0     -10.526   8.075  67.075  1.00  0.00    -0.410 C  
HETATM    2  C   UNK A   0      -9.753   7.849  68.344  1.00  0.00    -0.160 C  
HETATM    3  O   UNK A   0      -8.849   7.029  68.435  1.00  0.00    -0.125 OA 
ATOM      4  N   CYS A   1     -10.227   8.556  69.431  1.00  0.00    -0.206 N  
ATOM      5  H   CYS A   1     -11.081   9.108  69.346  1.00  0.00     0.000 HD 
ENDROOT
BRANCH   4   6
ATOM      6  CA  CYS A   1      -9.498   8.516  70.718  1.00  0.00    -0.178 C  
ATOM      7  O   CYS A   1      -8.094  10.093  69.525  1.00  0.00    -0.144 OA 
ATOM      8  C   CYS A   1      -8.265   9.428  70.692  1.00  0.00    -0.168 C  
ATOM      9  OXT CYS A   1      -7.471   9.524  71.616  1.00  0.00    -0.272 OA 
BRANCH   6  10
ATOM     10  CB  CYS A   1      -9.014   7.102  71.066  1.00  0.00    -0.150 C  
ATOM     11  SG  CYS A   1      -9.643   6.553  72.690  1.00  0.00    -0.149 SA 
ATOM     12  HG  CYS A   1      -9.204   5.272  73.006  1.00  0.00     0.000 H  
ENDBRANCH   6  10
ENDBRANCH   4   6
TORSDOF 2
ENDMDL
MODEL      218
REMARK 921   NORMALIZED FREE ENERGY PREDICTED BY IDOCK:   -0.64 KCAL/MOL
REMARK 922        TOTAL FREE ENERGY PREDICTED BY IDOCK:   -0.88 KCAL/MOL
REMARK 923 INTER-LIGAND FREE ENERGY PREDICTED BY IDOCK:   -1.80 KCAL/MOL
REMARK 924 INTRA-LIGAND FREE ENERGY PREDICTED BY IDOCK:    0.92 KCAL/MOL
REMARK 927      BINDING AFFINITY PREDICTED BY RF-SCORE:    0.00 PKD
ROOT
HETATM    1  C   UNK A   0     -11.514  10.636  69.370  1.00  0.00    -0.356 C  
HETATM    2  C   UNK A   0     -10.121  10.196  69.017  1.00  0.00    -0.205 C  
HETATM    3  O   UNK A   0      -9.841   9.039  68.736  1.00  0.00    -0.163 OA 
ATOM      4  N   CYS A   1      -9.163  11.181  69.155  1.00  0.00    -0.398 N  
ATOM      5  H   CYS A   1      -9.418  12.088  69.545  1.00  0.00     0.000 HD 
ENDROOT
BRANCH   4   6
ATOM      6  CA  CYS A   1      -7.767  10.921  68.738  1.00  0.00    -0.129 C  
ATOM      7  O   CYS A   1      -8.748  11.353  66.562  1.00  0.00    -0.172 OA 
ATOM      8  C   CYS A   1      -7.608  11.030  67.217  1.00  0.00    -0.111 C  
ATOM      9  OXT CYS A   1      -6.561  10.806  66.625  1.00  0.00    -0.094 OA 
BRANCH   6  10
ATOM     10  CB  CYS A   1      -7.289   9.522  69.148  1.00  0.00    -0.072 C  
ATOM     11  SG  CYS A   1      -6.317   9.565  70.693  1.00  0.00    -0.096 SA 
ATOM     12  HG  CYS A   1      -5.884   8.297  71.065  1.00  0.00     0.000 H  
ENDBRANCH   6  10
ENDBRANCH   4   6
TORSDOF 2
ENDMDL
MODEL      219
REMARK 921   NORMALIZED FREE ENERGY PREDICTED BY IDOCK:   -0.62 KCAL/MOL
REMARK 922        TOTAL FREE ENERGY PREDICTED BY IDOCK:   -0.85 KCAL/MOL
REMARK 923 INTER-LIGAND FREE ENERGY PREDICTED BY IDOCK:   -3.05 KCAL/MOL
REMARK 924 INTRA-LIGAND FREE ENERGY PREDICTED BY IDOCK:    2.20 KCAL/MOL
REMARK 927      BINDING AFFINITY PREDICTED BY RF-SCORE:    0.00 PKD
ROOT
HETATM    1  C   UNK A   0      -8.992  19.246  68.651  1.00  0.00    -0.419 C  
HETATM    2  C   UNK A   0      -9.136  17.876  68.048  1.00  0.00    -0.267 C  
HETATM    3  O   UNK A   0      -8.339  16.972  68.258  1.00  0.00    -0.212 OA 
ATOM      4  N   CYS A   1     -10.172  17.760  67.144  1.00  0.00    -0.339 N  
ATOM      5  H   CYS A   1     -10.713  18.583  66.880  1.00  0.00     0.000 HD 
ENDROOT
BRANCH   4   6
ATOM      6  CA  CYS A   1     -10.499  16.441  66.556  1.00  0.00    -0.282 C  
ATOM      7  O   CYS A   1     -11.631  16.207  68.688  1.00  0.00    -0.376 OA 
ATOM      8  C   CYS A   1     -11.341  15.593  67.517  1.00  0.00    -0.198 C  
ATOM      9  OXT CYS A   1     -11.691  14.446  67.282  1.00  0.00    -0.370 OA 
BRANCH   6  10
ATOM     10  CB  CYS A   1      -9.242  15.631  66.213  1.00  0.00    -0.330 C  
ATOM     11  SG  CYS A   1      -9.231  14.011  67.055  1.00  0.00    -0.262 SA 
ATOM     12  HG  CYS A   1      -8.092  13.277  66.744  1.00  0.00     0.000 H  
ENDBRANCH   6  10
ENDBRANCH   4   6
TORSDOF 2
ENDMDL
MODEL      220
REMARK 921   NORMALIZED FREE ENERGY PREDICTED BY IDOCK:   -0.60 KCAL/MOL
REMARK 922        TOTAL FREE ENERGY PREDICTED BY IDOCK:   -0.84 KCAL/MOL
REMARK 923 INTER-LIGAND FREE ENERGY PREDICTED BY IDOCK:   -1.79 KCAL/MOL
REMARK 924 INTRA-LIGAND FREE ENERGY PREDICTED BY IDOCK:    0.96 KCAL/MOL
REMARK 927      BINDING AFFINITY PREDICTED BY RF-SCORE:    0.00 PKD
ROOT
HETATM    1  C   UNK A   0      -8.223   5.847  64.399  1.00  0.00    -0.099 C  
HETATM    2  C   UNK A   0      -8.556   6.217  65.817  1.00  0.00    -0.150 C  
HETATM    3  O   UNK A   0      -8.071   5.646  66.784  1.00  0.00    -0.101 OA 
ATOM      4  N   CYS A   1      -9.545   7.173  65.937  1.00  0.00    -0.388 N  
ATOM      5  H   CYS A   1     -10.033   7.508  65.106  1.00  0.00     0.000 HD 
ENDROOT
BRANCH   4   6
ATOM      6  CA  CYS A   1      -9.897   7.713  67.269  1.00  0.00    -0.186 C  
ATOM      7  O   CYS A   1      -8.207   9.330  66.630  1.00  0.00    -0.113 OA 
ATOM      8  C   CYS A   1      -9.071   8.960  67.604  1.00  0.00    -0.134 C  
ATOM      9  OXT CYS A   1      -9.141   9.556  68.670  1.00  0.00    -0.130 OA 
BRANCH   6  10
ATOM     10  CB  CYS A   1      -9.660   6.692  68.390  1.00  0.00    -0.123 C  
ATOM     11  SG  CYS A   1     -11.091   6.584  69.520  1.00  0.00    -0.370 SA 
ATOM     12  HG  CYS A   1     -10.876   5.659  70.536  1.00  0.00     0.000 H  
ENDBRANCH   6  10
ENDBRANCH   4   6
TORSDOF 2
ENDMDL
MODEL      221
REMARK 921   NORMALIZED FREE ENERGY PREDICTED BY IDOCK:   -0.59 KCAL/MOL
REMARK 922        TOTAL FREE ENERGY PREDICTED BY IDOCK:   -0.82 KCAL/MOL
REMARK 923 INTER-LIGAND FREE ENERGY PREDICTED BY IDOCK:   -1.10 KCAL/MOL
REMARK 924 INTRA-LIGAND FREE ENERGY PREDICTED BY IDOCK:    0.29 KCAL/MOL
REMARK 927      BINDING AFFINITY PREDICTED BY RF-SCORE:    0.00 PKD
ROOT
HETATM    1  C   UNK A   0      -7.987  10.495  65.902  1.00  0.00    -0.154 C  
HETATM    2  C   UNK A   0      -7.311   9.583  66.888  1.00  0.00    -0.087 C  
HETATM    3  O   UNK A   0      -6.133   9.264  66.798  1.00  0.00    -0.061 OA 
ATOM      4  N   CYS A   1      -8.159   9.038  67.831  1.00  0.00    -0.105 N  
ATOM      5  H   CYS A   1      -9.163   9.207  67.771  1.00  0.00     0.000 HD 
ENDROOT
BRANCH   4   6
ATOM      6  CA  CYS A   1      -7.613   8.209  68.929  1.00  0.00    -0.098 C  
ATOM      7  O   CYS A   1      -8.301   6.443  67.415  1.00  0.00    -0.112 OA 
ATOM      8  C   CYS A   1      -7.740   6.712  68.616  1.00  0.00    -0.109 C  
ATOM      9  OXT CYS A   1      -7.410   5.826  69.392  1.00  0.00    -0.068 OA 
BRANCH   6  10
ATOM     10  CB  CYS A   1      -8.332   8.461  70.260  1.00  0.00    -0.124 C  
ATOM     11  SG  CYS A   1      -9.796   7.386  70.452  1.00  0.00    -0.183 SA 
ATOM     12  HG  CYS A   1     -10.448   7.615  71.658  1.00  0.00     0.000 H  
ENDBRANCH   6  10
ENDBRANCH   4   6
TORSDOF 2
ENDMDL
MODEL      222
REMARK 921   NORMALIZED FREE ENERGY PREDICTED BY IDOCK:    0.31 KCAL/MOL
REMARK 922        TOTAL FREE ENERGY PREDICTED BY IDOCK:    0.18 KCAL/MOL
REMARK 923 INTER-LIGAND FREE ENERGY PREDICTED BY IDOCK:   -2.57 KCAL/MOL
REMARK 924 INTRA-LIGAND FREE ENERGY PREDICTED BY IDOCK:    2.76 KCAL/MOL
REMARK 927      BINDING AFFINITY PREDICTED BY RF-SCORE:    0.00 PKD
ROOT
HETATM    1  C   UNK A   0     -11.712  11.913  69.602  1.00  0.00    -0.413 C  
HETATM    2  C   UNK A   0     -11.949  10.548  70.187  1.00  0.00    -0.316 C  
HETATM    3  O   UNK A   0     -12.940  10.272  70.849  1.00  0.00    -0.367 OA 
ATOM      4  N   CYS A   1     -10.899   9.668  70.018  1.00  0.00    -0.248 N  
ATOM      5  H   CYS A   1     -10.027   9.990  69.598  1.00  0.00     0.000 HD 
ENDROOT
BRANCH   4   6
ATOM      6  CA  CYS A   1     -11.037   8.258  70.447  1.00  0.00    -0.235 C  
ATOM      7  O   CYS A   1     -11.856   9.355  72.449  1.00  0.00    -0.115 OA 
ATOM      8  C   CYS A   1     -11.590   8.159  71.874  1.00  0.00    -0.306 C  
ATOM      9  OXT CYS A   1     -11.743   7.103  72.471  1.00  0.00    -0.257 OA 
BRANCH   6  10
ATOM     10  CB  CYS A   1      -9.697   7.510  70.423  1.00  0.00    -0.179 C  
ATOM     11  SG  CYS A   1      -8.280   8.659  70.503  1.00  0.00    -0.137 SA 
ATOM     12  HG  CYS A   1      -7.066   7.982  70.481  1.00  0.00     0.000 H  
ENDBRANCH   6  10
ENDBRANCH   4   6
TORSDOF 2
ENDMDL
MODEL      223
REMARK 921   NORMALIZED FREE ENERGY PREDICTED BY IDOCK:    0.41 KCAL/MOL
REMARK 922        TOTAL FREE ENERGY PREDICTED BY IDOCK:    0.30 KCAL/MOL
REMARK 923 INTER-LIGAND FREE ENERGY PREDICTED BY IDOCK:   -1.51 KCAL/MOL
REMARK 924 INTRA-LIGAND FREE ENERGY PREDICTED BY IDOCK:    1.81 KCAL/MOL
REMARK 927      BINDING AFFINITY PREDICTED BY RF-SCORE:    0.00 PKD
ROOT
HETATM    1  C   UNK A   0      -8.069  10.501  65.864  1.00  0.00    -0.154 C  
HETATM    2  C   UNK A   0      -8.297   9.345  66.797  1.00  0.00    -0.123 C  
HETATM    3  O   UNK A   0      -7.399   8.594  67.156  1.00  0.00    -0.085 OA 
ATOM      4  N   CYS A   1      -9.621   9.128  67.120  1.00  0.00    -0.156 N  
ATOM      5  H   CYS A   1     -10.352   9.682  66.673  1.00  0.00     0.000 HD 
ENDROOT
BRANCH   4   6
ATOM      6  CA  CYS A   1      -9.982   8.094  68.116  1.00  0.00    -0.186 C  
ATOM      7  O   CYS A   1     -11.114   9.996  69.105  1.00  0.00    -0.225 OA 
ATOM      8  C   CYS A   1     -10.842   8.678  69.243  1.00  0.00    -0.065 C  
ATOM      9  OXT CYS A   1     -11.221   8.035  70.211  1.00  0.00    -0.258 OA 
BRANCH   6  10
ATOM     10  CB  CYS A   1      -8.747   7.457  68.766  1.00  0.00    -0.128 C  
ATOM     11  SG  CYS A   1      -8.438   8.131  70.435  1.00  0.00    -0.132 SA 
ATOM     12  HG  CYS A   1      -7.319   7.554  71.024  1.00  0.00     0.000 H  
ENDBRANCH   6  10
ENDBRANCH   4   6
TORSDOF 2
ENDMDL
MODEL      224
REMARK 921   NORMALIZED FREE ENERGY PREDICTED BY IDOCK:    1.54 KCAL/MOL
REMARK 922        TOTAL FREE ENERGY PREDICTED BY IDOCK:    1.56 KCAL/MOL
REMARK 923 INTER-LIGAND FREE ENERGY PREDICTED BY IDOCK:    0.58 KCAL/MOL
REMARK 924 INTRA-LIGAND FREE ENERGY PREDICTED BY IDOCK:    0.99 KCAL/MOL
REMARK 927      BINDING AFFINITY PREDICTED BY RF-SCORE:    0.00 PKD
ROOT
HETATM    1  C   UNK A   0      -7.754  12.360  65.896  1.00  0.00     1.619 C  
HETATM    2  C   UNK A   0      -7.524  10.996  66.485  1.00  0.00    -0.145 C  
HETATM    3  O   UNK A   0      -6.440  10.636  66.923  1.00  0.00    -0.073 OA 
ATOM      4  N   CYS A   1      -8.603  10.142  66.378  1.00  0.00    -0.129 N  
ATOM      5  H   CYS A   1      -9.434  10.433  65.863  1.00  0.00     0.000 HD 
ENDROOT
BRANCH   4   6
ATOM      6  CA  CYS A   1      -8.557   8.805  67.011  1.00  0.00    -0.116 C  
ATOM      7  O   CYS A   1      -9.763  10.008  68.736  1.00  0.00    -0.159 OA 
ATOM      8  C   CYS A   1      -9.243   8.810  68.382  1.00  0.00    -0.137 C  
ATOM      9  OXT CYS A   1      -9.288   7.839  69.124  1.00  0.00    -0.151 OA 
BRANCH   6  10
ATOM     10  CB  CYS A   1      -7.119   8.311  67.221  1.00  0.00    -0.079 C  
ATOM     11  SG  CYS A   1      -6.649   7.053  65.984  1.00  0.00    -0.053 SA 
ATOM     12  HG  CYS A   1      -5.346   6.606  66.175  1.00  0.00     0.000 H  
ENDBRANCH   6  10
ENDBRANCH   4   6
TORSDOF 2
ENDMDL
