MODEL        1
REMARK 921   NORMALIZED FREE ENERGY PREDICTED BY IDOCK:   -3.74 KCAL/MOL
REMARK 922        TOTAL FREE ENERGY PREDICTED BY IDOCK:   -4.95 KCAL/MOL
REMARK 923 INTER-LIGAND FREE ENERGY PREDICTED BY IDOCK:   -4.62 KCAL/MOL
REMARK 924 INTRA-LIGAND FREE ENERGY PREDICTED BY IDOCK:   -0.34 KCAL/MOL
REMARK 927      BINDING AFFINITY PREDICTED BY RF-SCORE:    0.00 PKD
ROOT
HETATM    1  C   UNL     1     -10.957  11.855  63.602  1.00  0.00    -0.511 C  
HETATM    2  C   UNL     1     -12.143  12.734  63.844  1.00  0.00    -0.486 C  
HETATM    3  O   UNL     1     -12.548  13.605  63.087  1.00  0.00    -0.792 OA 
ENDROOT
BRANCH   2   4
HETATM    4  O   UNL     1     -12.754  12.407  65.019  1.00  0.00    -0.631 OA 
BRANCH   4   5
HETATM    5  C   UNL     1     -11.988  12.716  66.198  1.00  0.00    -0.395 C  
BRANCH   5   6
HETATM    6  C   UNL     1     -12.105  14.208  66.552  1.00  0.00    -0.454 C  
BRANCH   6   7
HETATM    7  N   UNL     1     -10.796  15.014  66.416  1.00  0.00    -0.322 N  
HETATM    8  C   UNL     1      -9.580  14.100  66.341  1.00  0.00    -0.293 C  
HETATM    9  C   UNL     1     -10.661  15.898  67.660  1.00  0.00    -0.312 C  
HETATM   10  C   UNL     1     -10.843  15.925  65.192  1.00  0.00    -0.421 C  
ENDBRANCH   6   7
ENDBRANCH   5   6
ENDBRANCH   4   5
ENDBRANCH   2   4
TORSDOF 4
ENDMDL
MODEL        2
REMARK 921   NORMALIZED FREE ENERGY PREDICTED BY IDOCK:   -3.68 KCAL/MOL
REMARK 922        TOTAL FREE ENERGY PREDICTED BY IDOCK:   -4.88 KCAL/MOL
REMARK 923 INTER-LIGAND FREE ENERGY PREDICTED BY IDOCK:   -4.57 KCAL/MOL
REMARK 924 INTRA-LIGAND FREE ENERGY PREDICTED BY IDOCK:   -0.31 KCAL/MOL
REMARK 927      BINDING AFFINITY PREDICTED BY RF-SCORE:    0.00 PKD
ROOT
HETATM    1  C   UNL     1     -11.026  11.787  63.603  1.00  0.00    -0.513 C  
HETATM    2  C   UNL     1     -12.205  12.692  63.773  1.00  0.00    -0.514 C  
HETATM    3  O   UNL     1     -12.575  13.536  62.969  1.00  0.00    -0.716 OA 
ENDROOT
BRANCH   2   4
HETATM    4  O   UNL     1     -12.854  12.423  64.942  1.00  0.00    -0.711 OA 
BRANCH   4   5
HETATM    5  C   UNL     1     -12.142  12.823  66.128  1.00  0.00    -0.364 C  
BRANCH   5   6
HETATM    6  C   UNL     1     -12.271  14.338  66.359  1.00  0.00    -0.401 C  
BRANCH   6   7
HETATM    7  N   UNL     1     -10.941  15.119  66.309  1.00  0.00    -0.340 N  
HETATM    8  C   UNL     1     -10.879  16.044  65.102  1.00  0.00    -0.395 C  
HETATM    9  C   UNL     1      -9.804  14.097  66.195  1.00  0.00    -0.308 C  
HETATM   10  C   UNL     1     -10.731  15.917  67.593  1.00  0.00    -0.312 C  
ENDBRANCH   6   7
ENDBRANCH   5   6
ENDBRANCH   4   5
ENDBRANCH   2   4
TORSDOF 4
ENDMDL
MODEL        3
REMARK 921   NORMALIZED FREE ENERGY PREDICTED BY IDOCK:   -3.66 KCAL/MOL
REMARK 922        TOTAL FREE ENERGY PREDICTED BY IDOCK:   -4.85 KCAL/MOL
REMARK 923 INTER-LIGAND FREE ENERGY PREDICTED BY IDOCK:   -4.57 KCAL/MOL
REMARK 924 INTRA-LIGAND FREE ENERGY PREDICTED BY IDOCK:   -0.28 KCAL/MOL
REMARK 927      BINDING AFFINITY PREDICTED BY RF-SCORE:    0.00 PKD
ROOT
HETATM    1  C   UNL     1     -11.146  11.837  63.522  1.00  0.00    -0.503 C  
HETATM    2  C   UNL     1     -12.255  12.819  63.740  1.00  0.00    -0.489 C  
HETATM    3  O   UNL     1     -12.604  13.683  62.948  1.00  0.00    -0.621 OA 
ENDROOT
BRANCH   2   4
HETATM    4  O   UNL     1     -12.868  12.595  64.937  1.00  0.00    -0.763 OA 
BRANCH   4   5
HETATM    5  C   UNL     1     -12.012  12.744  66.085  1.00  0.00    -0.414 C  
BRANCH   5   6
HETATM    6  C   UNL     1     -12.080  14.177  66.637  1.00  0.00    -0.451 C  
BRANCH   6   7
HETATM    7  N   UNL     1     -10.732  14.929  66.664  1.00  0.00    -0.306 N  
HETATM    8  C   UNL     1     -10.661  15.911  67.826  1.00  0.00    -0.320 C  
HETATM    9  C   UNL     1     -10.611  15.717  65.356  1.00  0.00    -0.415 C  
HETATM   10  C   UNL     1      -9.565  13.948  66.735  1.00  0.00    -0.283 C  
ENDBRANCH   6   7
ENDBRANCH   5   6
ENDBRANCH   4   5
ENDBRANCH   2   4
TORSDOF 4
ENDMDL
MODEL        4
REMARK 921   NORMALIZED FREE ENERGY PREDICTED BY IDOCK:   -3.60 KCAL/MOL
REMARK 922        TOTAL FREE ENERGY PREDICTED BY IDOCK:   -4.78 KCAL/MOL
REMARK 923 INTER-LIGAND FREE ENERGY PREDICTED BY IDOCK:   -4.60 KCAL/MOL
REMARK 924 INTRA-LIGAND FREE ENERGY PREDICTED BY IDOCK:   -0.18 KCAL/MOL
REMARK 927      BINDING AFFINITY PREDICTED BY RF-SCORE:    0.00 PKD
ROOT
HETATM    1  C   UNL     1     -10.923  12.177  63.466  1.00  0.00    -0.521 C  
HETATM    2  C   UNL     1     -12.376  12.532  63.510  1.00  0.00    -0.525 C  
HETATM    3  O   UNL     1     -13.298  11.737  63.626  1.00  0.00    -0.520 OA 
ENDROOT
BRANCH   2   4
HETATM    4  O   UNL     1     -12.543  13.884  63.446  1.00  0.00    -0.853 OA 
BRANCH   4   5
HETATM    5  C   UNL     1     -12.028  14.604  64.582  1.00  0.00    -0.462 C  
BRANCH   5   6
HETATM    6  C   UNL     1     -12.646  14.081  65.889  1.00  0.00    -0.449 C  
BRANCH   6   7
HETATM    7  N   UNL     1     -11.627  13.720  66.990  1.00  0.00    -0.345 N  
HETATM    8  C   UNL     1     -12.029  14.301  68.339  1.00  0.00    -0.309 C  
HETATM    9  C   UNL     1     -10.274  14.317  66.589  1.00  0.00    -0.272 C  
HETATM   10  C   UNL     1     -11.460  12.206  67.101  1.00  0.00    -0.346 C  
ENDBRANCH   6   7
ENDBRANCH   5   6
ENDBRANCH   4   5
ENDBRANCH   2   4
TORSDOF 4
ENDMDL
MODEL        5
REMARK 921   NORMALIZED FREE ENERGY PREDICTED BY IDOCK:   -3.36 KCAL/MOL
REMARK 922        TOTAL FREE ENERGY PREDICTED BY IDOCK:   -4.48 KCAL/MOL
REMARK 923 INTER-LIGAND FREE ENERGY PREDICTED BY IDOCK:   -4.23 KCAL/MOL
REMARK 924 INTRA-LIGAND FREE ENERGY PREDICTED BY IDOCK:   -0.25 KCAL/MOL
REMARK 927      BINDING AFFINITY PREDICTED BY RF-SCORE:    0.00 PKD
ROOT
HETATM    1  C   UNL     1     -10.282  16.547  66.005  1.00  0.00    -0.372 C  
HETATM    2  C   UNL     1     -10.970  15.936  64.825  1.00  0.00    -0.375 C  
HETATM    3  O   UNL     1     -11.428  16.552  63.872  1.00  0.00    -1.145 OA 
ENDROOT
BRANCH   2   4
HETATM    4  O   UNL     1     -10.983  14.577  64.927  1.00  0.00    -0.373 OA 
BRANCH   4   5
HETATM    5  C   UNL     1     -12.102  14.042  65.658  1.00  0.00    -0.417 C  
BRANCH   5   6
HETATM    6  C   UNL     1     -11.713  12.742  66.381  1.00  0.00    -0.403 C  
BRANCH   6   7
HETATM    7  N   UNL     1     -11.175  12.932  67.815  1.00  0.00    -0.265 N  
HETATM    8  C   UNL     1      -9.660  13.077  67.831  1.00  0.00    -0.215 C  
HETATM    9  C   UNL     1     -11.550  11.684  68.623  1.00  0.00    -0.312 C  
HETATM   10  C   UNL     1     -11.825  14.140  68.484  1.00  0.00    -0.355 C  
ENDBRANCH   6   7
ENDBRANCH   5   6
ENDBRANCH   4   5
ENDBRANCH   2   4
TORSDOF 4
ENDMDL
MODEL        6
REMARK 921   NORMALIZED FREE ENERGY PREDICTED BY IDOCK:   -3.35 KCAL/MOL
REMARK 922        TOTAL FREE ENERGY PREDICTED BY IDOCK:   -4.47 KCAL/MOL
REMARK 923 INTER-LIGAND FREE ENERGY PREDICTED BY IDOCK:   -4.37 KCAL/MOL
REMARK 924 INTRA-LIGAND FREE ENERGY PREDICTED BY IDOCK:   -0.10 KCAL/MOL
REMARK 927      BINDING AFFINITY PREDICTED BY RF-SCORE:    0.00 PKD
ROOT
HETATM    1  C   UNL     1     -10.903  14.404  65.064  1.00  0.00    -0.420 C  
HETATM    2  C   UNL     1     -10.991  15.855  64.710  1.00  0.00    -0.375 C  
HETATM    3  O   UNL     1     -11.831  16.358  63.976  1.00  0.00    -1.003 OA 
ENDROOT
BRANCH   2   4
HETATM    4  O   UNL     1     -10.024  16.567  65.355  1.00  0.00    -0.552 OA 
BRANCH   4   5
HETATM    5  C   UNL     1     -10.497  17.350  66.466  1.00  0.00    -0.264 C  
BRANCH   5   6
HETATM    6  C   UNL     1      -9.321  17.929  67.270  1.00  0.00    -0.258 C  
BRANCH   6   7
HETATM    7  N   UNL     1      -9.373  19.455  67.490  1.00  0.00    -0.305 N  
HETATM    8  C   UNL     1     -10.027  19.810  68.818  1.00  0.00    -0.412 C  
HETATM    9  C   UNL     1     -10.212  20.061  66.359  1.00  0.00    -0.478 C  
HETATM   10  C   UNL     1      -7.974  20.062  67.416  1.00  0.00    -0.305 C  
ENDBRANCH   6   7
ENDBRANCH   5   6
ENDBRANCH   4   5
ENDBRANCH   2   4
TORSDOF 4
ENDMDL
MODEL        7
REMARK 921   NORMALIZED FREE ENERGY PREDICTED BY IDOCK:   -3.30 KCAL/MOL
REMARK 922        TOTAL FREE ENERGY PREDICTED BY IDOCK:   -4.40 KCAL/MOL
REMARK 923 INTER-LIGAND FREE ENERGY PREDICTED BY IDOCK:   -4.18 KCAL/MOL
REMARK 924 INTRA-LIGAND FREE ENERGY PREDICTED BY IDOCK:   -0.23 KCAL/MOL
REMARK 927      BINDING AFFINITY PREDICTED BY RF-SCORE:    0.00 PKD
ROOT
HETATM    1  C   UNL     1     -10.530  18.351  66.097  1.00  0.00    -0.422 C  
HETATM    2  C   UNL     1     -10.554  17.145  65.211  1.00  0.00    -0.043 C  
HETATM    3  O   UNL     1     -11.390  16.913  64.349  1.00  0.00    -1.133 OA 
ENDROOT
BRANCH   2   4
HETATM    4  O   UNL     1      -9.480  16.343  65.462  1.00  0.00    -0.467 OA 
BRANCH   4   5
HETATM    5  C   UNL     1      -9.728  15.291  66.413  1.00  0.00    -0.285 C  
BRANCH   5   6
HETATM    6  C   UNL     1     -10.173  14.003  65.701  1.00  0.00    -0.334 C  
BRANCH   6   7
HETATM    7  N   UNL     1     -11.512  13.416  66.195  1.00  0.00    -0.318 N  
HETATM    8  C   UNL     1     -12.626  13.625  65.179  1.00  0.00    -0.430 C  
HETATM    9  C   UNL     1     -11.892  14.146  67.488  1.00  0.00    -0.401 C  
HETATM   10  C   UNL     1     -11.368  11.931  66.517  1.00  0.00    -0.341 C  
ENDBRANCH   6   7
ENDBRANCH   5   6
ENDBRANCH   4   5
ENDBRANCH   2   4
TORSDOF 4
ENDMDL
MODEL        8
REMARK 921   NORMALIZED FREE ENERGY PREDICTED BY IDOCK:   -3.26 KCAL/MOL
REMARK 922        TOTAL FREE ENERGY PREDICTED BY IDOCK:   -4.36 KCAL/MOL
REMARK 923 INTER-LIGAND FREE ENERGY PREDICTED BY IDOCK:   -4.10 KCAL/MOL
REMARK 924 INTRA-LIGAND FREE ENERGY PREDICTED BY IDOCK:   -0.26 KCAL/MOL
REMARK 927      BINDING AFFINITY PREDICTED BY RF-SCORE:    0.00 PKD
ROOT
HETATM    1  C   UNL     1     -12.170  12.108  63.691  1.00  0.00    -0.663 C  
HETATM    2  C   UNL     1     -12.486  12.770  64.995  1.00  0.00    -0.506 C  
HETATM    3  O   UNL     1     -13.077  13.833  65.127  1.00  0.00    -0.762 OA 
ENDROOT
BRANCH   2   4
HETATM    4  O   UNL     1     -12.063  12.003  66.040  1.00  0.00    -0.561 OA 
BRANCH   4   5
HETATM    5  C   UNL     1     -11.369  12.728  67.072  1.00  0.00    -0.314 C  
BRANCH   5   6
HETATM    6  C   UNL     1      -9.960  13.131  66.608  1.00  0.00    -0.270 C  
BRANCH   6   7
HETATM    7  N   UNL     1      -9.590  14.608  66.858  1.00  0.00    -0.235 N  
HETATM    8  C   UNL     1      -8.108  14.770  67.166  1.00  0.00    -0.197 C  
HETATM    9  C   UNL     1     -10.392  15.090  68.072  1.00  0.00    -0.236 C  
HETATM   10  C   UNL     1      -9.976  15.475  65.663  1.00  0.00    -0.360 C  
ENDBRANCH   6   7
ENDBRANCH   5   6
ENDBRANCH   4   5
ENDBRANCH   2   4
TORSDOF 4
ENDMDL
MODEL        9
REMARK 921   NORMALIZED FREE ENERGY PREDICTED BY IDOCK:   -3.26 KCAL/MOL
REMARK 922        TOTAL FREE ENERGY PREDICTED BY IDOCK:   -4.36 KCAL/MOL
REMARK 923 INTER-LIGAND FREE ENERGY PREDICTED BY IDOCK:   -4.22 KCAL/MOL
REMARK 924 INTRA-LIGAND FREE ENERGY PREDICTED BY IDOCK:   -0.14 KCAL/MOL
REMARK 927      BINDING AFFINITY PREDICTED BY RF-SCORE:    0.00 PKD
ROOT
HETATM    1  C   UNL     1     -10.716  11.504  63.607  1.00  0.00    -0.491 C  
HETATM    2  C   UNL     1     -11.931  12.376  63.658  1.00  0.00    -0.539 C  
HETATM    3  O   UNL     1     -13.078  12.010  63.441  1.00  0.00    -0.747 OA 
ENDROOT
BRANCH   2   4
HETATM    4  O   UNL     1     -11.597  13.645  64.027  1.00  0.00    -0.378 OA 
BRANCH   4   5
HETATM    5  C   UNL     1     -12.371  14.174  65.120  1.00  0.00    -0.451 C  
BRANCH   5   6
HETATM    6  C   UNL     1     -12.130  13.365  66.405  1.00  0.00    -0.409 C  
BRANCH   6   7
HETATM    7  N   UNL     1     -11.205  14.045  67.437  1.00  0.00    -0.300 N  
HETATM    8  C   UNL     1     -10.851  15.466  67.023  1.00  0.00    -0.320 C  
HETATM    9  C   UNL     1      -9.912  13.226  67.514  1.00  0.00    -0.223 C  
HETATM   10  C   UNL     1     -11.847  14.046  68.822  1.00  0.00    -0.361 C  
ENDBRANCH   6   7
ENDBRANCH   5   6
ENDBRANCH   4   5
ENDBRANCH   2   4
TORSDOF 4
ENDMDL
MODEL       10
REMARK 921   NORMALIZED FREE ENERGY PREDICTED BY IDOCK:   -3.24 KCAL/MOL
REMARK 922        TOTAL FREE ENERGY PREDICTED BY IDOCK:   -4.34 KCAL/MOL
REMARK 923 INTER-LIGAND FREE ENERGY PREDICTED BY IDOCK:   -4.21 KCAL/MOL
REMARK 924 INTRA-LIGAND FREE ENERGY PREDICTED BY IDOCK:   -0.13 KCAL/MOL
REMARK 927      BINDING AFFINITY PREDICTED BY RF-SCORE:    0.00 PKD
ROOT
HETATM    1  C   UNL     1     -12.245  13.163  65.716  1.00  0.00    -0.514 C  
HETATM    2  C   UNL     1     -11.858  14.067  64.589  1.00  0.00    -0.417 C  
HETATM    3  O   UNL     1     -12.542  14.308  63.603  1.00  0.00    -0.831 OA 
ENDROOT
BRANCH   2   4
HETATM    4  O   UNL     1     -10.641  14.635  64.824  1.00  0.00    -0.421 OA 
BRANCH   4   5
HETATM    5  C   UNL     1     -10.692  16.021  65.211  1.00  0.00    -0.399 C  
BRANCH   5   6
HETATM    6  C   UNL     1      -9.533  16.367  66.161  1.00  0.00    -0.329 C  
BRANCH   6   7
HETATM    7  N   UNL     1      -9.949  17.106  67.451  1.00  0.00    -0.272 N  
HETATM    8  C   UNL     1     -11.022  16.343  68.214  1.00  0.00    -0.355 C  
HETATM    9  C   UNL     1     -10.520  18.469  67.044  1.00  0.00    -0.402 C  
HETATM   10  C   UNL     1      -8.739  17.350  68.350  1.00  0.00    -0.271 C  
ENDBRANCH   6   7
ENDBRANCH   5   6
ENDBRANCH   4   5
ENDBRANCH   2   4
TORSDOF 4
ENDMDL
MODEL       11
REMARK 921   NORMALIZED FREE ENERGY PREDICTED BY IDOCK:   -3.24 KCAL/MOL
REMARK 922        TOTAL FREE ENERGY PREDICTED BY IDOCK:   -4.33 KCAL/MOL
REMARK 923 INTER-LIGAND FREE ENERGY PREDICTED BY IDOCK:   -4.25 KCAL/MOL
REMARK 924 INTRA-LIGAND FREE ENERGY PREDICTED BY IDOCK:   -0.08 KCAL/MOL
REMARK 927      BINDING AFFINITY PREDICTED BY RF-SCORE:    0.00 PKD
ROOT
HETATM    1  C   UNL     1     -10.774  19.533  67.195  1.00  0.00    -0.599 C  
HETATM    2  C   UNL     1      -9.929  18.959  66.102  1.00  0.00    -0.356 C  
HETATM    3  O   UNL     1      -8.785  19.300  65.834  1.00  0.00    -0.443 OA 
ENDROOT
BRANCH   2   4
HETATM    4  O   UNL     1     -10.592  17.957  65.457  1.00  0.00    -0.638 OA 
BRANCH   4   5
HETATM    5  C   UNL     1     -10.233  16.630  65.885  1.00  0.00    -0.340 C  
BRANCH   5   6
HETATM    6  C   UNL     1     -10.879  15.569  64.979  1.00  0.00    -0.450 C  
BRANCH   6   7
HETATM    7  N   UNL     1     -11.272  14.257  65.691  1.00  0.00    -0.307 N  
HETATM    8  C   UNL     1     -10.416  13.088  65.225  1.00  0.00    -0.304 C  
HETATM    9  C   UNL     1     -12.734  13.957  65.342  1.00  0.00    -0.490 C  
HETATM   10  C   UNL     1     -11.170  14.411  67.207  1.00  0.00    -0.323 C  
ENDBRANCH   6   7
ENDBRANCH   5   6
ENDBRANCH   4   5
ENDBRANCH   2   4
TORSDOF 4
ENDMDL
MODEL       12
REMARK 921   NORMALIZED FREE ENERGY PREDICTED BY IDOCK:   -3.22 KCAL/MOL
REMARK 922        TOTAL FREE ENERGY PREDICTED BY IDOCK:   -4.31 KCAL/MOL
REMARK 923 INTER-LIGAND FREE ENERGY PREDICTED BY IDOCK:   -4.06 KCAL/MOL
REMARK 924 INTRA-LIGAND FREE ENERGY PREDICTED BY IDOCK:   -0.25 KCAL/MOL
REMARK 927      BINDING AFFINITY PREDICTED BY RF-SCORE:    0.00 PKD
ROOT
HETATM    1  C   UNL     1     -12.909  11.725  63.565  1.00  0.00    -0.347 C  
HETATM    2  C   UNL     1     -11.891  12.821  63.584  1.00  0.00    -0.532 C  
HETATM    3  O   UNL     1     -10.678  12.664  63.579  1.00  0.00    -0.417 OA 
ENDROOT
BRANCH   2   4
HETATM    4  O   UNL     1     -12.498  14.042  63.562  1.00  0.00    -0.826 OA 
BRANCH   4   5
HETATM    5  C   UNL     1     -12.040  14.956  64.576  1.00  0.00    -0.407 C  
BRANCH   5   6
HETATM    6  C   UNL     1     -12.348  14.413  65.982  1.00  0.00    -0.318 C  
BRANCH   6   7
HETATM    7  N   UNL     1     -11.142  14.381  66.945  1.00  0.00    -0.315 N  
HETATM    8  C   UNL     1     -10.944  12.998  67.549  1.00  0.00    -0.259 C  
HETATM    9  C   UNL     1     -11.426  15.369  68.081  1.00  0.00    -0.343 C  
HETATM   10  C   UNL     1      -9.868  14.831  66.235  1.00  0.00    -0.296 C  
ENDBRANCH   6   7
ENDBRANCH   5   6
ENDBRANCH   4   5
ENDBRANCH   2   4
TORSDOF 4
ENDMDL
MODEL       13
REMARK 921   NORMALIZED FREE ENERGY PREDICTED BY IDOCK:   -3.21 KCAL/MOL
REMARK 922        TOTAL FREE ENERGY PREDICTED BY IDOCK:   -4.30 KCAL/MOL
REMARK 923 INTER-LIGAND FREE ENERGY PREDICTED BY IDOCK:   -4.15 KCAL/MOL
REMARK 924 INTRA-LIGAND FREE ENERGY PREDICTED BY IDOCK:   -0.15 KCAL/MOL
REMARK 927      BINDING AFFINITY PREDICTED BY RF-SCORE:    0.00 PKD
ROOT
HETATM    1  C   UNL     1     -12.769  13.806  65.603  1.00  0.00    -0.523 C  
HETATM    2  C   UNL     1     -12.029  14.123  64.342  1.00  0.00    -0.457 C  
HETATM    3  O   UNL     1     -12.482  14.026  63.209  1.00  0.00    -0.795 OA 
ENDROOT
BRANCH   2   4
HETATM    4  O   UNL     1     -10.777  14.584  64.621  1.00  0.00    -0.399 OA 
BRANCH   4   5
HETATM    5  C   UNL     1     -10.739  15.905  65.191  1.00  0.00    -0.429 C  
BRANCH   5   6
HETATM    6  C   UNL     1      -9.610  16.023  66.227  1.00  0.00    -0.307 C  
BRANCH   6   7
HETATM    7  N   UNL     1     -10.017  16.684  67.561  1.00  0.00    -0.258 N  
HETATM    8  C   UNL     1     -10.427  18.137  67.365  1.00  0.00    -0.399 C  
HETATM    9  C   UNL     1      -8.800  16.646  68.491  1.00  0.00    -0.235 C  
HETATM   10  C   UNL     1     -11.147  15.906  68.230  1.00  0.00    -0.345 C  
ENDBRANCH   6   7
ENDBRANCH   5   6
ENDBRANCH   4   5
ENDBRANCH   2   4
TORSDOF 4
ENDMDL
MODEL       14
REMARK 921   NORMALIZED FREE ENERGY PREDICTED BY IDOCK:   -3.21 KCAL/MOL
REMARK 922        TOTAL FREE ENERGY PREDICTED BY IDOCK:   -4.29 KCAL/MOL
REMARK 923 INTER-LIGAND FREE ENERGY PREDICTED BY IDOCK:   -4.18 KCAL/MOL
REMARK 924 INTRA-LIGAND FREE ENERGY PREDICTED BY IDOCK:   -0.11 KCAL/MOL
REMARK 927      BINDING AFFINITY PREDICTED BY RF-SCORE:    0.00 PKD
ROOT
HETATM    1  C   UNL     1     -13.027  15.831  73.491  1.00  0.00    -0.693 C  
HETATM    2  C   UNL     1     -13.557  15.025  72.346  1.00  0.00    -0.460 C  
HETATM    3  O   UNL     1     -14.061  13.915  72.432  1.00  0.00    -0.583 OA 
ENDROOT
BRANCH   2   4
HETATM    4  O   UNL     1     -13.443  15.718  71.177  1.00  0.00    -0.575 OA 
BRANCH   4   5
HETATM    5  C   UNL     1     -12.524  15.145  70.229  1.00  0.00    -0.342 C  
BRANCH   5   6
HETATM    6  C   UNL     1     -11.176  15.884  70.256  1.00  0.00    -0.380 C  
BRANCH   6   7
HETATM    7  N   UNL     1     -10.452  15.968  68.896  1.00  0.00    -0.230 N  
HETATM    8  C   UNL     1     -10.645  17.329  68.242  1.00  0.00    -0.383 C  
HETATM    9  C   UNL     1     -11.057  14.900  67.979  1.00  0.00    -0.295 C  
HETATM   10  C   UNL     1      -8.964  15.668  69.053  1.00  0.00    -0.239 C  
ENDBRANCH   6   7
ENDBRANCH   5   6
ENDBRANCH   4   5
ENDBRANCH   2   4
TORSDOF 4
ENDMDL
MODEL       15
REMARK 921   NORMALIZED FREE ENERGY PREDICTED BY IDOCK:   -3.20 KCAL/MOL
REMARK 922        TOTAL FREE ENERGY PREDICTED BY IDOCK:   -4.29 KCAL/MOL
REMARK 923 INTER-LIGAND FREE ENERGY PREDICTED BY IDOCK:   -4.18 KCAL/MOL
REMARK 924 INTRA-LIGAND FREE ENERGY PREDICTED BY IDOCK:   -0.11 KCAL/MOL
REMARK 927      BINDING AFFINITY PREDICTED BY RF-SCORE:    0.00 PKD
ROOT
HETATM    1  C   UNL     1     -11.361  10.238  70.600  1.00  0.00    -0.431 C  
HETATM    2  C   UNL     1     -12.508   9.630  71.343  1.00  0.00    -0.373 C  
HETATM    3  O   UNL     1     -12.725   8.432  71.458  1.00  0.00    -0.311 OA 
ENDROOT
BRANCH   2   4
HETATM    4  O   UNL     1     -13.272  10.599  71.924  1.00  0.00    -0.461 OA 
BRANCH   4   5
HETATM    5  C   UNL     1     -12.968  11.939  71.495  1.00  0.00    -0.323 C  
BRANCH   5   6
HETATM    6  C   UNL     1     -13.677  12.973  72.385  1.00  0.00    -0.494 C  
BRANCH   6   7
HETATM    7  N   UNL     1     -13.243  14.436  72.154  1.00  0.00    -0.354 N  
HETATM    8  C   UNL     1     -14.393  15.287  71.633  1.00  0.00    -0.561 C  
HETATM    9  C   UNL     1     -12.128  14.431  71.103  1.00  0.00    -0.341 C  
HETATM   10  C   UNL     1     -12.680  15.044  73.436  1.00  0.00    -0.530 C  
ENDBRANCH   6   7
ENDBRANCH   5   6
ENDBRANCH   4   5
ENDBRANCH   2   4
TORSDOF 4
ENDMDL
MODEL       16
REMARK 921   NORMALIZED FREE ENERGY PREDICTED BY IDOCK:   -3.19 KCAL/MOL
REMARK 922        TOTAL FREE ENERGY PREDICTED BY IDOCK:   -4.28 KCAL/MOL
REMARK 923 INTER-LIGAND FREE ENERGY PREDICTED BY IDOCK:   -4.07 KCAL/MOL
REMARK 924 INTRA-LIGAND FREE ENERGY PREDICTED BY IDOCK:   -0.21 KCAL/MOL
REMARK 927      BINDING AFFINITY PREDICTED BY RF-SCORE:    0.00 PKD
ROOT
HETATM    1  C   UNL     1     -12.250  12.305  63.887  1.00  0.00    -0.608 C  
HETATM    2  C   UNL     1     -12.010  13.763  64.121  1.00  0.00    -0.432 C  
HETATM    3  O   UNL     1     -12.715  14.674  63.710  1.00  0.00    -0.778 OA 
ENDROOT
BRANCH   2   4
HETATM    4  O   UNL     1     -10.909  13.950  64.904  1.00  0.00    -0.358 OA 
BRANCH   4   5
HETATM    5  C   UNL     1     -11.123  14.804  66.043  1.00  0.00    -0.330 C  
BRANCH   5   6
HETATM    6  C   UNL     1     -12.048  14.130  67.069  1.00  0.00    -0.414 C  
BRANCH   6   7
HETATM    7  N   UNL     1     -11.329  13.260  68.121  1.00  0.00    -0.270 N  
HETATM    8  C   UNL     1     -11.421  11.778  67.782  1.00  0.00    -0.311 C  
HETATM    9  C   UNL     1     -12.019  13.492  69.469  1.00  0.00    -0.334 C  
HETATM   10  C   UNL     1      -9.867  13.676  68.261  1.00  0.00    -0.232 C  
ENDBRANCH   6   7
ENDBRANCH   5   6
ENDBRANCH   4   5
ENDBRANCH   2   4
TORSDOF 4
ENDMDL
MODEL       17
REMARK 921   NORMALIZED FREE ENERGY PREDICTED BY IDOCK:   -3.18 KCAL/MOL
REMARK 922        TOTAL FREE ENERGY PREDICTED BY IDOCK:   -4.27 KCAL/MOL
REMARK 923 INTER-LIGAND FREE ENERGY PREDICTED BY IDOCK:   -4.18 KCAL/MOL
REMARK 924 INTRA-LIGAND FREE ENERGY PREDICTED BY IDOCK:   -0.08 KCAL/MOL
REMARK 927      BINDING AFFINITY PREDICTED BY RF-SCORE:    0.00 PKD
ROOT
HETATM    1  C   UNL     1     -10.648  19.635  66.168  1.00  0.00    -0.584 C  
HETATM    2  C   UNL     1     -10.090  18.260  66.364  1.00  0.00    -0.396 C  
HETATM    3  O   UNL     1      -9.386  17.906  67.300  1.00  0.00    -0.253 OA 
ENDROOT
BRANCH   2   4
HETATM    4  O   UNL     1     -10.511  17.425  65.372  1.00  0.00    -0.648 OA 
BRANCH   4   5
HETATM    5  C   UNL     1     -10.187  16.038  65.580  1.00  0.00    -0.386 C  
BRANCH   5   6
HETATM    6  C   UNL     1     -11.225  15.125  64.906  1.00  0.00    -0.417 C  
BRANCH   6   7
HETATM    7  N   UNL     1     -11.530  13.817  65.665  1.00  0.00    -0.306 N  
HETATM    8  C   UNL     1     -12.108  14.091  67.046  1.00  0.00    -0.420 C  
HETATM    9  C   UNL     1     -10.211  13.056  65.834  1.00  0.00    -0.292 C  
HETATM   10  C   UNL     1     -12.484  12.934  64.863  1.00  0.00    -0.478 C  
ENDBRANCH   6   7
ENDBRANCH   5   6
ENDBRANCH   4   5
ENDBRANCH   2   4
TORSDOF 4
ENDMDL
MODEL       18
REMARK 921   NORMALIZED FREE ENERGY PREDICTED BY IDOCK:   -3.18 KCAL/MOL
REMARK 922        TOTAL FREE ENERGY PREDICTED BY IDOCK:   -4.26 KCAL/MOL
REMARK 923 INTER-LIGAND FREE ENERGY PREDICTED BY IDOCK:   -4.09 KCAL/MOL
REMARK 924 INTRA-LIGAND FREE ENERGY PREDICTED BY IDOCK:   -0.17 KCAL/MOL
REMARK 927      BINDING AFFINITY PREDICTED BY RF-SCORE:    0.00 PKD
ROOT
HETATM    1  C   UNL     1     -11.829  12.309  66.314  1.00  0.00    -0.387 C  
HETATM    2  C   UNL     1     -12.532  12.763  65.073  1.00  0.00    -0.506 C  
HETATM    3  O   UNL     1     -13.343  12.106  64.435  1.00  0.00    -0.740 OA 
ENDROOT
BRANCH   2   4
HETATM    4  O   UNL     1     -12.181  14.043  64.762  1.00  0.00    -0.404 OA 
BRANCH   4   5
HETATM    5  C   UNL     1     -10.796  14.358  64.998  1.00  0.00    -0.407 C  
BRANCH   5   6
HETATM    6  C   UNL     1     -10.589  15.878  65.097  1.00  0.00    -0.397 C  
BRANCH   6   7
HETATM    7  N   UNL     1     -10.069  16.376  66.462  1.00  0.00    -0.282 N  
HETATM    8  C   UNL     1     -10.074  17.897  66.544  1.00  0.00    -0.370 C  
HETATM    9  C   UNL     1      -8.625  15.887  66.618  1.00  0.00    -0.285 C  
HETATM   10  C   UNL     1     -10.893  15.787  67.604  1.00  0.00    -0.310 C  
ENDBRANCH   6   7
ENDBRANCH   5   6
ENDBRANCH   4   5
ENDBRANCH   2   4
TORSDOF 4
ENDMDL
MODEL       19
REMARK 921   NORMALIZED FREE ENERGY PREDICTED BY IDOCK:   -3.11 KCAL/MOL
REMARK 922        TOTAL FREE ENERGY PREDICTED BY IDOCK:   -4.18 KCAL/MOL
REMARK 923 INTER-LIGAND FREE ENERGY PREDICTED BY IDOCK:   -4.09 KCAL/MOL
REMARK 924 INTRA-LIGAND FREE ENERGY PREDICTED BY IDOCK:   -0.09 KCAL/MOL
REMARK 927      BINDING AFFINITY PREDICTED BY RF-SCORE:    0.00 PKD
ROOT
HETATM    1  C   UNL     1     -10.520  19.095  66.074  1.00  0.00    -0.546 C  
HETATM    2  C   UNL     1     -10.324  17.722  66.637  1.00  0.00    -0.345 C  
HETATM    3  O   UNL     1     -10.603  17.374  67.776  1.00  0.00    -0.365 OA 
ENDROOT
BRANCH   2   4
HETATM    4  O   UNL     1      -9.825  16.880  65.688  1.00  0.00    -0.549 OA 
BRANCH   4   5
HETATM    5  C   UNL     1     -10.779  15.937  65.164  1.00  0.00    -0.429 C  
BRANCH   5   6
HETATM    6  C   UNL     1     -10.215  14.507  65.207  1.00  0.00    -0.402 C  
BRANCH   6   7
HETATM    7  N   UNL     1     -11.178  13.412  64.701  1.00  0.00    -0.343 N  
HETATM    8  C   UNL     1     -12.301  14.000  63.857  1.00  0.00    -0.234 C  
HETATM    9  C   UNL     1     -11.798  12.733  65.926  1.00  0.00    -0.437 C  
HETATM   10  C   UNL     1     -10.423  12.351  63.904  1.00  0.00    -0.439 C  
ENDBRANCH   6   7
ENDBRANCH   5   6
ENDBRANCH   4   5
ENDBRANCH   2   4
TORSDOF 4
ENDMDL
MODEL       20
REMARK 921   NORMALIZED FREE ENERGY PREDICTED BY IDOCK:   -3.10 KCAL/MOL
REMARK 922        TOTAL FREE ENERGY PREDICTED BY IDOCK:   -4.16 KCAL/MOL
REMARK 923 INTER-LIGAND FREE ENERGY PREDICTED BY IDOCK:   -4.01 KCAL/MOL
REMARK 924 INTRA-LIGAND FREE ENERGY PREDICTED BY IDOCK:   -0.14 KCAL/MOL
REMARK 927      BINDING AFFINITY PREDICTED BY RF-SCORE:    0.00 PKD
ROOT
HETATM    1  C   UNL     1     -13.090  15.488  73.061  1.00  0.00    -0.632 C  
HETATM    2  C   UNL     1     -13.660  14.397  72.210  1.00  0.00    -0.454 C  
HETATM    3  O   UNL     1     -14.107  13.335  72.621  1.00  0.00    -0.744 OA 
ENDROOT
BRANCH   2   4
HETATM    4  O   UNL     1     -13.660  14.762  70.896  1.00  0.00    -0.351 OA 
BRANCH   4   5
HETATM    5  C   UNL     1     -12.355  14.821  70.292  1.00  0.00    -0.345 C  
BRANCH   5   6
HETATM    6  C   UNL     1     -11.892  13.423  69.850  1.00  0.00    -0.315 C  
BRANCH   6   7
HETATM    7  N   UNL     1     -11.329  13.347  68.415  1.00  0.00    -0.273 N  
HETATM    8  C   UNL     1     -11.973  14.383  67.504  1.00  0.00    -0.354 C  
HETATM    9  C   UNL     1     -11.645  11.953  67.863  1.00  0.00    -0.323 C  
HETATM   10  C   UNL     1      -9.812  13.521  68.417  1.00  0.00    -0.225 C  
ENDBRANCH   6   7
ENDBRANCH   5   6
ENDBRANCH   4   5
ENDBRANCH   2   4
TORSDOF 4
ENDMDL
MODEL       21
REMARK 921   NORMALIZED FREE ENERGY PREDICTED BY IDOCK:   -3.08 KCAL/MOL
REMARK 922        TOTAL FREE ENERGY PREDICTED BY IDOCK:   -4.14 KCAL/MOL
REMARK 923 INTER-LIGAND FREE ENERGY PREDICTED BY IDOCK:   -4.06 KCAL/MOL
REMARK 924 INTRA-LIGAND FREE ENERGY PREDICTED BY IDOCK:   -0.08 KCAL/MOL
REMARK 927      BINDING AFFINITY PREDICTED BY RF-SCORE:    0.00 PKD
ROOT
HETATM    1  C   UNL     1     -11.961  13.650  66.513  1.00  0.00    -0.465 C  
HETATM    2  C   UNL     1     -11.800  12.696  67.655  1.00  0.00    -0.329 C  
HETATM    3  O   UNL     1     -12.002  11.491  67.608  1.00  0.00    -0.630 OA 
ENDROOT
BRANCH   2   4
HETATM    4  O   UNL     1     -11.347  13.346  68.764  1.00  0.00    -0.255 OA 
BRANCH   4   5
HETATM    5  C   UNL     1     -12.338  14.148  69.434  1.00  0.00    -0.205 C  
BRANCH   5   6
HETATM    6  C   UNL     1     -11.943  14.397  70.899  1.00  0.00    -0.327 C  
BRANCH   6   7
HETATM    7  N   UNL     1     -13.104  14.299  71.911  1.00  0.00    -0.343 N  
HETATM    8  C   UNL     1     -13.568  12.860  72.094  1.00  0.00    -0.495 C  
HETATM    9  C   UNL     1     -14.275  15.119  71.359  1.00  0.00    -0.498 C  
HETATM   10  C   UNL     1     -12.702  14.896  73.257  1.00  0.00    -0.509 C  
ENDBRANCH   6   7
ENDBRANCH   5   6
ENDBRANCH   4   5
ENDBRANCH   2   4
TORSDOF 4
ENDMDL
MODEL       22
REMARK 921   NORMALIZED FREE ENERGY PREDICTED BY IDOCK:   -3.08 KCAL/MOL
REMARK 922        TOTAL FREE ENERGY PREDICTED BY IDOCK:   -4.13 KCAL/MOL
REMARK 923 INTER-LIGAND FREE ENERGY PREDICTED BY IDOCK:   -3.89 KCAL/MOL
REMARK 924 INTRA-LIGAND FREE ENERGY PREDICTED BY IDOCK:   -0.25 KCAL/MOL
REMARK 927      BINDING AFFINITY PREDICTED BY RF-SCORE:    0.00 PKD
ROOT
HETATM    1  C   UNL     1     -12.621  13.243  65.571  1.00  0.00    -0.505 C  
HETATM    2  C   UNL     1     -12.006  13.784  64.319  1.00  0.00    -0.443 C  
HETATM    3  O   UNL     1     -12.519  13.761  63.208  1.00  0.00    -0.819 OA 
ENDROOT
BRANCH   2   4
HETATM    4  O   UNL     1     -10.798  14.357  64.584  1.00  0.00    -0.392 OA 
BRANCH   4   5
HETATM    5  C   UNL     1     -10.869  15.590  65.323  1.00  0.00    -0.411 C  
BRANCH   5   6
HETATM    6  C   UNL     1      -9.657  15.740  66.258  1.00  0.00    -0.313 C  
BRANCH   6   7
HETATM    7  N   UNL     1      -9.930  15.394  67.737  1.00  0.00    -0.224 N  
HETATM    8  C   UNL     1      -8.943  16.087  68.666  1.00  0.00    -0.210 C  
HETATM    9  C   UNL     1      -9.766  13.879  67.899  1.00  0.00    -0.231 C  
HETATM   10  C   UNL     1     -11.361  15.759  68.125  1.00  0.00    -0.337 C  
ENDBRANCH   6   7
ENDBRANCH   5   6
ENDBRANCH   4   5
ENDBRANCH   2   4
TORSDOF 4
ENDMDL
MODEL       23
REMARK 921   NORMALIZED FREE ENERGY PREDICTED BY IDOCK:   -3.08 KCAL/MOL
REMARK 922        TOTAL FREE ENERGY PREDICTED BY IDOCK:   -4.13 KCAL/MOL
REMARK 923 INTER-LIGAND FREE ENERGY PREDICTED BY IDOCK:   -4.02 KCAL/MOL
REMARK 924 INTRA-LIGAND FREE ENERGY PREDICTED BY IDOCK:   -0.11 KCAL/MOL
REMARK 927      BINDING AFFINITY PREDICTED BY RF-SCORE:    0.00 PKD
ROOT
HETATM    1  C   UNL     1     -12.385  11.162  70.635  1.00  0.00    -0.482 C  
HETATM    2  C   UNL     1     -11.525  10.902  69.438  1.00  0.00    -0.302 C  
HETATM    3  O   UNL     1     -10.418  10.382  69.458  1.00  0.00    -0.223 OA 
ENDROOT
BRANCH   2   4
HETATM    4  O   UNL     1     -12.163  11.286  68.296  1.00  0.00    -0.611 OA 
BRANCH   4   5
HETATM    5  C   UNL     1     -11.476  12.300  67.539  1.00  0.00    -0.347 C  
BRANCH   5   6
HETATM    6  C   UNL     1     -11.314  11.874  66.071  1.00  0.00    -0.316 C  
BRANCH   6   7
HETATM    7  N   UNL     1     -11.565  12.992  65.038  1.00  0.00    -0.314 N  
HETATM    8  C   UNL     1     -11.860  12.424  63.656  1.00  0.00    -0.526 C  
HETATM    9  C   UNL     1     -10.293  13.841  64.950  1.00  0.00    -0.398 C  
HETATM   10  C   UNL     1     -12.708  13.900  65.486  1.00  0.00    -0.499 C  
ENDBRANCH   6   7
ENDBRANCH   5   6
ENDBRANCH   4   5
ENDBRANCH   2   4
TORSDOF 4
ENDMDL
MODEL       24
REMARK 921   NORMALIZED FREE ENERGY PREDICTED BY IDOCK:   -3.06 KCAL/MOL
REMARK 922        TOTAL FREE ENERGY PREDICTED BY IDOCK:   -4.12 KCAL/MOL
REMARK 923 INTER-LIGAND FREE ENERGY PREDICTED BY IDOCK:   -4.01 KCAL/MOL
REMARK 924 INTRA-LIGAND FREE ENERGY PREDICTED BY IDOCK:   -0.10 KCAL/MOL
REMARK 927      BINDING AFFINITY PREDICTED BY RF-SCORE:    0.00 PKD
ROOT
HETATM    1  C   UNL     1     -12.399  13.004  70.886  1.00  0.00    -0.376 C  
HETATM    2  C   UNL     1     -13.396  12.787  71.981  1.00  0.00    -0.466 C  
HETATM    3  O   UNL     1     -13.977  13.669  72.598  1.00  0.00    -0.733 OA 
ENDROOT
BRANCH   2   4
HETATM    4  O   UNL     1     -13.613  11.456  72.177  1.00  0.00    -0.297 OA 
BRANCH   4   5
HETATM    5  C   UNL     1     -12.717  10.591  71.455  1.00  0.00    -0.442 C  
BRANCH   5   6
HETATM    6  C   UNL     1     -12.780   9.155  72.003  1.00  0.00    -0.398 C  
BRANCH   6   7
HETATM    7  N   UNL     1     -11.530   8.296  71.719  1.00  0.00    -0.275 N  
HETATM    8  C   UNL     1     -10.416   9.117  71.083  1.00  0.00    -0.315 C  
HETATM    9  C   UNL     1     -11.937   7.191  70.738  1.00  0.00    -0.310 C  
HETATM   10  C   UNL     1     -11.027   7.630  72.997  1.00  0.00    -0.400 C  
ENDBRANCH   6   7
ENDBRANCH   5   6
ENDBRANCH   4   5
ENDBRANCH   2   4
TORSDOF 4
ENDMDL
MODEL       25
REMARK 921   NORMALIZED FREE ENERGY PREDICTED BY IDOCK:   -3.05 KCAL/MOL
REMARK 922        TOTAL FREE ENERGY PREDICTED BY IDOCK:   -4.10 KCAL/MOL
REMARK 923 INTER-LIGAND FREE ENERGY PREDICTED BY IDOCK:   -3.82 KCAL/MOL
REMARK 924 INTRA-LIGAND FREE ENERGY PREDICTED BY IDOCK:   -0.28 KCAL/MOL
REMARK 927      BINDING AFFINITY PREDICTED BY RF-SCORE:    0.00 PKD
ROOT
HETATM    1  C   UNL     1     -12.050  11.396  70.473  1.00  0.00    -0.487 C  
HETATM    2  C   UNL     1     -11.936  11.958  69.091  1.00  0.00    -0.276 C  
HETATM    3  O   UNL     1     -11.986  11.311  68.054  1.00  0.00    -0.621 OA 
ENDROOT
BRANCH   2   4
HETATM    4  O   UNL     1     -11.812  13.315  69.133  1.00  0.00    -0.301 OA 
BRANCH   4   5
HETATM    5  C   UNL     1     -10.708  13.839  68.372  1.00  0.00    -0.254 C  
BRANCH   5   6
HETATM    6  C   UNL     1     -11.199  14.836  67.309  1.00  0.00    -0.346 C  
BRANCH   6   7
HETATM    7  N   UNL     1     -11.229  14.286  65.867  1.00  0.00    -0.313 N  
HETATM    8  C   UNL     1     -10.876  15.362  64.849  1.00  0.00    -0.425 C  
HETATM    9  C   UNL     1     -12.654  13.800  65.583  1.00  0.00    -0.509 C  
HETATM   10  C   UNL     1     -10.286  13.095  65.719  1.00  0.00    -0.289 C  
ENDBRANCH   6   7
ENDBRANCH   5   6
ENDBRANCH   4   5
ENDBRANCH   2   4
TORSDOF 4
ENDMDL
MODEL       26
REMARK 921   NORMALIZED FREE ENERGY PREDICTED BY IDOCK:   -3.05 KCAL/MOL
REMARK 922        TOTAL FREE ENERGY PREDICTED BY IDOCK:   -4.10 KCAL/MOL
REMARK 923 INTER-LIGAND FREE ENERGY PREDICTED BY IDOCK:   -4.00 KCAL/MOL
REMARK 924 INTRA-LIGAND FREE ENERGY PREDICTED BY IDOCK:   -0.10 KCAL/MOL
REMARK 927      BINDING AFFINITY PREDICTED BY RF-SCORE:    0.00 PKD
ROOT
HETATM    1  C   UNL     1      -9.950  16.552  67.281  1.00  0.00    -0.264 C  
HETATM    2  C   UNL     1     -10.298  17.179  65.968  1.00  0.00    -0.309 C  
HETATM    3  O   UNL     1     -10.364  18.380  65.749  1.00  0.00    -0.588 OA 
ENDROOT
BRANCH   2   4
HETATM    4  O   UNL     1     -10.495  16.222  65.016  1.00  0.00    -0.621 OA 
BRANCH   4   5
HETATM    5  C   UNL     1     -10.997  14.970  65.520  1.00  0.00    -0.358 C  
BRANCH   5   6
HETATM    6  C   UNL     1     -10.598  13.808  64.596  1.00  0.00    -0.425 C  
BRANCH   6   7
HETATM    7  N   UNL     1     -11.323  12.475  64.877  1.00  0.00    -0.301 N  
HETATM    8  C   UNL     1     -11.728  12.355  66.339  1.00  0.00    -0.391 C  
HETATM    9  C   UNL     1     -10.352  11.337  64.548  1.00  0.00    -0.322 C  
HETATM   10  C   UNL     1     -12.549  12.324  63.979  1.00  0.00    -0.420 C  
ENDBRANCH   6   7
ENDBRANCH   5   6
ENDBRANCH   4   5
ENDBRANCH   2   4
TORSDOF 4
ENDMDL
MODEL       27
REMARK 921   NORMALIZED FREE ENERGY PREDICTED BY IDOCK:   -3.03 KCAL/MOL
REMARK 922        TOTAL FREE ENERGY PREDICTED BY IDOCK:   -4.07 KCAL/MOL
REMARK 923 INTER-LIGAND FREE ENERGY PREDICTED BY IDOCK:   -3.94 KCAL/MOL
REMARK 924 INTRA-LIGAND FREE ENERGY PREDICTED BY IDOCK:   -0.13 KCAL/MOL
REMARK 927      BINDING AFFINITY PREDICTED BY RF-SCORE:    0.00 PKD
ROOT
HETATM    1  C   UNL     1     -11.927  13.828  67.165  1.00  0.00    -0.442 C  
HETATM    2  C   UNL     1     -12.139  14.003  65.694  1.00  0.00    -0.417 C  
HETATM    3  O   UNL     1     -13.177  13.765  65.093  1.00  0.00    -0.757 OA 
ENDROOT
BRANCH   2   4
HETATM    4  O   UNL     1     -11.020  14.512  65.104  1.00  0.00    -0.334 OA 
BRANCH   4   5
HETATM    5  C   UNL     1     -10.901  15.944  65.184  1.00  0.00    -0.421 C  
BRANCH   5   6
HETATM    6  C   UNL     1      -9.614  16.346  65.922  1.00  0.00    -0.274 C  
BRANCH   6   7
HETATM    7  N   UNL     1      -9.735  17.611  66.798  1.00  0.00    -0.287 N  
HETATM    8  C   UNL     1      -8.391  18.014  67.391  1.00  0.00    -0.232 C  
HETATM    9  C   UNL     1     -10.695  17.292  67.949  1.00  0.00    -0.351 C  
HETATM   10  C   UNL     1     -10.325  18.771  66.000  1.00  0.00    -0.422 C  
ENDBRANCH   6   7
ENDBRANCH   5   6
ENDBRANCH   4   5
ENDBRANCH   2   4
TORSDOF 4
ENDMDL
MODEL       28
REMARK 921   NORMALIZED FREE ENERGY PREDICTED BY IDOCK:   -3.02 KCAL/MOL
REMARK 922        TOTAL FREE ENERGY PREDICTED BY IDOCK:   -4.06 KCAL/MOL
REMARK 923 INTER-LIGAND FREE ENERGY PREDICTED BY IDOCK:   -3.96 KCAL/MOL
REMARK 924 INTRA-LIGAND FREE ENERGY PREDICTED BY IDOCK:   -0.11 KCAL/MOL
REMARK 927      BINDING AFFINITY PREDICTED BY RF-SCORE:    0.00 PKD
ROOT
HETATM    1  C   UNL     1     -12.076  13.152  70.145  1.00  0.00    -0.392 C  
HETATM    2  C   UNL     1     -11.896  11.711  69.786  1.00  0.00    -0.357 C  
HETATM    3  O   UNL     1     -11.565  10.822  70.558  1.00  0.00    -0.316 OA 
ENDROOT
BRANCH   2   4
HETATM    4  O   UNL     1     -12.197  11.502  68.473  1.00  0.00    -0.524 OA 
BRANCH   4   5
HETATM    5  C   UNL     1     -11.694  12.509  67.575  1.00  0.00    -0.374 C  
BRANCH   5   6
HETATM    6  C   UNL     1     -11.396  11.911  66.191  1.00  0.00    -0.324 C  
BRANCH   6   7
HETATM    7  N   UNL     1     -11.800  12.801  64.997  1.00  0.00    -0.359 N  
HETATM    8  C   UNL     1     -10.597  13.517  64.399  1.00  0.00    -0.377 C  
HETATM    9  C   UNL     1     -12.784  13.856  65.513  1.00  0.00    -0.499 C  
HETATM   10  C   UNL     1     -12.509  11.980  63.923  1.00  0.00    -0.436 C  
ENDBRANCH   6   7
ENDBRANCH   5   6
ENDBRANCH   4   5
ENDBRANCH   2   4
TORSDOF 4
ENDMDL
MODEL       29
REMARK 921   NORMALIZED FREE ENERGY PREDICTED BY IDOCK:   -3.00 KCAL/MOL
REMARK 922        TOTAL FREE ENERGY PREDICTED BY IDOCK:   -4.04 KCAL/MOL
REMARK 923 INTER-LIGAND FREE ENERGY PREDICTED BY IDOCK:   -3.98 KCAL/MOL
REMARK 924 INTRA-LIGAND FREE ENERGY PREDICTED BY IDOCK:   -0.05 KCAL/MOL
REMARK 927      BINDING AFFINITY PREDICTED BY RF-SCORE:    0.00 PKD
ROOT
HETATM    1  C   UNL     1      -9.869  16.747  66.137  1.00  0.00    -0.330 C  
HETATM    2  C   UNL     1     -10.995  16.308  65.253  1.00  0.00    -0.236 C  
HETATM    3  O   UNL     1     -11.317  16.837  64.198  1.00  0.00    -1.194 OA 
ENDROOT
BRANCH   2   4
HETATM    4  O   UNL     1     -11.599  15.196  65.760  1.00  0.00    -0.246 OA 
BRANCH   4   5
HETATM    5  C   UNL     1     -10.701  14.112  66.062  1.00  0.00    -0.299 C  
BRANCH   5   6
HETATM    6  C   UNL     1     -10.080  13.541  64.777  1.00  0.00    -0.240 C  
BRANCH   6   7
HETATM    7  N   UNL     1     -10.715  12.226  64.276  1.00  0.00    -0.323 N  
HETATM    8  C   UNL     1     -12.168  12.424  63.867  1.00  0.00    -0.513 C  
HETATM    9  C   UNL     1     -10.670  11.218  65.430  1.00  0.00    -0.227 C  
HETATM   10  C   UNL     1      -9.916  11.647  63.111  1.00  0.00    -0.375 C  
ENDBRANCH   6   7
ENDBRANCH   5   6
ENDBRANCH   4   5
ENDBRANCH   2   4
TORSDOF 4
ENDMDL
MODEL       30
REMARK 921   NORMALIZED FREE ENERGY PREDICTED BY IDOCK:   -3.00 KCAL/MOL
REMARK 922        TOTAL FREE ENERGY PREDICTED BY IDOCK:   -4.03 KCAL/MOL
REMARK 923 INTER-LIGAND FREE ENERGY PREDICTED BY IDOCK:   -3.91 KCAL/MOL
REMARK 924 INTRA-LIGAND FREE ENERGY PREDICTED BY IDOCK:   -0.12 KCAL/MOL
REMARK 927      BINDING AFFINITY PREDICTED BY RF-SCORE:    0.00 PKD
ROOT
HETATM    1  C   UNL     1     -10.911  14.451  64.973  1.00  0.00    -0.420 C  
HETATM    2  C   UNL     1     -10.890  15.926  64.719  1.00  0.00    -0.324 C  
HETATM    3  O   UNL     1     -11.602  16.519  63.920  1.00  0.00    -1.175 OA 
ENDROOT
BRANCH   2   4
HETATM    4  O   UNL     1      -9.991  16.543  65.537  1.00  0.00    -0.541 OA 
BRANCH   4   5
HETATM    5  C   UNL     1      -9.063  15.653  66.186  1.00  0.00    -0.342 C  
BRANCH   5   6
HETATM    6  C   UNL     1      -8.859  16.050  67.657  1.00  0.00    -0.185 C  
BRANCH   6   7
HETATM    7  N   UNL     1      -7.742  17.086  67.903  1.00  0.00    -0.172 N  
HETATM    8  C   UNL     1      -6.909  16.733  69.127  1.00  0.00    -0.227 C  
HETATM    9  C   UNL     1      -8.410  18.443  68.146  1.00  0.00    -0.284 C  
HETATM   10  C   UNL     1      -6.843  17.216  66.676  1.00  0.00    -0.243 C  
ENDBRANCH   6   7
ENDBRANCH   5   6
ENDBRANCH   4   5
ENDBRANCH   2   4
TORSDOF 4
ENDMDL
MODEL       31
REMARK 921   NORMALIZED FREE ENERGY PREDICTED BY IDOCK:   -2.96 KCAL/MOL
REMARK 922        TOTAL FREE ENERGY PREDICTED BY IDOCK:   -4.00 KCAL/MOL
REMARK 923 INTER-LIGAND FREE ENERGY PREDICTED BY IDOCK:   -3.68 KCAL/MOL
REMARK 924 INTRA-LIGAND FREE ENERGY PREDICTED BY IDOCK:   -0.32 KCAL/MOL
REMARK 927      BINDING AFFINITY PREDICTED BY RF-SCORE:    0.00 PKD
ROOT
HETATM    1  C   UNL     1     -10.352  10.946  66.030  1.00  0.00    -0.304 C  
HETATM    2  C   UNL     1     -11.049  11.847  65.060  1.00  0.00    -0.305 C  
HETATM    3  O   UNL     1     -10.661  12.111  63.930  1.00  0.00    -0.339 OA 
ENDROOT
BRANCH   2   4
HETATM    4  O   UNL     1     -12.217  12.311  65.588  1.00  0.00    -0.605 OA 
BRANCH   4   5
HETATM    5  C   UNL     1     -12.331  13.746  65.620  1.00  0.00    -0.482 C  
BRANCH   5   6
HETATM    6  C   UNL     1     -11.989  14.291  67.017  1.00  0.00    -0.433 C  
BRANCH   6   7
HETATM    7  N   UNL     1     -10.651  15.055  67.107  1.00  0.00    -0.289 N  
HETATM    8  C   UNL     1     -10.777  16.309  67.960  1.00  0.00    -0.331 C  
HETATM    9  C   UNL     1     -10.256  15.473  65.686  1.00  0.00    -0.376 C  
HETATM   10  C   UNL     1      -9.548  14.155  67.657  1.00  0.00    -0.216 C  
ENDBRANCH   6   7
ENDBRANCH   5   6
ENDBRANCH   4   5
ENDBRANCH   2   4
TORSDOF 4
ENDMDL
MODEL       32
REMARK 921   NORMALIZED FREE ENERGY PREDICTED BY IDOCK:   -2.95 KCAL/MOL
REMARK 922        TOTAL FREE ENERGY PREDICTED BY IDOCK:   -3.98 KCAL/MOL
REMARK 923 INTER-LIGAND FREE ENERGY PREDICTED BY IDOCK:   -3.85 KCAL/MOL
REMARK 924 INTRA-LIGAND FREE ENERGY PREDICTED BY IDOCK:   -0.13 KCAL/MOL
REMARK 927      BINDING AFFINITY PREDICTED BY RF-SCORE:    0.00 PKD
ROOT
HETATM    1  C   UNL     1     -14.075  15.040  71.866  1.00  0.00    -0.627 C  
HETATM    2  C   UNL     1     -12.797  15.680  71.423  1.00  0.00    -0.482 C  
HETATM    3  O   UNL     1     -11.963  16.187  72.160  1.00  0.00    -0.480 OA 
ENDROOT
BRANCH   2   4
HETATM    4  O   UNL     1     -12.656  15.586  70.070  1.00  0.00    -0.339 OA 
BRANCH   4   5
HETATM    5  C   UNL     1     -11.547  14.776  69.639  1.00  0.00    -0.304 C  
BRANCH   5   6
HETATM    6  C   UNL     1     -12.029  13.604  68.769  1.00  0.00    -0.359 C  
BRANCH   6   7
HETATM    7  N   UNL     1     -11.373  13.515  67.375  1.00  0.00    -0.298 N  
HETATM    8  C   UNL     1     -10.912  12.098  67.061  1.00  0.00    -0.271 C  
HETATM    9  C   UNL     1     -10.147  14.434  67.377  1.00  0.00    -0.243 C  
HETATM   10  C   UNL     1     -12.330  14.007  66.292  1.00  0.00    -0.448 C  
ENDBRANCH   6   7
ENDBRANCH   5   6
ENDBRANCH   4   5
ENDBRANCH   2   4
TORSDOF 4
ENDMDL
MODEL       33
REMARK 921   NORMALIZED FREE ENERGY PREDICTED BY IDOCK:   -2.90 KCAL/MOL
REMARK 922        TOTAL FREE ENERGY PREDICTED BY IDOCK:   -3.92 KCAL/MOL
REMARK 923 INTER-LIGAND FREE ENERGY PREDICTED BY IDOCK:   -3.82 KCAL/MOL
REMARK 924 INTRA-LIGAND FREE ENERGY PREDICTED BY IDOCK:   -0.10 KCAL/MOL
REMARK 927      BINDING AFFINITY PREDICTED BY RF-SCORE:    0.00 PKD
ROOT
HETATM    1  C   UNL     1     -11.342  12.903  64.015  1.00  0.00    -0.466 C  
HETATM    2  C   UNL     1     -12.333  13.207  65.094  1.00  0.00    -0.473 C  
HETATM    3  O   UNL     1     -13.104  14.157  65.103  1.00  0.00    -0.757 OA 
ENDROOT
BRANCH   2   4
HETATM    4  O   UNL     1     -12.298  12.250  66.064  1.00  0.00    -0.609 OA 
BRANCH   4   5
HETATM    5  C   UNL     1     -11.185  12.356  66.970  1.00  0.00    -0.303 C  
BRANCH   5   6
HETATM    6  C   UNL     1     -11.504  11.679  68.313  1.00  0.00    -0.303 C  
BRANCH   6   7
HETATM    7  N   UNL     1     -10.553  10.529  68.704  1.00  0.00    -0.187 N  
HETATM    8  C   UNL     1      -9.106  10.998  68.776  1.00  0.00    -0.157 C  
HETATM    9  C   UNL     1     -10.658   9.448  67.623  1.00  0.00    -0.271 C  
HETATM   10  C   UNL     1     -10.969   9.908  70.035  1.00  0.00    -0.291 C  
ENDBRANCH   6   7
ENDBRANCH   5   6
ENDBRANCH   4   5
ENDBRANCH   2   4
TORSDOF 4
ENDMDL
MODEL       34
REMARK 921   NORMALIZED FREE ENERGY PREDICTED BY IDOCK:   -2.89 KCAL/MOL
REMARK 922        TOTAL FREE ENERGY PREDICTED BY IDOCK:   -3.90 KCAL/MOL
REMARK 923 INTER-LIGAND FREE ENERGY PREDICTED BY IDOCK:   -3.69 KCAL/MOL
REMARK 924 INTRA-LIGAND FREE ENERGY PREDICTED BY IDOCK:   -0.21 KCAL/MOL
REMARK 927      BINDING AFFINITY PREDICTED BY RF-SCORE:    0.00 PKD
ROOT
HETATM    1  C   UNL     1     -11.771  11.154  70.265  1.00  0.00    -0.431 C  
HETATM    2  C   UNL     1     -12.888  10.961  71.241  1.00  0.00    -0.433 C  
HETATM    3  O   UNL     1     -13.198  11.743  72.129  1.00  0.00    -0.498 OA 
ENDROOT
BRANCH   2   4
HETATM    4  O   UNL     1     -13.559   9.803  70.982  1.00  0.00    -0.320 OA 
BRANCH   4   5
HETATM    5  C   UNL     1     -13.650   8.901  72.101  1.00  0.00    -0.453 C  
BRANCH   5   6
HETATM    6  C   UNL     1     -13.342   7.458  71.668  1.00  0.00    -0.364 C  
BRANCH   6   7
HETATM    7  N   UNL     1     -11.855   7.055  71.761  1.00  0.00    -0.296 N  
HETATM    8  C   UNL     1     -11.221   6.925  70.383  1.00  0.00    -0.312 C  
HETATM    9  C   UNL     1     -11.784   5.691  72.457  1.00  0.00    -0.197 C  
HETATM   10  C   UNL     1     -11.072   8.057  72.606  1.00  0.00    -0.387 C  
ENDBRANCH   6   7
ENDBRANCH   5   6
ENDBRANCH   4   5
ENDBRANCH   2   4
TORSDOF 4
ENDMDL
MODEL       35
REMARK 921   NORMALIZED FREE ENERGY PREDICTED BY IDOCK:   -2.88 KCAL/MOL
REMARK 922        TOTAL FREE ENERGY PREDICTED BY IDOCK:   -3.89 KCAL/MOL
REMARK 923 INTER-LIGAND FREE ENERGY PREDICTED BY IDOCK:   -3.79 KCAL/MOL
REMARK 924 INTRA-LIGAND FREE ENERGY PREDICTED BY IDOCK:   -0.11 KCAL/MOL
REMARK 927      BINDING AFFINITY PREDICTED BY RF-SCORE:    0.00 PKD
ROOT
HETATM    1  C   UNL     1     -12.994  14.804  71.463  1.00  0.00    -0.410 C  
HETATM    2  C   UNL     1     -11.974  15.874  71.697  1.00  0.00    -0.480 C  
HETATM    3  O   UNL     1     -11.827  16.500  72.738  1.00  0.00    -0.539 OA 
ENDROOT
BRANCH   2   4
HETATM    4  O   UNL     1     -11.186  16.037  70.596  1.00  0.00    -0.354 OA 
BRANCH   4   5
HETATM    5  C   UNL     1     -11.435  15.094  69.537  1.00  0.00    -0.296 C  
BRANCH   5   6
HETATM    6  C   UNL     1     -11.380  15.784  68.164  1.00  0.00    -0.337 C  
BRANCH   6   7
HETATM    7  N   UNL     1     -10.959  14.871  66.994  1.00  0.00    -0.320 N  
HETATM    8  C   UNL     1     -10.603  15.678  65.753  1.00  0.00    -0.361 C  
HETATM    9  C   UNL     1     -12.149  13.966  66.658  1.00  0.00    -0.448 C  
HETATM   10  C   UNL     1      -9.786  13.980  67.394  1.00  0.00    -0.240 C  
ENDBRANCH   6   7
ENDBRANCH   5   6
ENDBRANCH   4   5
ENDBRANCH   2   4
TORSDOF 4
ENDMDL
MODEL       36
REMARK 921   NORMALIZED FREE ENERGY PREDICTED BY IDOCK:   -2.86 KCAL/MOL
REMARK 922        TOTAL FREE ENERGY PREDICTED BY IDOCK:   -3.86 KCAL/MOL
REMARK 923 INTER-LIGAND FREE ENERGY PREDICTED BY IDOCK:   -3.76 KCAL/MOL
REMARK 924 INTRA-LIGAND FREE ENERGY PREDICTED BY IDOCK:   -0.10 KCAL/MOL
REMARK 927      BINDING AFFINITY PREDICTED BY RF-SCORE:    0.00 PKD
ROOT
HETATM    1  C   UNL     1     -10.725  19.331  67.056  1.00  0.00    -0.565 C  
HETATM    2  C   UNL     1     -10.155  18.805  68.337  1.00  0.00    -0.393 C  
HETATM    3  O   UNL     1      -9.585  19.473  69.188  1.00  0.00    -0.394 OA 
ENDROOT
BRANCH   2   4
HETATM    4  O   UNL     1     -10.396  17.469  68.458  1.00  0.00    -0.348 OA 
BRANCH   4   5
HETATM    5  C   UNL     1     -10.441  16.753  67.209  1.00  0.00    -0.310 C  
BRANCH   5   6
HETATM    6  C   UNL     1     -11.257  15.458  67.349  1.00  0.00    -0.287 C  
BRANCH   6   7
HETATM    7  N   UNL     1     -11.094  14.458  66.184  1.00  0.00    -0.323 N  
HETATM    8  C   UNL     1     -12.320  13.568  66.033  1.00  0.00    -0.433 C  
HETATM    9  C   UNL     1      -9.886  13.569  66.498  1.00  0.00    -0.291 C  
HETATM   10  C   UNL     1     -10.814  15.191  64.875  1.00  0.00    -0.418 C  
ENDBRANCH   6   7
ENDBRANCH   5   6
ENDBRANCH   4   5
ENDBRANCH   2   4
TORSDOF 4
ENDMDL
MODEL       37
REMARK 921   NORMALIZED FREE ENERGY PREDICTED BY IDOCK:   -2.85 KCAL/MOL
REMARK 922        TOTAL FREE ENERGY PREDICTED BY IDOCK:   -3.85 KCAL/MOL
REMARK 923 INTER-LIGAND FREE ENERGY PREDICTED BY IDOCK:   -3.67 KCAL/MOL
REMARK 924 INTRA-LIGAND FREE ENERGY PREDICTED BY IDOCK:   -0.18 KCAL/MOL
REMARK 927      BINDING AFFINITY PREDICTED BY RF-SCORE:    0.00 PKD
ROOT
HETATM    1  C   UNL     1      -9.632  11.504  67.921  1.00  0.00    -0.178 C  
HETATM    2  C   UNL     1     -10.840  10.674  67.623  1.00  0.00    -0.292 C  
HETATM    3  O   UNL     1     -10.884   9.451  67.638  1.00  0.00    -0.267 OA 
ENDROOT
BRANCH   2   4
HETATM    4  O   UNL     1     -11.919  11.468  67.369  1.00  0.00    -0.623 OA 
BRANCH   4   5
HETATM    5  C   UNL     1     -11.595  12.837  67.062  1.00  0.00    -0.360 C  
BRANCH   5   6
HETATM    6  C   UNL     1     -12.475  13.365  65.918  1.00  0.00    -0.408 C  
BRANCH   6   7
HETATM    7  N   UNL     1     -11.711  13.745  64.632  1.00  0.00    -0.377 N  
HETATM    8  C   UNL     1     -10.205  13.737  64.851  1.00  0.00    -0.348 C  
HETATM    9  C   UNL     1     -12.136  15.164  64.239  1.00  0.00    -0.261 C  
HETATM   10  C   UNL     1     -12.079  12.808  63.484  1.00  0.00    -0.559 C  
ENDBRANCH   6   7
ENDBRANCH   5   6
ENDBRANCH   4   5
ENDBRANCH   2   4
TORSDOF 4
ENDMDL
MODEL       38
REMARK 921   NORMALIZED FREE ENERGY PREDICTED BY IDOCK:   -2.84 KCAL/MOL
REMARK 922        TOTAL FREE ENERGY PREDICTED BY IDOCK:   -3.84 KCAL/MOL
REMARK 923 INTER-LIGAND FREE ENERGY PREDICTED BY IDOCK:   -3.72 KCAL/MOL
REMARK 924 INTRA-LIGAND FREE ENERGY PREDICTED BY IDOCK:   -0.12 KCAL/MOL
REMARK 927      BINDING AFFINITY PREDICTED BY RF-SCORE:    0.00 PKD
ROOT
HETATM    1  C   UNL     1     -12.616  13.792  65.459  1.00  0.00    -0.551 C  
HETATM    2  C   UNL     1     -11.898  13.118  66.585  1.00  0.00    -0.391 C  
HETATM    3  O   UNL     1     -11.945  11.923  66.845  1.00  0.00    -0.614 OA 
ENDROOT
BRANCH   2   4
HETATM    4  O   UNL     1     -11.135  14.014  67.274  1.00  0.00    -0.289 OA 
BRANCH   4   5
HETATM    5  C   UNL     1     -11.044  15.315  66.665  1.00  0.00    -0.276 C  
BRANCH   5   6
HETATM    6  C   UNL     1     -10.680  16.384  67.708  1.00  0.00    -0.328 C  
BRANCH   6   7
HETATM    7  N   UNL     1      -9.586  17.379  67.266  1.00  0.00    -0.253 N  
HETATM    8  C   UNL     1     -10.185  18.624  66.627  1.00  0.00    -0.404 C  
HETATM    9  C   UNL     1      -8.709  16.675  66.225  1.00  0.00    -0.324 C  
HETATM   10  C   UNL     1      -8.698  17.770  68.445  1.00  0.00    -0.292 C  
ENDBRANCH   6   7
ENDBRANCH   5   6
ENDBRANCH   4   5
ENDBRANCH   2   4
TORSDOF 4
ENDMDL
MODEL       39
REMARK 921   NORMALIZED FREE ENERGY PREDICTED BY IDOCK:   -2.84 KCAL/MOL
REMARK 922        TOTAL FREE ENERGY PREDICTED BY IDOCK:   -3.84 KCAL/MOL
REMARK 923 INTER-LIGAND FREE ENERGY PREDICTED BY IDOCK:   -3.72 KCAL/MOL
REMARK 924 INTRA-LIGAND FREE ENERGY PREDICTED BY IDOCK:   -0.11 KCAL/MOL
REMARK 927      BINDING AFFINITY PREDICTED BY RF-SCORE:    0.00 PKD
ROOT
HETATM    1  C   UNL     1     -10.782  19.212  67.418  1.00  0.00    -0.578 C  
HETATM    2  C   UNL     1     -10.082  18.991  66.113  1.00  0.00    -0.406 C  
HETATM    3  O   UNL     1      -9.213  19.711  65.643  1.00  0.00    -0.323 OA 
ENDROOT
BRANCH   2   4
HETATM    4  O   UNL     1     -10.515  17.840  65.524  1.00  0.00    -0.646 OA 
BRANCH   4   5
HETATM    5  C   UNL     1      -9.888  16.642  66.020  1.00  0.00    -0.309 C  
BRANCH   5   6
HETATM    6  C   UNL     1     -10.865  15.456  65.980  1.00  0.00    -0.314 C  
BRANCH   6   7
HETATM    7  N   UNL     1     -10.589  14.351  67.022  1.00  0.00    -0.272 N  
HETATM    8  C   UNL     1     -11.879  13.714  67.519  1.00  0.00    -0.381 C  
HETATM    9  C   UNL     1      -9.878  15.001  68.214  1.00  0.00    -0.219 C  
HETATM   10  C   UNL     1      -9.664  13.282  66.447  1.00  0.00    -0.276 C  
ENDBRANCH   6   7
ENDBRANCH   5   6
ENDBRANCH   4   5
ENDBRANCH   2   4
TORSDOF 4
ENDMDL
MODEL       40
REMARK 921   NORMALIZED FREE ENERGY PREDICTED BY IDOCK:   -2.83 KCAL/MOL
REMARK 922        TOTAL FREE ENERGY PREDICTED BY IDOCK:   -3.83 KCAL/MOL
REMARK 923 INTER-LIGAND FREE ENERGY PREDICTED BY IDOCK:   -3.50 KCAL/MOL
REMARK 924 INTRA-LIGAND FREE ENERGY PREDICTED BY IDOCK:   -0.34 KCAL/MOL
REMARK 927      BINDING AFFINITY PREDICTED BY RF-SCORE:    0.00 PKD
ROOT
HETATM    1  C   UNL     1     -11.598  15.467  64.486  1.00  0.00    -0.283 C  
HETATM    2  C   UNL     1     -12.387  14.198  64.575  1.00  0.00    -0.392 C  
HETATM    3  O   UNL     1     -13.282  13.973  65.378  1.00  0.00    -0.761 OA 
ENDROOT
BRANCH   2   4
HETATM    4  O   UNL     1     -12.004  13.324  63.601  1.00  0.00    -0.487 OA 
BRANCH   4   5
HETATM    5  C   UNL     1     -11.629  12.020  64.081  1.00  0.00    -0.379 C  
BRANCH   5   6
HETATM    6  C   UNL     1     -10.123  11.961  64.385  1.00  0.00    -0.279 C  
BRANCH   6   7
HETATM    7  N   UNL     1      -9.766  11.821  65.881  1.00  0.00    -0.233 N  
HETATM    8  C   UNL     1      -8.689  10.769  66.105  1.00  0.00    -0.180 C  
HETATM    9  C   UNL     1     -11.033  11.383  66.623  1.00  0.00    -0.285 C  
HETATM   10  C   UNL     1      -9.319  13.161  66.460  1.00  0.00    -0.216 C  
ENDBRANCH   6   7
ENDBRANCH   5   6
ENDBRANCH   4   5
ENDBRANCH   2   4
TORSDOF 4
ENDMDL
MODEL       41
REMARK 921   NORMALIZED FREE ENERGY PREDICTED BY IDOCK:   -2.83 KCAL/MOL
REMARK 922        TOTAL FREE ENERGY PREDICTED BY IDOCK:   -3.83 KCAL/MOL
REMARK 923 INTER-LIGAND FREE ENERGY PREDICTED BY IDOCK:   -3.71 KCAL/MOL
REMARK 924 INTRA-LIGAND FREE ENERGY PREDICTED BY IDOCK:   -0.12 KCAL/MOL
REMARK 927      BINDING AFFINITY PREDICTED BY RF-SCORE:    0.00 PKD
ROOT
HETATM    1  C   UNL     1     -11.526  15.710  64.462  1.00  0.00    -0.304 C  
HETATM    2  C   UNL     1     -12.379  14.486  64.341  1.00  0.00    -0.413 C  
HETATM    3  O   UNL     1     -12.632  13.895  63.300  1.00  0.00    -0.824 OA 
ENDROOT
BRANCH   2   4
HETATM    4  O   UNL     1     -12.812  14.079  65.569  1.00  0.00    -0.615 OA 
BRANCH   4   5
HETATM    5  C   UNL     1     -11.768  13.630  66.453  1.00  0.00    -0.373 C  
BRANCH   5   6
HETATM    6  C   UNL     1     -11.711  12.094  66.497  1.00  0.00    -0.321 C  
BRANCH   6   7
HETATM    7  N   UNL     1     -10.429  11.509  67.129  1.00  0.00    -0.215 N  
HETATM    8  C   UNL     1     -10.272  10.029  66.809  1.00  0.00    -0.232 C  
HETATM    9  C   UNL     1     -10.545  11.667  68.648  1.00  0.00    -0.209 C  
HETATM   10  C   UNL     1      -9.196  12.280  66.666  1.00  0.00    -0.208 C  
ENDBRANCH   6   7
ENDBRANCH   5   6
ENDBRANCH   4   5
ENDBRANCH   2   4
TORSDOF 4
ENDMDL
MODEL       42
REMARK 921   NORMALIZED FREE ENERGY PREDICTED BY IDOCK:   -2.82 KCAL/MOL
REMARK 922        TOTAL FREE ENERGY PREDICTED BY IDOCK:   -3.81 KCAL/MOL
REMARK 923 INTER-LIGAND FREE ENERGY PREDICTED BY IDOCK:   -3.50 KCAL/MOL
REMARK 924 INTRA-LIGAND FREE ENERGY PREDICTED BY IDOCK:   -0.31 KCAL/MOL
REMARK 927      BINDING AFFINITY PREDICTED BY RF-SCORE:    0.00 PKD
ROOT
HETATM    1  C   UNL     1     -10.271  10.804  66.068  1.00  0.00    -0.310 C  
HETATM    2  C   UNL     1     -11.196  11.559  65.166  1.00  0.00    -0.146 C  
HETATM    3  O   UNL     1     -11.088  11.649  63.951  1.00  0.00    -0.359 OA 
ENDROOT
BRANCH   2   4
HETATM    4  O   UNL     1     -12.219  12.110  65.880  1.00  0.00    -0.604 OA 
BRANCH   4   5
HETATM    5  C   UNL     1     -12.380  13.529  65.697  1.00  0.00    -0.476 C  
BRANCH   5   6
HETATM    6  C   UNL     1     -11.983  14.294  66.970  1.00  0.00    -0.433 C  
BRANCH   6   7
HETATM    7  N   UNL     1     -10.604  14.986  66.910  1.00  0.00    -0.291 N  
HETATM    8  C   UNL     1     -10.089  15.087  65.481  1.00  0.00    -0.369 C  
HETATM    9  C   UNL     1      -9.620  14.137  67.721  1.00  0.00    -0.219 C  
HETATM   10  C   UNL     1     -10.665  16.373  67.544  1.00  0.00    -0.298 C  
ENDBRANCH   6   7
ENDBRANCH   5   6
ENDBRANCH   4   5
ENDBRANCH   2   4
TORSDOF 4
ENDMDL
MODEL       43
REMARK 921   NORMALIZED FREE ENERGY PREDICTED BY IDOCK:   -2.80 KCAL/MOL
REMARK 922        TOTAL FREE ENERGY PREDICTED BY IDOCK:   -3.80 KCAL/MOL
REMARK 923 INTER-LIGAND FREE ENERGY PREDICTED BY IDOCK:   -3.69 KCAL/MOL
REMARK 924 INTRA-LIGAND FREE ENERGY PREDICTED BY IDOCK:   -0.11 KCAL/MOL
REMARK 927      BINDING AFFINITY PREDICTED BY RF-SCORE:    0.00 PKD
ROOT
HETATM    1  C   UNL     1     -12.648  13.732  71.238  1.00  0.00    -0.444 C  
HETATM    2  C   UNL     1     -13.418  15.009  71.360  1.00  0.00    -0.446 C  
HETATM    3  O   UNL     1     -14.363  15.200  72.113  1.00  0.00    -0.513 OA 
ENDROOT
BRANCH   2   4
HETATM    4  O   UNL     1     -12.896  15.966  70.541  1.00  0.00    -0.422 OA 
BRANCH   4   5
HETATM    5  C   UNL     1     -11.843  15.503  69.675  1.00  0.00    -0.366 C  
BRANCH   5   6
HETATM    6  C   UNL     1     -10.667  16.493  69.666  1.00  0.00    -0.323 C  
BRANCH   6   7
HETATM    7  N   UNL     1     -10.041  16.746  68.278  1.00  0.00    -0.261 N  
HETATM    8  C   UNL     1      -8.521  16.803  68.350  1.00  0.00    -0.231 C  
HETATM    9  C   UNL     1     -10.553  18.100  67.775  1.00  0.00    -0.389 C  
HETATM   10  C   UNL     1     -10.479  15.676  67.281  1.00  0.00    -0.292 C  
ENDBRANCH   6   7
ENDBRANCH   5   6
ENDBRANCH   4   5
ENDBRANCH   2   4
TORSDOF 4
ENDMDL
MODEL       44
REMARK 921   NORMALIZED FREE ENERGY PREDICTED BY IDOCK:   -2.80 KCAL/MOL
REMARK 922        TOTAL FREE ENERGY PREDICTED BY IDOCK:   -3.79 KCAL/MOL
REMARK 923 INTER-LIGAND FREE ENERGY PREDICTED BY IDOCK:   -3.72 KCAL/MOL
REMARK 924 INTRA-LIGAND FREE ENERGY PREDICTED BY IDOCK:   -0.07 KCAL/MOL
REMARK 927      BINDING AFFINITY PREDICTED BY RF-SCORE:    0.00 PKD
ROOT
HETATM    1  C   UNL     1     -10.284  10.563  69.160  1.00  0.00    -0.241 C  
HETATM    2  C   UNL     1     -11.467  11.473  69.048  1.00  0.00    -0.291 C  
HETATM    3  O   UNL     1     -11.979  11.848  68.003  1.00  0.00    -0.527 OA 
ENDROOT
BRANCH   2   4
HETATM    4  O   UNL     1     -11.939  11.802  70.284  1.00  0.00    -0.340 OA 
BRANCH   4   5
HETATM    5  C   UNL     1     -12.114  13.214  70.502  1.00  0.00    -0.306 C  
BRANCH   5   6
HETATM    6  C   UNL     1     -12.553  13.496  71.948  1.00  0.00    -0.111 C  
BRANCH   6   7
HETATM    7  N   UNL     1     -12.765  14.987  72.285  1.00  0.00    -0.321 N  
HETATM    8  C   UNL     1     -12.313  15.312  73.702  1.00  0.00    -0.571 C  
HETATM    9  C   UNL     1     -14.264  15.282  72.175  1.00  0.00    -0.571 C  
HETATM   10  C   UNL     1     -12.033  15.879  71.284  1.00  0.00    -0.442 C  
ENDBRANCH   6   7
ENDBRANCH   5   6
ENDBRANCH   4   5
ENDBRANCH   2   4
TORSDOF 4
ENDMDL
MODEL       45
REMARK 921   NORMALIZED FREE ENERGY PREDICTED BY IDOCK:   -2.79 KCAL/MOL
REMARK 922        TOTAL FREE ENERGY PREDICTED BY IDOCK:   -3.77 KCAL/MOL
REMARK 923 INTER-LIGAND FREE ENERGY PREDICTED BY IDOCK:   -3.70 KCAL/MOL
REMARK 924 INTRA-LIGAND FREE ENERGY PREDICTED BY IDOCK:   -0.07 KCAL/MOL
REMARK 927      BINDING AFFINITY PREDICTED BY RF-SCORE:    0.00 PKD
ROOT
HETATM    1  C   UNL     1     -10.581  17.728  67.554  1.00  0.00    -0.365 C  
HETATM    2  C   UNL     1      -9.907  17.595  66.225  1.00  0.00    -0.288 C  
HETATM    3  O   UNL     1      -8.817  18.065  65.931  1.00  0.00    -0.504 OA 
ENDROOT
BRANCH   2   4
HETATM    4  O   UNL     1     -10.657  16.832  65.380  1.00  0.00    -0.563 OA 
BRANCH   4   5
HETATM    5  C   UNL     1     -10.346  15.427  65.407  1.00  0.00    -0.394 C  
BRANCH   5   6
HETATM    6  C   UNL     1     -11.513  14.619  65.998  1.00  0.00    -0.332 C  
BRANCH   6   7
HETATM    7  N   UNL     1     -11.108  13.293  66.678  1.00  0.00    -0.287 N  
HETATM    8  C   UNL     1      -9.609  13.230  66.936  1.00  0.00    -0.249 C  
HETATM    9  C   UNL     1     -11.485  12.149  65.730  1.00  0.00    -0.361 C  
HETATM   10  C   UNL     1     -11.874  13.096  67.983  1.00  0.00    -0.358 C  
ENDBRANCH   6   7
ENDBRANCH   5   6
ENDBRANCH   4   5
ENDBRANCH   2   4
TORSDOF 4
ENDMDL
MODEL       46
REMARK 921   NORMALIZED FREE ENERGY PREDICTED BY IDOCK:   -2.77 KCAL/MOL
REMARK 922        TOTAL FREE ENERGY PREDICTED BY IDOCK:   -3.76 KCAL/MOL
REMARK 923 INTER-LIGAND FREE ENERGY PREDICTED BY IDOCK:   -3.67 KCAL/MOL
REMARK 924 INTRA-LIGAND FREE ENERGY PREDICTED BY IDOCK:   -0.09 KCAL/MOL
REMARK 927      BINDING AFFINITY PREDICTED BY RF-SCORE:    0.00 PKD
ROOT
HETATM    1  C   UNL     1      -9.521  15.729  67.737  1.00  0.00    -0.212 C  
HETATM    2  C   UNL     1     -10.620  16.666  68.130  1.00  0.00    -0.336 C  
HETATM    3  O   UNL     1     -10.599  17.882  67.998  1.00  0.00    -0.385 OA 
ENDROOT
BRANCH   2   4
HETATM    4  O   UNL     1     -11.688  15.976  68.622  1.00  0.00    -0.382 OA 
BRANCH   4   5
HETATM    5  C   UNL     1     -11.469  15.377  69.913  1.00  0.00    -0.312 C  
BRANCH   5   6
HETATM    6  C   UNL     1     -12.721  14.618  70.384  1.00  0.00    -0.316 C  
BRANCH   6   7
HETATM    7  N   UNL     1     -12.979  14.670  71.905  1.00  0.00    -0.315 N  
HETATM    8  C   UNL     1     -11.803  15.283  72.653  1.00  0.00    -0.429 C  
HETATM    9  C   UNL     1     -13.169  13.231  72.395  1.00  0.00    -0.436 C  
HETATM   10  C   UNL     1     -14.258  15.446  72.213  1.00  0.00    -0.545 C  
ENDBRANCH   6   7
ENDBRANCH   5   6
ENDBRANCH   4   5
ENDBRANCH   2   4
TORSDOF 4
ENDMDL
MODEL       47
REMARK 921   NORMALIZED FREE ENERGY PREDICTED BY IDOCK:   -2.77 KCAL/MOL
REMARK 922        TOTAL FREE ENERGY PREDICTED BY IDOCK:   -3.75 KCAL/MOL
REMARK 923 INTER-LIGAND FREE ENERGY PREDICTED BY IDOCK:   -3.64 KCAL/MOL
REMARK 924 INTRA-LIGAND FREE ENERGY PREDICTED BY IDOCK:   -0.11 KCAL/MOL
REMARK 927      BINDING AFFINITY PREDICTED BY RF-SCORE:    0.00 PKD
ROOT
HETATM    1  C   UNL     1     -10.086  10.681  68.987  1.00  0.00    -0.226 C  
HETATM    2  C   UNL     1     -11.548  11.003  68.996  1.00  0.00    -0.323 C  
HETATM    3  O   UNL     1     -12.298  10.871  69.953  1.00  0.00    -0.326 OA 
ENDROOT
BRANCH   2   4
HETATM    4  O   UNL     1     -11.936  11.513  67.792  1.00  0.00    -0.623 OA 
BRANCH   4   5
HETATM    5  C   UNL     1     -10.850  11.871  66.916  1.00  0.00    -0.263 C  
BRANCH   5   6
HETATM    6  C   UNL     1     -10.800  13.392  66.699  1.00  0.00    -0.282 C  
BRANCH   6   7
HETATM    7  N   UNL     1     -11.248  13.864  65.300  1.00  0.00    -0.304 N  
HETATM    8  C   UNL     1     -10.753  15.272  64.998  1.00  0.00    -0.439 C  
HETATM    9  C   UNL     1     -12.780  13.874  65.279  1.00  0.00    -0.449 C  
HETATM   10  C   UNL     1     -10.768  12.897  64.221  1.00  0.00    -0.406 C  
ENDBRANCH   6   7
ENDBRANCH   5   6
ENDBRANCH   4   5
ENDBRANCH   2   4
TORSDOF 4
ENDMDL
MODEL       48
REMARK 921   NORMALIZED FREE ENERGY PREDICTED BY IDOCK:   -2.76 KCAL/MOL
REMARK 922        TOTAL FREE ENERGY PREDICTED BY IDOCK:   -3.74 KCAL/MOL
REMARK 923 INTER-LIGAND FREE ENERGY PREDICTED BY IDOCK:   -3.69 KCAL/MOL
REMARK 924 INTRA-LIGAND FREE ENERGY PREDICTED BY IDOCK:   -0.05 KCAL/MOL
REMARK 927      BINDING AFFINITY PREDICTED BY RF-SCORE:    0.00 PKD
ROOT
HETATM    1  C   UNL     1     -12.053  13.434  70.300  1.00  0.00    -0.419 C  
HETATM    2  C   UNL     1     -12.377  14.876  70.066  1.00  0.00    -0.312 C  
HETATM    3  O   UNL     1     -12.999  15.598  70.833  1.00  0.00    -0.482 OA 
ENDROOT
BRANCH   2   4
HETATM    4  O   UNL     1     -11.843  15.303  68.887  1.00  0.00    -0.338 OA 
BRANCH   4   5
HETATM    5  C   UNL     1     -11.323  14.254  68.050  1.00  0.00    -0.294 C  
BRANCH   5   6
HETATM    6  C   UNL     1     -12.212  14.048  66.813  1.00  0.00    -0.404 C  
BRANCH   6   7
HETATM    7  N   UNL     1     -11.447  13.841  65.489  1.00  0.00    -0.307 N  
HETATM    8  C   UNL     1     -12.121  14.565  64.331  1.00  0.00    -0.472 C  
HETATM    9  C   UNL     1     -11.441  12.339  65.183  1.00  0.00    -0.341 C  
HETATM   10  C   UNL     1      -9.997  14.301  65.622  1.00  0.00    -0.320 C  
ENDBRANCH   6   7
ENDBRANCH   5   6
ENDBRANCH   4   5
ENDBRANCH   2   4
TORSDOF 4
ENDMDL
MODEL       49
REMARK 921   NORMALIZED FREE ENERGY PREDICTED BY IDOCK:   -2.76 KCAL/MOL
REMARK 922        TOTAL FREE ENERGY PREDICTED BY IDOCK:   -3.74 KCAL/MOL
REMARK 923 INTER-LIGAND FREE ENERGY PREDICTED BY IDOCK:   -3.65 KCAL/MOL
REMARK 924 INTRA-LIGAND FREE ENERGY PREDICTED BY IDOCK:   -0.08 KCAL/MOL
REMARK 927      BINDING AFFINITY PREDICTED BY RF-SCORE:    0.00 PKD
ROOT
HETATM    1  C   UNL     1     -12.282   9.424  71.699  1.00  0.00    -0.467 C  
HETATM    2  C   UNL     1     -12.415  10.827  71.195  1.00  0.00    -0.414 C  
HETATM    3  O   UNL     1     -13.088  11.707  71.713  1.00  0.00    -0.465 OA 
ENDROOT
BRANCH   2   4
HETATM    4  O   UNL     1     -11.642  11.015  70.087  1.00  0.00    -0.296 OA 
BRANCH   4   5
HETATM    5  C   UNL     1     -11.716  12.338  69.524  1.00  0.00    -0.332 C  
BRANCH   5   6
HETATM    6  C   UNL     1     -11.766  12.278  67.988  1.00  0.00    -0.356 C  
BRANCH   6   7
HETATM    7  N   UNL     1     -11.356  13.582  67.272  1.00  0.00    -0.302 N  
HETATM    8  C   UNL     1     -11.751  14.812  68.078  1.00  0.00    -0.333 C  
HETATM    9  C   UNL     1     -12.090  13.627  65.928  1.00  0.00    -0.439 C  
HETATM   10  C   UNL     1      -9.855  13.599  66.991  1.00  0.00    -0.251 C  
ENDBRANCH   6   7
ENDBRANCH   5   6
ENDBRANCH   4   5
ENDBRANCH   2   4
TORSDOF 4
ENDMDL
MODEL       50
REMARK 921   NORMALIZED FREE ENERGY PREDICTED BY IDOCK:   -2.72 KCAL/MOL
REMARK 922        TOTAL FREE ENERGY PREDICTED BY IDOCK:   -3.69 KCAL/MOL
REMARK 923 INTER-LIGAND FREE ENERGY PREDICTED BY IDOCK:   -3.48 KCAL/MOL
REMARK 924 INTRA-LIGAND FREE ENERGY PREDICTED BY IDOCK:   -0.21 KCAL/MOL
REMARK 927      BINDING AFFINITY PREDICTED BY RF-SCORE:    0.00 PKD
ROOT
HETATM    1  C   UNL     1     -12.893  13.988  65.345  1.00  0.00    -0.442 C  
HETATM    2  C   UNL     1     -12.636  12.604  64.835  1.00  0.00    -0.450 C  
HETATM    3  O   UNL     1     -13.291  12.030  63.976  1.00  0.00    -0.703 OA 
ENDROOT
BRANCH   2   4
HETATM    4  O   UNL     1     -11.532  12.070  65.430  1.00  0.00    -0.340 OA 
BRANCH   4   5
HETATM    5  C   UNL     1     -10.301  12.755  65.132  1.00  0.00    -0.295 C  
BRANCH   5   6
HETATM    6  C   UNL     1      -9.454  12.936  66.402  1.00  0.00    -0.226 C  
BRANCH   6   7
HETATM    7  N   UNL     1      -9.407  14.377  66.953  1.00  0.00    -0.245 N  
HETATM    8  C   UNL     1      -9.649  15.405  65.856  1.00  0.00    -0.351 C  
HETATM    9  C   UNL     1      -8.008  14.609  67.534  1.00  0.00    -0.190 C  
HETATM   10  C   UNL     1     -10.422  14.562  68.078  1.00  0.00    -0.236 C  
ENDBRANCH   6   7
ENDBRANCH   5   6
ENDBRANCH   4   5
ENDBRANCH   2   4
TORSDOF 4
ENDMDL
MODEL       51
REMARK 921   NORMALIZED FREE ENERGY PREDICTED BY IDOCK:   -2.69 KCAL/MOL
REMARK 922        TOTAL FREE ENERGY PREDICTED BY IDOCK:   -3.66 KCAL/MOL
REMARK 923 INTER-LIGAND FREE ENERGY PREDICTED BY IDOCK:   -3.53 KCAL/MOL
REMARK 924 INTRA-LIGAND FREE ENERGY PREDICTED BY IDOCK:   -0.13 KCAL/MOL
REMARK 927      BINDING AFFINITY PREDICTED BY RF-SCORE:    0.00 PKD
ROOT
HETATM    1  C   UNL     1     -11.417  10.990  68.435  1.00  0.00    -0.378 C  
HETATM    2  C   UNL     1     -11.613  12.137  67.495  1.00  0.00    -0.343 C  
HETATM    3  O   UNL     1     -12.102  12.063  66.376  1.00  0.00    -0.610 OA 
ENDROOT
BRANCH   2   4
HETATM    4  O   UNL     1     -11.209  13.305  68.071  1.00  0.00    -0.252 OA 
BRANCH   4   5
HETATM    5  C   UNL     1     -11.811  14.487  67.512  1.00  0.00    -0.374 C  
BRANCH   5   6
HETATM    6  C   UNL     1     -11.378  15.742  68.287  1.00  0.00    -0.354 C  
BRANCH   6   7
HETATM    7  N   UNL     1     -10.247  16.557  67.626  1.00  0.00    -0.271 N  
HETATM    8  C   UNL     1      -8.918  16.357  68.342  1.00  0.00    -0.214 C  
HETATM    9  C   UNL     1     -10.626  18.039  67.713  1.00  0.00    -0.394 C  
HETATM   10  C   UNL     1     -10.106  16.193  66.150  1.00  0.00    -0.338 C  
ENDBRANCH   6   7
ENDBRANCH   5   6
ENDBRANCH   4   5
ENDBRANCH   2   4
TORSDOF 4
ENDMDL
MODEL       52
REMARK 921   NORMALIZED FREE ENERGY PREDICTED BY IDOCK:   -2.68 KCAL/MOL
REMARK 922        TOTAL FREE ENERGY PREDICTED BY IDOCK:   -3.65 KCAL/MOL
REMARK 923 INTER-LIGAND FREE ENERGY PREDICTED BY IDOCK:   -3.53 KCAL/MOL
REMARK 924 INTRA-LIGAND FREE ENERGY PREDICTED BY IDOCK:   -0.12 KCAL/MOL
REMARK 927      BINDING AFFINITY PREDICTED BY RF-SCORE:    0.00 PKD
ROOT
HETATM    1  C   UNL     1     -12.673   9.996  71.547  1.00  0.00    -0.532 C  
HETATM    2  C   UNL     1     -11.696  10.532  70.548  1.00  0.00    -0.350 C  
HETATM    3  O   UNL     1     -10.581  10.078  70.331  1.00  0.00    -0.286 OA 
ENDROOT
BRANCH   2   4
HETATM    4  O   UNL     1     -12.232  11.584  69.867  1.00  0.00    -0.290 OA 
BRANCH   4   5
HETATM    5  C   UNL     1     -11.299  12.295  69.033  1.00  0.00    -0.280 C  
BRANCH   5   6
HETATM    6  C   UNL     1     -11.740  12.257  67.560  1.00  0.00    -0.332 C  
BRANCH   6   7
HETATM    7  N   UNL     1     -11.559  13.583  66.792  1.00  0.00    -0.345 N  
HETATM    8  C   UNL     1     -10.232  13.623  66.047  1.00  0.00    -0.307 C  
HETATM    9  C   UNL     1     -11.574  14.721  67.817  1.00  0.00    -0.357 C  
HETATM   10  C   UNL     1     -12.714  13.808  65.819  1.00  0.00    -0.446 C  
ENDBRANCH   6   7
ENDBRANCH   5   6
ENDBRANCH   4   5
ENDBRANCH   2   4
TORSDOF 4
ENDMDL
MODEL       53
REMARK 921   NORMALIZED FREE ENERGY PREDICTED BY IDOCK:   -2.67 KCAL/MOL
REMARK 922        TOTAL FREE ENERGY PREDICTED BY IDOCK:   -3.63 KCAL/MOL
REMARK 923 INTER-LIGAND FREE ENERGY PREDICTED BY IDOCK:   -3.36 KCAL/MOL
REMARK 924 INTRA-LIGAND FREE ENERGY PREDICTED BY IDOCK:   -0.27 KCAL/MOL
REMARK 927      BINDING AFFINITY PREDICTED BY RF-SCORE:    0.00 PKD
ROOT
HETATM    1  C   UNL     1     -11.770  15.677  68.891  1.00  0.00    -0.396 C  
HETATM    2  C   UNL     1     -10.685  16.143  67.972  1.00  0.00    -0.321 C  
HETATM    3  O   UNL     1     -10.695  17.184  67.331  1.00  0.00    -0.323 OA 
ENDROOT
BRANCH   2   4
HETATM    4  O   UNL     1      -9.643  15.263  67.974  1.00  0.00    -0.201 OA 
BRANCH   4   5
HETATM    5  C   UNL     1      -9.938  13.985  67.380  1.00  0.00    -0.243 C  
BRANCH   5   6
HETATM    6  C   UNL     1      -9.888  14.069  65.846  1.00  0.00    -0.281 C  
BRANCH   6   7
HETATM    7  N   UNL     1     -11.151  13.551  65.125  1.00  0.00    -0.307 N  
HETATM    8  C   UNL     1     -11.951  12.603  66.007  1.00  0.00    -0.417 C  
HETATM    9  C   UNL     1     -10.694  12.784  63.879  1.00  0.00    -0.409 C  
HETATM   10  C   UNL     1     -12.031  14.712  64.668  1.00  0.00    -0.462 C  
ENDBRANCH   6   7
ENDBRANCH   5   6
ENDBRANCH   4   5
ENDBRANCH   2   4
TORSDOF 4
ENDMDL
MODEL       54
REMARK 921   NORMALIZED FREE ENERGY PREDICTED BY IDOCK:   -2.66 KCAL/MOL
REMARK 922        TOTAL FREE ENERGY PREDICTED BY IDOCK:   -3.62 KCAL/MOL
REMARK 923 INTER-LIGAND FREE ENERGY PREDICTED BY IDOCK:   -3.49 KCAL/MOL
REMARK 924 INTRA-LIGAND FREE ENERGY PREDICTED BY IDOCK:   -0.13 KCAL/MOL
REMARK 927      BINDING AFFINITY PREDICTED BY RF-SCORE:    0.00 PKD
ROOT
HETATM    1  C   UNL     1     -10.777  13.212  67.910  1.00  0.00    -0.249 C  
HETATM    2  C   UNL     1     -11.741  12.221  67.338  1.00  0.00    -0.335 C  
HETATM    3  O   UNL     1     -12.153  12.213  66.186  1.00  0.00    -0.621 OA 
ENDROOT
BRANCH   2   4
HETATM    4  O   UNL     1     -12.077  11.283  68.270  1.00  0.00    -0.619 OA 
BRANCH   4   5
HETATM    5  C   UNL     1     -11.010  10.924  69.168  1.00  0.00    -0.239 C  
BRANCH   5   6
HETATM    6  C   UNL     1     -11.569  10.370  70.488  1.00  0.00    -0.344 C  
BRANCH   6   7
HETATM    7  N   UNL     1     -11.152   8.920  70.813  1.00  0.00    -0.251 N  
HETATM    8  C   UNL     1     -10.642   8.192  69.578  1.00  0.00    -0.213 C  
HETATM    9  C   UNL     1     -12.392   8.183  71.331  1.00  0.00    -0.298 C  
HETATM   10  C   UNL     1     -10.094   8.893  71.913  1.00  0.00    -0.322 C  
ENDBRANCH   6   7
ENDBRANCH   5   6
ENDBRANCH   4   5
ENDBRANCH   2   4
TORSDOF 4
ENDMDL
MODEL       55
REMARK 921   NORMALIZED FREE ENERGY PREDICTED BY IDOCK:   -2.66 KCAL/MOL
REMARK 922        TOTAL FREE ENERGY PREDICTED BY IDOCK:   -3.61 KCAL/MOL
REMARK 923 INTER-LIGAND FREE ENERGY PREDICTED BY IDOCK:   -3.52 KCAL/MOL
REMARK 924 INTRA-LIGAND FREE ENERGY PREDICTED BY IDOCK:   -0.10 KCAL/MOL
REMARK 927      BINDING AFFINITY PREDICTED BY RF-SCORE:    0.00 PKD
ROOT
HETATM    1  C   UNL     1     -10.904  19.222  67.316  1.00  0.00    -0.554 C  
HETATM    2  C   UNL     1     -10.335  17.896  67.715  1.00  0.00    -0.387 C  
HETATM    3  O   UNL     1     -10.469  17.366  68.809  1.00  0.00    -0.348 OA 
ENDROOT
BRANCH   2   4
HETATM    4  O   UNL     1      -9.673  17.323  66.670  1.00  0.00    -0.264 OA 
BRANCH   4   5
HETATM    5  C   UNL     1      -9.593  15.886  66.728  1.00  0.00    -0.236 C  
BRANCH   5   6
HETATM    6  C   UNL     1     -10.151  15.255  65.442  1.00  0.00    -0.362 C  
BRANCH   6   7
HETATM    7  N   UNL     1     -10.920  13.933  65.648  1.00  0.00    -0.286 N  
HETATM    8  C   UNL     1     -10.178  12.991  66.586  1.00  0.00    -0.257 C  
HETATM    9  C   UNL     1     -11.051  13.252  64.281  1.00  0.00    -0.388 C  
HETATM   10  C   UNL     1     -12.327  14.200  66.178  1.00  0.00    -0.436 C  
ENDBRANCH   6   7
ENDBRANCH   5   6
ENDBRANCH   4   5
ENDBRANCH   2   4
TORSDOF 4
ENDMDL
MODEL       56
REMARK 921   NORMALIZED FREE ENERGY PREDICTED BY IDOCK:   -2.63 KCAL/MOL
REMARK 922        TOTAL FREE ENERGY PREDICTED BY IDOCK:   -3.59 KCAL/MOL
REMARK 923 INTER-LIGAND FREE ENERGY PREDICTED BY IDOCK:   -3.40 KCAL/MOL
REMARK 924 INTRA-LIGAND FREE ENERGY PREDICTED BY IDOCK:   -0.19 KCAL/MOL
REMARK 927      BINDING AFFINITY PREDICTED BY RF-SCORE:    0.00 PKD
ROOT
HETATM    1  C   UNL     1     -10.523   9.587  67.880  1.00  0.00    -0.293 C  
HETATM    2  C   UNL     1     -11.196  10.484  68.871  1.00  0.00    -0.266 C  
HETATM    3  O   UNL     1     -12.165  11.195  68.643  1.00  0.00    -0.582 OA 
ENDROOT
BRANCH   2   4
HETATM    4  O   UNL     1     -10.609  10.373  70.096  1.00  0.00    -0.273 OA 
BRANCH   4   5
HETATM    5  C   UNL     1     -11.418   9.719  71.091  1.00  0.00    -0.398 C  
BRANCH   5   6
HETATM    6  C   UNL     1     -10.770   8.400  71.543  1.00  0.00    -0.247 C  
BRANCH   6   7
HETATM    7  N   UNL     1     -11.682   7.159  71.442  1.00  0.00    -0.279 N  
HETATM    8  C   UNL     1     -11.382   6.150  72.541  1.00  0.00    -0.286 C  
HETATM    9  C   UNL     1     -11.414   6.493  70.088  1.00  0.00    -0.415 C  
HETATM   10  C   UNL     1     -13.154   7.562  71.486  1.00  0.00    -0.356 C  
ENDBRANCH   6   7
ENDBRANCH   5   6
ENDBRANCH   4   5
ENDBRANCH   2   4
TORSDOF 4
ENDMDL
MODEL       57
REMARK 921   NORMALIZED FREE ENERGY PREDICTED BY IDOCK:   -2.63 KCAL/MOL
REMARK 922        TOTAL FREE ENERGY PREDICTED BY IDOCK:   -3.59 KCAL/MOL
REMARK 923 INTER-LIGAND FREE ENERGY PREDICTED BY IDOCK:   -3.37 KCAL/MOL
REMARK 924 INTRA-LIGAND FREE ENERGY PREDICTED BY IDOCK:   -0.21 KCAL/MOL
REMARK 927      BINDING AFFINITY PREDICTED BY RF-SCORE:    0.00 PKD
ROOT
HETATM    1  C   UNL     1     -14.203   7.908  71.803  1.00  0.00    -0.555 C  
HETATM    2  C   UNL     1     -13.252   8.988  72.214  1.00  0.00    -0.460 C  
HETATM    3  O   UNL     1     -13.529  10.174  72.328  1.00  0.00    -0.398 OA 
ENDROOT
BRANCH   2   4
HETATM    4  O   UNL     1     -12.024   8.465  72.494  1.00  0.00    -0.393 OA 
BRANCH   4   5
HETATM    5  C   UNL     1     -10.938   9.065  71.764  1.00  0.00    -0.372 C  
BRANCH   5   6
HETATM    6  C   UNL     1     -11.030   8.725  70.267  1.00  0.00    -0.235 C  
BRANCH   6   7
HETATM    7  N   UNL     1     -10.322   7.419  69.852  1.00  0.00    -0.212 N  
HETATM    8  C   UNL     1      -9.686   7.539  68.473  1.00  0.00    -0.156 C  
HETATM    9  C   UNL     1     -11.378   6.310  69.803  1.00  0.00    -0.436 C  
HETATM   10  C   UNL     1      -9.268   7.021  70.882  1.00  0.00    -0.156 C  
ENDBRANCH   6   7
ENDBRANCH   5   6
ENDBRANCH   4   5
ENDBRANCH   2   4
TORSDOF 4
ENDMDL
MODEL       58
REMARK 921   NORMALIZED FREE ENERGY PREDICTED BY IDOCK:   -2.61 KCAL/MOL
REMARK 922        TOTAL FREE ENERGY PREDICTED BY IDOCK:   -3.56 KCAL/MOL
REMARK 923 INTER-LIGAND FREE ENERGY PREDICTED BY IDOCK:   -3.41 KCAL/MOL
REMARK 924 INTRA-LIGAND FREE ENERGY PREDICTED BY IDOCK:   -0.14 KCAL/MOL
REMARK 927      BINDING AFFINITY PREDICTED BY RF-SCORE:    0.00 PKD
ROOT
HETATM    1  C   UNL     1      -7.981  15.328  67.032  1.00  0.00    -0.243 C  
HETATM    2  C   UNL     1      -8.614  16.485  66.325  1.00  0.00    -0.332 C  
HETATM    3  O   UNL     1      -8.013  17.417  65.809  1.00  0.00    -0.538 OA 
ENDROOT
BRANCH   2   4
HETATM    4  O   UNL     1      -9.970  16.344  66.291  1.00  0.00    -0.286 OA 
BRANCH   4   5
HETATM    5  C   UNL     1     -10.440  15.287  65.434  1.00  0.00    -0.398 C  
BRANCH   5   6
HETATM    6  C   UNL     1     -11.485  14.420  66.156  1.00  0.00    -0.357 C  
BRANCH   6   7
HETATM    7  N   UNL     1     -11.482  12.930  65.756  1.00  0.00    -0.322 N  
HETATM    8  C   UNL     1     -12.491  12.644  64.652  1.00  0.00    -0.466 C  
HETATM    9  C   UNL     1     -11.873  12.114  66.993  1.00  0.00    -0.216 C  
HETATM   10  C   UNL     1     -10.088  12.487  65.320  1.00  0.00    -0.257 C  
ENDBRANCH   6   7
ENDBRANCH   5   6
ENDBRANCH   4   5
ENDBRANCH   2   4
TORSDOF 4
ENDMDL
MODEL       59
REMARK 921   NORMALIZED FREE ENERGY PREDICTED BY IDOCK:   -2.61 KCAL/MOL
REMARK 922        TOTAL FREE ENERGY PREDICTED BY IDOCK:   -3.56 KCAL/MOL
REMARK 923 INTER-LIGAND FREE ENERGY PREDICTED BY IDOCK:   -3.43 KCAL/MOL
REMARK 924 INTRA-LIGAND FREE ENERGY PREDICTED BY IDOCK:   -0.13 KCAL/MOL
REMARK 927      BINDING AFFINITY PREDICTED BY RF-SCORE:    0.00 PKD
ROOT
HETATM    1  C   UNL     1     -10.393  19.906  68.511  1.00  0.00    -0.463 C  
HETATM    2  C   UNL     1      -9.199  19.107  68.092  1.00  0.00    -0.327 C  
HETATM    3  O   UNL     1      -8.134  19.569  67.708  1.00  0.00    -0.281 OA 
ENDROOT
BRANCH   2   4
HETATM    4  O   UNL     1      -9.439  17.773  68.235  1.00  0.00    -0.271 OA 
BRANCH   4   5
HETATM    5  C   UNL     1     -10.711  17.335  67.721  1.00  0.00    -0.333 C  
BRANCH   5   6
HETATM    6  C   UNL     1     -10.876  15.815  67.889  1.00  0.00    -0.314 C  
BRANCH   6   7
HETATM    7  N   UNL     1     -10.735  14.998  66.587  1.00  0.00    -0.306 N  
HETATM    8  C   UNL     1     -10.745  15.895  65.358  1.00  0.00    -0.399 C  
HETATM    9  C   UNL     1     -11.933  14.047  66.502  1.00  0.00    -0.444 C  
HETATM   10  C   UNL     1      -9.463  14.154  66.610  1.00  0.00    -0.289 C  
ENDBRANCH   6   7
ENDBRANCH   5   6
ENDBRANCH   4   5
ENDBRANCH   2   4
TORSDOF 4
ENDMDL
MODEL       60
REMARK 921   NORMALIZED FREE ENERGY PREDICTED BY IDOCK:   -2.61 KCAL/MOL
REMARK 922        TOTAL FREE ENERGY PREDICTED BY IDOCK:   -3.56 KCAL/MOL
REMARK 923 INTER-LIGAND FREE ENERGY PREDICTED BY IDOCK:   -3.47 KCAL/MOL
REMARK 924 INTRA-LIGAND FREE ENERGY PREDICTED BY IDOCK:   -0.09 KCAL/MOL
REMARK 927      BINDING AFFINITY PREDICTED BY RF-SCORE:    0.00 PKD
ROOT
HETATM    1  C   UNL     1     -11.856  12.812  68.279  1.00  0.00    -0.357 C  
HETATM    2  C   UNL     1     -12.000  13.322  66.880  1.00  0.00    -0.375 C  
HETATM    3  O   UNL     1     -12.388  12.669  65.922  1.00  0.00    -0.593 OA 
ENDROOT
BRANCH   2   4
HETATM    4  O   UNL     1     -11.680  14.646  66.815  1.00  0.00    -0.373 OA 
BRANCH   4   5
HETATM    5  C   UNL     1     -10.423  14.927  66.170  1.00  0.00    -0.306 C  
BRANCH   5   6
HETATM    6  C   UNL     1     -10.291  16.426  65.858  1.00  0.00    -0.362 C  
BRANCH   6   7
HETATM    7  N   UNL     1      -9.572  17.256  66.942  1.00  0.00    -0.258 N  
HETATM    8  C   UNL     1      -9.054  16.375  68.071  1.00  0.00    -0.200 C  
HETATM    9  C   UNL     1     -10.589  18.242  67.526  1.00  0.00    -0.409 C  
HETATM   10  C   UNL     1      -8.425  18.062  66.338  1.00  0.00    -0.235 C  
ENDBRANCH   6   7
ENDBRANCH   5   6
ENDBRANCH   4   5
ENDBRANCH   2   4
TORSDOF 4
ENDMDL
MODEL       61
REMARK 921   NORMALIZED FREE ENERGY PREDICTED BY IDOCK:   -2.61 KCAL/MOL
REMARK 922        TOTAL FREE ENERGY PREDICTED BY IDOCK:   -3.55 KCAL/MOL
REMARK 923 INTER-LIGAND FREE ENERGY PREDICTED BY IDOCK:   -3.37 KCAL/MOL
REMARK 924 INTRA-LIGAND FREE ENERGY PREDICTED BY IDOCK:   -0.19 KCAL/MOL
REMARK 927      BINDING AFFINITY PREDICTED BY RF-SCORE:    0.00 PKD
ROOT
HETATM    1  C   UNL     1     -14.002   8.943  72.111  1.00  0.00    -0.520 C  
HETATM    2  C   UNL     1     -13.013  10.054  71.947  1.00  0.00    -0.447 C  
HETATM    3  O   UNL     1     -13.278  11.248  71.955  1.00  0.00    -0.506 OA 
ENDROOT
BRANCH   2   4
HETATM    4  O   UNL     1     -11.748   9.559  71.828  1.00  0.00    -0.383 OA 
BRANCH   4   5
HETATM    5  C   UNL     1     -11.571   8.235  72.365  1.00  0.00    -0.396 C  
BRANCH   5   6
HETATM    6  C   UNL     1     -10.209   7.654  71.953  1.00  0.00    -0.193 C  
BRANCH   6   7
HETATM    7  N   UNL     1     -10.194   6.937  70.586  1.00  0.00    -0.195 N  
HETATM    8  C   UNL     1     -11.589   6.488  70.173  1.00  0.00    -0.402 C  
HETATM    9  C   UNL     1      -9.306   5.696  70.720  1.00  0.00    -0.163 C  
HETATM   10  C   UNL     1      -9.592   7.835  69.508  1.00  0.00    -0.160 C  
ENDBRANCH   6   7
ENDBRANCH   5   6
ENDBRANCH   4   5
ENDBRANCH   2   4
TORSDOF 4
ENDMDL
MODEL       62
REMARK 921   NORMALIZED FREE ENERGY PREDICTED BY IDOCK:   -2.60 KCAL/MOL
REMARK 922        TOTAL FREE ENERGY PREDICTED BY IDOCK:   -3.55 KCAL/MOL
REMARK 923 INTER-LIGAND FREE ENERGY PREDICTED BY IDOCK:   -3.42 KCAL/MOL
REMARK 924 INTRA-LIGAND FREE ENERGY PREDICTED BY IDOCK:   -0.13 KCAL/MOL
REMARK 927      BINDING AFFINITY PREDICTED BY RF-SCORE:    0.00 PKD
ROOT
HETATM    1  C   UNL     1     -12.169  11.344  70.537  1.00  0.00    -0.478 C  
HETATM    2  C   UNL     1     -11.670  10.946  69.183  1.00  0.00    -0.326 C  
HETATM    3  O   UNL     1     -12.204  11.226  68.119  1.00  0.00    -0.622 OA 
ENDROOT
BRANCH   2   4
HETATM    4  O   UNL     1     -10.500  10.255  69.286  1.00  0.00    -0.199 OA 
BRANCH   4   5
HETATM    5  C   UNL     1     -10.394   9.428  70.459  1.00  0.00    -0.281 C  
BRANCH   5   6
HETATM    6  C   UNL     1     -10.839   7.988  70.157  1.00  0.00    -0.242 C  
BRANCH   6   7
HETATM    7  N   UNL     1     -11.389   7.209  71.371  1.00  0.00    -0.251 N  
HETATM    8  C   UNL     1     -12.908   7.108  71.331  1.00  0.00    -0.384 C  
HETATM    9  C   UNL     1     -10.988   7.973  72.636  1.00  0.00    -0.382 C  
HETATM   10  C   UNL     1     -10.773   5.814  71.446  1.00  0.00    -0.256 C  
ENDBRANCH   6   7
ENDBRANCH   5   6
ENDBRANCH   4   5
ENDBRANCH   2   4
TORSDOF 4
ENDMDL
MODEL       63
REMARK 921   NORMALIZED FREE ENERGY PREDICTED BY IDOCK:   -2.59 KCAL/MOL
REMARK 922        TOTAL FREE ENERGY PREDICTED BY IDOCK:   -3.53 KCAL/MOL
REMARK 923 INTER-LIGAND FREE ENERGY PREDICTED BY IDOCK:   -3.39 KCAL/MOL
REMARK 924 INTRA-LIGAND FREE ENERGY PREDICTED BY IDOCK:   -0.14 KCAL/MOL
REMARK 927      BINDING AFFINITY PREDICTED BY RF-SCORE:    0.00 PKD
ROOT
HETATM    1  C   UNL     1     -11.047  11.418  67.212  1.00  0.00    -0.363 C  
HETATM    2  C   UNL     1     -11.866  11.908  68.365  1.00  0.00    -0.289 C  
HETATM    3  O   UNL     1     -12.022  13.080  68.678  1.00  0.00    -0.319 OA 
ENDROOT
BRANCH   2   4
HETATM    4  O   UNL     1     -12.463  10.864  69.008  1.00  0.00    -0.425 OA 
BRANCH   4   5
HETATM    5  C   UNL     1     -12.185  10.792  70.418  1.00  0.00    -0.349 C  
BRANCH   5   6
HETATM    6  C   UNL     1     -11.125   9.719  70.714  1.00  0.00    -0.345 C  
BRANCH   6   7
HETATM    7  N   UNL     1     -11.610   8.553  71.601  1.00  0.00    -0.279 N  
HETATM    8  C   UNL     1     -12.915   8.892  72.309  1.00  0.00    -0.419 C  
HETATM    9  C   UNL     1     -10.536   8.297  72.663  1.00  0.00    -0.303 C  
HETATM   10  C   UNL     1     -11.775   7.277  70.780  1.00  0.00    -0.299 C  
ENDBRANCH   6   7
ENDBRANCH   5   6
ENDBRANCH   4   5
ENDBRANCH   2   4
TORSDOF 4
ENDMDL
MODEL       64
REMARK 921   NORMALIZED FREE ENERGY PREDICTED BY IDOCK:   -2.59 KCAL/MOL
REMARK 922        TOTAL FREE ENERGY PREDICTED BY IDOCK:   -3.53 KCAL/MOL
REMARK 923 INTER-LIGAND FREE ENERGY PREDICTED BY IDOCK:   -3.40 KCAL/MOL
REMARK 924 INTRA-LIGAND FREE ENERGY PREDICTED BY IDOCK:   -0.13 KCAL/MOL
REMARK 927      BINDING AFFINITY PREDICTED BY RF-SCORE:    0.00 PKD
ROOT
HETATM    1  C   UNL     1      -5.572  20.764  65.160  1.00  0.00    -0.255 C  
HETATM    2  C   UNL     1      -6.145  19.618  64.388  1.00  0.00    -0.230 C  
HETATM    3  O   UNL     1      -5.862  19.327  63.234  1.00  0.00    -0.414 OA 
ENDROOT
BRANCH   2   4
HETATM    4  O   UNL     1      -7.007  18.899  65.162  1.00  0.00    -0.490 OA 
BRANCH   4   5
HETATM    5  C   UNL     1      -7.905  19.696  65.956  1.00  0.00    -0.326 C  
BRANCH   5   6
HETATM    6  C   UNL     1      -8.148  19.046  67.328  1.00  0.00    -0.262 C  
BRANCH   6   7
HETATM    7  N   UNL     1      -9.612  18.646  67.609  1.00  0.00    -0.295 N  
HETATM    8  C   UNL     1     -10.416  18.521  66.322  1.00  0.00    -0.406 C  
HETATM    9  C   UNL     1     -10.240  19.750  68.466  1.00  0.00    -0.433 C  
HETATM   10  C   UNL     1      -9.677  17.341  68.397  1.00  0.00    -0.293 C  
ENDBRANCH   6   7
ENDBRANCH   5   6
ENDBRANCH   4   5
ENDBRANCH   2   4
TORSDOF 4
ENDMDL
MODEL       65
REMARK 921   NORMALIZED FREE ENERGY PREDICTED BY IDOCK:   -2.59 KCAL/MOL
REMARK 922        TOTAL FREE ENERGY PREDICTED BY IDOCK:   -3.53 KCAL/MOL
REMARK 923 INTER-LIGAND FREE ENERGY PREDICTED BY IDOCK:   -3.37 KCAL/MOL
REMARK 924 INTRA-LIGAND FREE ENERGY PREDICTED BY IDOCK:   -0.15 KCAL/MOL
REMARK 927      BINDING AFFINITY PREDICTED BY RF-SCORE:    0.00 PKD
ROOT
HETATM    1  C   UNL     1     -11.541  10.754  69.967  1.00  0.00    -0.417 C  
HETATM    2  C   UNL     1     -11.402  10.625  68.482  1.00  0.00    -0.284 C  
HETATM    3  O   UNL     1     -10.758   9.764  67.901  1.00  0.00    -0.245 OA 
ENDROOT
BRANCH   2   4
HETATM    4  O   UNL     1     -12.136  11.583  67.846  1.00  0.00    -0.630 OA 
BRANCH   4   5
HETATM    5  C   UNL     1     -11.849  12.931  68.261  1.00  0.00    -0.330 C  
BRANCH   5   6
HETATM    6  C   UNL     1     -11.800  13.879  67.051  1.00  0.00    -0.415 C  
BRANCH   6   7
HETATM    7  N   UNL     1     -10.384  14.325  66.632  1.00  0.00    -0.275 N  
HETATM    8  C   UNL     1      -9.567  13.162  66.086  1.00  0.00    -0.200 C  
HETATM    9  C   UNL     1      -9.678  14.870  67.878  1.00  0.00    -0.206 C  
HETATM   10  C   UNL     1     -10.452  15.448  65.599  1.00  0.00    -0.372 C  
ENDBRANCH   6   7
ENDBRANCH   5   6
ENDBRANCH   4   5
ENDBRANCH   2   4
TORSDOF 4
ENDMDL
MODEL       66
REMARK 921   NORMALIZED FREE ENERGY PREDICTED BY IDOCK:   -2.57 KCAL/MOL
REMARK 922        TOTAL FREE ENERGY PREDICTED BY IDOCK:   -3.51 KCAL/MOL
REMARK 923 INTER-LIGAND FREE ENERGY PREDICTED BY IDOCK:   -3.18 KCAL/MOL
REMARK 924 INTRA-LIGAND FREE ENERGY PREDICTED BY IDOCK:   -0.33 KCAL/MOL
REMARK 927      BINDING AFFINITY PREDICTED BY RF-SCORE:    0.00 PKD
ROOT
HETATM    1  C   UNL     1     -10.686  19.548  66.990  1.00  0.00    -0.592 C  
HETATM    2  C   UNL     1     -10.151  18.200  66.620  1.00  0.00    -0.373 C  
HETATM    3  O   UNL     1     -10.575  17.129  67.033  1.00  0.00    -0.306 OA 
ENDROOT
BRANCH   2   4
HETATM    4  O   UNL     1      -9.140  18.316  65.712  1.00  0.00    -0.443 OA 
BRANCH   4   5
HETATM    5  C   UNL     1      -8.028  19.115  66.154  1.00  0.00    -0.276 C  
BRANCH   5   6
HETATM    6  C   UNL     1      -6.922  18.231  66.754  1.00  0.00    -0.196 C  
BRANCH   6   7
HETATM    7  N   UNL     1      -6.799  18.296  68.291  1.00  0.00    -0.224 N  
HETATM    8  C   UNL     1      -7.459  19.547  68.854  1.00  0.00    -0.357 C  
HETATM    9  C   UNL     1      -5.307  18.336  68.639  1.00  0.00    -0.169 C  
HETATM   10  C   UNL     1      -7.401  17.050  68.937  1.00  0.00    -0.245 C  
ENDBRANCH   6   7
ENDBRANCH   5   6
ENDBRANCH   4   5
ENDBRANCH   2   4
TORSDOF 4
ENDMDL
MODEL       67
REMARK 921   NORMALIZED FREE ENERGY PREDICTED BY IDOCK:   -2.55 KCAL/MOL
REMARK 922        TOTAL FREE ENERGY PREDICTED BY IDOCK:   -3.49 KCAL/MOL
REMARK 923 INTER-LIGAND FREE ENERGY PREDICTED BY IDOCK:   -3.32 KCAL/MOL
REMARK 924 INTRA-LIGAND FREE ENERGY PREDICTED BY IDOCK:   -0.16 KCAL/MOL
REMARK 927      BINDING AFFINITY PREDICTED BY RF-SCORE:    0.00 PKD
ROOT
HETATM    1  C   UNL     1     -10.297  10.674  66.561  1.00  0.00    -0.299 C  
HETATM    2  C   UNL     1     -11.278  11.766  66.856  1.00  0.00    -0.327 C  
HETATM    3  O   UNL     1     -12.221  11.683  67.630  1.00  0.00    -0.544 OA 
ENDROOT
BRANCH   2   4
HETATM    4  O   UNL     1     -10.955  12.900  66.172  1.00  0.00    -0.275 OA 
BRANCH   4   5
HETATM    5  C   UNL     1     -11.796  14.033  66.461  1.00  0.00    -0.417 C  
BRANCH   5   6
HETATM    6  C   UNL     1     -10.977  15.333  66.480  1.00  0.00    -0.295 C  
BRANCH   6   7
HETATM    7  N   UNL     1     -10.788  15.964  67.876  1.00  0.00    -0.318 N  
HETATM    8  C   UNL     1     -10.739  17.483  67.803  1.00  0.00    -0.332 C  
HETATM    9  C   UNL     1      -9.453  15.462  68.437  1.00  0.00    -0.200 C  
HETATM   10  C   UNL     1     -11.896  15.519  68.827  1.00  0.00    -0.317 C  
ENDBRANCH   6   7
ENDBRANCH   5   6
ENDBRANCH   4   5
ENDBRANCH   2   4
TORSDOF 4
ENDMDL
MODEL       68
REMARK 921   NORMALIZED FREE ENERGY PREDICTED BY IDOCK:   -2.52 KCAL/MOL
REMARK 922        TOTAL FREE ENERGY PREDICTED BY IDOCK:   -3.45 KCAL/MOL
REMARK 923 INTER-LIGAND FREE ENERGY PREDICTED BY IDOCK:   -3.17 KCAL/MOL
REMARK 924 INTRA-LIGAND FREE ENERGY PREDICTED BY IDOCK:   -0.28 KCAL/MOL
REMARK 927      BINDING AFFINITY PREDICTED BY RF-SCORE:    0.00 PKD
ROOT
HETATM    1  C   UNL     1      -7.656  19.901  65.984  1.00  0.00    -0.338 C  
HETATM    2  C   UNL     1      -8.632  19.882  67.118  1.00  0.00    -0.325 C  
HETATM    3  O   UNL     1      -8.341  19.848  68.306  1.00  0.00    -0.297 OA 
ENDROOT
BRANCH   2   4
HETATM    4  O   UNL     1      -9.912  19.952  66.653  1.00  0.00    -0.390 OA 
BRANCH   4   5
HETATM    5  C   UNL     1     -10.749  18.843  67.032  1.00  0.00    -0.402 C  
BRANCH   5   6
HETATM    6  C   UNL     1     -10.521  17.642  66.100  1.00  0.00    -0.295 C  
BRANCH   6   7
HETATM    7  N   UNL     1     -10.009  16.364  66.799  1.00  0.00    -0.261 N  
HETATM    8  C   UNL     1      -8.648  15.941  66.267  1.00  0.00    -0.313 C  
HETATM    9  C   UNL     1     -11.012  15.242  66.513  1.00  0.00    -0.295 C  
HETATM   10  C   UNL     1      -9.943  16.563  68.312  1.00  0.00    -0.250 C  
ENDBRANCH   6   7
ENDBRANCH   5   6
ENDBRANCH   4   5
ENDBRANCH   2   4
TORSDOF 4
ENDMDL
MODEL       69
REMARK 921   NORMALIZED FREE ENERGY PREDICTED BY IDOCK:   -2.52 KCAL/MOL
REMARK 922        TOTAL FREE ENERGY PREDICTED BY IDOCK:   -3.45 KCAL/MOL
REMARK 923 INTER-LIGAND FREE ENERGY PREDICTED BY IDOCK:   -3.32 KCAL/MOL
REMARK 924 INTRA-LIGAND FREE ENERGY PREDICTED BY IDOCK:   -0.13 KCAL/MOL
REMARK 927      BINDING AFFINITY PREDICTED BY RF-SCORE:    0.00 PKD
ROOT
HETATM    1  C   UNL     1      -9.447   9.982  64.531  1.00  0.00    -0.359 C  
HETATM    2  C   UNL     1     -10.122   9.830  65.857  1.00  0.00    -0.243 C  
HETATM    3  O   UNL     1     -10.229   8.785  66.485  1.00  0.00    -0.288 OA 
ENDROOT
BRANCH   2   4
HETATM    4  O   UNL     1     -10.573  11.035  66.308  1.00  0.00    -0.254 OA 
BRANCH   4   5
HETATM    5  C   UNL     1     -10.778  12.021  65.278  1.00  0.00    -0.288 C  
BRANCH   5   6
HETATM    6  C   UNL     1     -10.269  13.399  65.731  1.00  0.00    -0.295 C  
BRANCH   6   7
HETATM    7  N   UNL     1     -11.351  14.496  65.816  1.00  0.00    -0.332 N  
HETATM    8  C   UNL     1     -11.027  15.675  64.909  1.00  0.00    -0.431 C  
HETATM    9  C   UNL     1     -11.394  14.997  67.264  1.00  0.00    -0.332 C  
HETATM   10  C   UNL     1     -12.726  13.930  65.471  1.00  0.00    -0.499 C  
ENDBRANCH   6   7
ENDBRANCH   5   6
ENDBRANCH   4   5
ENDBRANCH   2   4
TORSDOF 4
ENDMDL
MODEL       70
REMARK 921   NORMALIZED FREE ENERGY PREDICTED BY IDOCK:   -2.50 KCAL/MOL
REMARK 922        TOTAL FREE ENERGY PREDICTED BY IDOCK:   -3.42 KCAL/MOL
REMARK 923 INTER-LIGAND FREE ENERGY PREDICTED BY IDOCK:   -3.24 KCAL/MOL
REMARK 924 INTRA-LIGAND FREE ENERGY PREDICTED BY IDOCK:   -0.17 KCAL/MOL
REMARK 927      BINDING AFFINITY PREDICTED BY RF-SCORE:    0.00 PKD
ROOT
HETATM    1  C   UNL     1      -8.582   9.204  62.347  1.00  0.00    -0.226 C  
HETATM    2  C   UNL     1      -8.959  10.248  63.351  1.00  0.00    -0.240 C  
HETATM    3  O   UNL     1      -8.444  10.396  64.451  1.00  0.00    -0.172 OA 
ENDROOT
BRANCH   2   4
HETATM    4  O   UNL     1      -9.940  11.057  62.858  1.00  0.00    -0.299 OA 
BRANCH   4   5
HETATM    5  C   UNL     1     -11.001  11.345  63.787  1.00  0.00    -0.370 C  
BRANCH   5   6
HETATM    6  C   UNL     1     -11.388  12.832  63.733  1.00  0.00    -0.461 C  
BRANCH   6   7
HETATM    7  N   UNL     1     -11.368  13.559  65.094  1.00  0.00    -0.296 N  
HETATM    8  C   UNL     1     -10.673  14.910  64.998  1.00  0.00    -0.431 C  
HETATM    9  C   UNL     1     -10.588  12.682  66.079  1.00  0.00    -0.270 C  
HETATM   10  C   UNL     1     -12.784  13.735  65.637  1.00  0.00    -0.478 C  
ENDBRANCH   6   7
ENDBRANCH   5   6
ENDBRANCH   4   5
ENDBRANCH   2   4
TORSDOF 4
ENDMDL
MODEL       71
REMARK 921   NORMALIZED FREE ENERGY PREDICTED BY IDOCK:   -2.48 KCAL/MOL
REMARK 922        TOTAL FREE ENERGY PREDICTED BY IDOCK:   -3.40 KCAL/MOL
REMARK 923 INTER-LIGAND FREE ENERGY PREDICTED BY IDOCK:   -3.18 KCAL/MOL
REMARK 924 INTRA-LIGAND FREE ENERGY PREDICTED BY IDOCK:   -0.21 KCAL/MOL
REMARK 927      BINDING AFFINITY PREDICTED BY RF-SCORE:    0.00 PKD
ROOT
HETATM    1  C   UNL     1     -12.148   9.529  71.120  1.00  0.00    -0.429 C  
HETATM    2  C   UNL     1     -13.178   8.677  71.794  1.00  0.00    -0.363 C  
HETATM    3  O   UNL     1     -13.926   9.042  72.690  1.00  0.00    -0.463 OA 
ENDROOT
BRANCH   2   4
HETATM    4  O   UNL     1     -13.207   7.431  71.242  1.00  0.00    -0.348 OA 
BRANCH   4   5
HETATM    5  C   UNL     1     -11.921   6.792  71.138  1.00  0.00    -0.370 C  
BRANCH   5   6
HETATM    6  C   UNL     1     -11.680   5.849  72.329  1.00  0.00    -0.252 C  
BRANCH   6   7
HETATM    7  N   UNL     1     -10.310   6.012  73.021  1.00  0.00    -0.194 N  
HETATM    8  C   UNL     1      -9.167   5.582  72.113  1.00  0.00    -0.143 C  
HETATM    9  C   UNL     1     -10.306   5.115  74.264  1.00  0.00    -0.280 C  
HETATM   10  C   UNL     1     -10.102   7.454  73.480  1.00  0.00    -0.339 C  
ENDBRANCH   6   7
ENDBRANCH   5   6
ENDBRANCH   4   5
ENDBRANCH   2   4
TORSDOF 4
ENDMDL
MODEL       72
REMARK 921   NORMALIZED FREE ENERGY PREDICTED BY IDOCK:   -2.46 KCAL/MOL
REMARK 922        TOTAL FREE ENERGY PREDICTED BY IDOCK:   -3.38 KCAL/MOL
REMARK 923 INTER-LIGAND FREE ENERGY PREDICTED BY IDOCK:   -3.25 KCAL/MOL
REMARK 924 INTRA-LIGAND FREE ENERGY PREDICTED BY IDOCK:   -0.12 KCAL/MOL
REMARK 927      BINDING AFFINITY PREDICTED BY RF-SCORE:    0.00 PKD
ROOT
HETATM    1  C   UNL     1      -9.262   9.444  65.672  1.00  0.00    -0.285 C  
HETATM    2  C   UNL     1      -9.979  10.408  64.780  1.00  0.00    -0.339 C  
HETATM    3  O   UNL     1      -9.803  10.527  63.575  1.00  0.00    -0.314 OA 
ENDROOT
BRANCH   2   4
HETATM    4  O   UNL     1     -10.903  11.120  65.485  1.00  0.00    -0.228 OA 
BRANCH   4   5
HETATM    5  C   UNL     1     -10.360  12.212  66.251  1.00  0.00    -0.221 C  
BRANCH   5   6
HETATM    6  C   UNL     1     -10.294  13.494  65.406  1.00  0.00    -0.319 C  
BRANCH   6   7
HETATM    7  N   UNL     1     -11.338  14.570  65.774  1.00  0.00    -0.332 N  
HETATM    8  C   UNL     1     -12.760  14.050  65.612  1.00  0.00    -0.481 C  
HETATM    9  C   UNL     1     -11.144  15.754  64.821  1.00  0.00    -0.400 C  
HETATM   10  C   UNL     1     -11.122  15.072  67.200  1.00  0.00    -0.332 C  
ENDBRANCH   6   7
ENDBRANCH   5   6
ENDBRANCH   4   5
ENDBRANCH   2   4
TORSDOF 4
ENDMDL
MODEL       73
REMARK 921   NORMALIZED FREE ENERGY PREDICTED BY IDOCK:   -2.45 KCAL/MOL
REMARK 922        TOTAL FREE ENERGY PREDICTED BY IDOCK:   -3.36 KCAL/MOL
REMARK 923 INTER-LIGAND FREE ENERGY PREDICTED BY IDOCK:   -3.29 KCAL/MOL
REMARK 924 INTRA-LIGAND FREE ENERGY PREDICTED BY IDOCK:   -0.06 KCAL/MOL
REMARK 927      BINDING AFFINITY PREDICTED BY RF-SCORE:    0.00 PKD
ROOT
HETATM    1  C   UNL     1     -12.450  12.040  63.325  1.00  0.00    -0.544 C  
HETATM    2  C   UNL     1     -12.079  13.463  63.602  1.00  0.00    -0.450 C  
HETATM    3  O   UNL     1     -12.774  14.440  63.358  1.00  0.00    -0.689 OA 
ENDROOT
BRANCH   2   4
HETATM    4  O   UNL     1     -10.862  13.532  64.213  1.00  0.00    -0.391 OA 
BRANCH   4   5
HETATM    5  C   UNL     1     -10.918  13.764  65.633  1.00  0.00    -0.288 C  
BRANCH   5   6
HETATM    6  C   UNL     1      -9.517  14.049  66.197  1.00  0.00    -0.185 C  
BRANCH   6   7
HETATM    7  N   UNL     1      -8.920  12.918  67.062  1.00  0.00    -0.220 N  
HETATM    8  C   UNL     1      -7.524  13.268  67.557  1.00  0.00    -0.157 C  
HETATM    9  C   UNL     1      -8.824  11.664  66.186  1.00  0.00    -0.139 C  
HETATM   10  C   UNL     1      -9.832  12.600  68.244  1.00  0.00    -0.227 C  
ENDBRANCH   6   7
ENDBRANCH   5   6
ENDBRANCH   4   5
ENDBRANCH   2   4
TORSDOF 4
ENDMDL
MODEL       74
REMARK 921   NORMALIZED FREE ENERGY PREDICTED BY IDOCK:   -2.44 KCAL/MOL
REMARK 922        TOTAL FREE ENERGY PREDICTED BY IDOCK:   -3.35 KCAL/MOL
REMARK 923 INTER-LIGAND FREE ENERGY PREDICTED BY IDOCK:   -3.19 KCAL/MOL
REMARK 924 INTRA-LIGAND FREE ENERGY PREDICTED BY IDOCK:   -0.16 KCAL/MOL
REMARK 927      BINDING AFFINITY PREDICTED BY RF-SCORE:    0.00 PKD
ROOT
HETATM    1  C   UNL     1      -8.685  18.488  68.350  1.00  0.00    -0.351 C  
HETATM    2  C   UNL     1     -10.076  18.027  68.049  1.00  0.00    -0.365 C  
HETATM    3  O   UNL     1     -10.690  18.249  67.014  1.00  0.00    -0.370 OA 
ENDROOT
BRANCH   2   4
HETATM    4  O   UNL     1     -10.568  17.277  69.076  1.00  0.00    -0.323 OA 
BRANCH   4   5
HETATM    5  C   UNL     1     -11.235  16.068  68.668  1.00  0.00    -0.366 C  
BRANCH   5   6
HETATM    6  C   UNL     1     -10.249  14.891  68.609  1.00  0.00    -0.236 C  
BRANCH   6   7
HETATM    7  N   UNL     1     -10.529  13.863  67.492  1.00  0.00    -0.247 N  
HETATM    8  C   UNL     1     -10.354  12.434  67.988  1.00  0.00    -0.216 C  
HETATM    9  C   UNL     1      -9.520  14.112  66.366  1.00  0.00    -0.269 C  
HETATM   10  C   UNL     1     -11.932  14.052  66.920  1.00  0.00    -0.447 C  
ENDBRANCH   6   7
ENDBRANCH   5   6
ENDBRANCH   4   5
ENDBRANCH   2   4
TORSDOF 4
ENDMDL
MODEL       75
REMARK 921   NORMALIZED FREE ENERGY PREDICTED BY IDOCK:   -2.43 KCAL/MOL
REMARK 922        TOTAL FREE ENERGY PREDICTED BY IDOCK:   -3.33 KCAL/MOL
REMARK 923 INTER-LIGAND FREE ENERGY PREDICTED BY IDOCK:   -3.03 KCAL/MOL
REMARK 924 INTRA-LIGAND FREE ENERGY PREDICTED BY IDOCK:   -0.30 KCAL/MOL
REMARK 927      BINDING AFFINITY PREDICTED BY RF-SCORE:    0.00 PKD
ROOT
HETATM    1  C   UNL     1     -12.556  13.581  65.406  1.00  0.00    -0.531 C  
HETATM    2  C   UNL     1     -11.274  13.598  64.635  1.00  0.00    -0.373 C  
HETATM    3  O   UNL     1     -10.365  14.403  64.786  1.00  0.00    -0.431 OA 
ENDROOT
BRANCH   2   4
HETATM    4  O   UNL     1     -11.227  12.558  63.755  1.00  0.00    -0.395 OA 
BRANCH   4   5
HETATM    5  C   UNL     1     -10.007  11.794  63.796  1.00  0.00    -0.355 C  
BRANCH   5   6
HETATM    6  C   UNL     1     -10.228  10.445  64.500  1.00  0.00    -0.210 C  
BRANCH   6   7
HETATM    7  N   UNL     1      -9.592  10.331  65.901  1.00  0.00    -0.195 N  
HETATM    8  C   UNL     1      -8.545  11.412  66.132  1.00  0.00    -0.128 C  
HETATM    9  C   UNL     1      -8.904   8.964  65.991  1.00  0.00    -0.172 C  
HETATM   10  C   UNL     1     -10.660  10.394  66.989  1.00  0.00    -0.245 C  
ENDBRANCH   6   7
ENDBRANCH   5   6
ENDBRANCH   4   5
ENDBRANCH   2   4
TORSDOF 4
ENDMDL
MODEL       76
REMARK 921   NORMALIZED FREE ENERGY PREDICTED BY IDOCK:   -2.43 KCAL/MOL
REMARK 922        TOTAL FREE ENERGY PREDICTED BY IDOCK:   -3.33 KCAL/MOL
REMARK 923 INTER-LIGAND FREE ENERGY PREDICTED BY IDOCK:   -3.11 KCAL/MOL
REMARK 924 INTRA-LIGAND FREE ENERGY PREDICTED BY IDOCK:   -0.23 KCAL/MOL
REMARK 927      BINDING AFFINITY PREDICTED BY RF-SCORE:    0.00 PKD
ROOT
HETATM    1  C   UNL     1      -6.167  16.919  66.983  1.00  0.00    -0.226 C  
HETATM    2  C   UNL     1      -7.230  17.871  66.533  1.00  0.00    -0.238 C  
HETATM    3  O   UNL     1      -7.345  18.326  65.404  1.00  0.00    -0.531 OA 
ENDROOT
BRANCH   2   4
HETATM    4  O   UNL     1      -8.098  18.139  67.551  1.00  0.00    -0.234 OA 
BRANCH   4   5
HETATM    5  C   UNL     1      -8.861  17.004  68.000  1.00  0.00    -0.223 C  
BRANCH   5   6
HETATM    6  C   UNL     1     -10.219  16.938  67.282  1.00  0.00    -0.297 C  
BRANCH   6   7
HETATM    7  N   UNL     1     -10.491  15.620  66.526  1.00  0.00    -0.297 N  
HETATM    8  C   UNL     1     -11.580  14.800  67.204  1.00  0.00    -0.359 C  
HETATM    9  C   UNL     1      -9.195  14.803  66.532  1.00  0.00    -0.276 C  
HETATM   10  C   UNL     1     -10.870  15.895  65.073  1.00  0.00    -0.426 C  
ENDBRANCH   6   7
ENDBRANCH   5   6
ENDBRANCH   4   5
ENDBRANCH   2   4
TORSDOF 4
ENDMDL
MODEL       77
REMARK 921   NORMALIZED FREE ENERGY PREDICTED BY IDOCK:   -2.42 KCAL/MOL
REMARK 922        TOTAL FREE ENERGY PREDICTED BY IDOCK:   -3.33 KCAL/MOL
REMARK 923 INTER-LIGAND FREE ENERGY PREDICTED BY IDOCK:   -3.07 KCAL/MOL
REMARK 924 INTRA-LIGAND FREE ENERGY PREDICTED BY IDOCK:   -0.25 KCAL/MOL
REMARK 927      BINDING AFFINITY PREDICTED BY RF-SCORE:    0.00 PKD
ROOT
HETATM    1  C   UNL     1     -11.612   9.838  71.019  1.00  0.00    -0.455 C  
HETATM    2  C   UNL     1     -12.496   9.020  71.907  1.00  0.00    -0.384 C  
HETATM    3  O   UNL     1     -13.716   9.092  71.956  1.00  0.00    -0.408 OA 
ENDROOT
BRANCH   2   4
HETATM    4  O   UNL     1     -11.758   8.136  72.637  1.00  0.00    -0.399 OA 
BRANCH   4   5
HETATM    5  C   UNL     1     -11.857   6.768  72.198  1.00  0.00    -0.290 C  
BRANCH   5   6
HETATM    6  C   UNL     1     -10.467   6.194  71.876  1.00  0.00    -0.213 C  
BRANCH   6   7
HETATM    7  N   UNL     1     -10.193   5.958  70.376  1.00  0.00    -0.199 N  
HETATM    8  C   UNL     1      -9.094   6.874  69.855  1.00  0.00    -0.144 C  
HETATM    9  C   UNL     1     -11.484   6.268  69.611  1.00  0.00    -0.355 C  
HETATM   10  C   UNL     1      -9.828   4.499  70.113  1.00  0.00    -0.226 C  
ENDBRANCH   6   7
ENDBRANCH   5   6
ENDBRANCH   4   5
ENDBRANCH   2   4
TORSDOF 4
ENDMDL
MODEL       78
REMARK 921   NORMALIZED FREE ENERGY PREDICTED BY IDOCK:   -2.41 KCAL/MOL
REMARK 922        TOTAL FREE ENERGY PREDICTED BY IDOCK:   -3.31 KCAL/MOL
REMARK 923 INTER-LIGAND FREE ENERGY PREDICTED BY IDOCK:   -3.06 KCAL/MOL
REMARK 924 INTRA-LIGAND FREE ENERGY PREDICTED BY IDOCK:   -0.25 KCAL/MOL
REMARK 927      BINDING AFFINITY PREDICTED BY RF-SCORE:    0.00 PKD
ROOT
HETATM    1  C   UNL     1     -11.027  10.065  70.652  1.00  0.00    -0.392 C  
HETATM    2  C   UNL     1     -12.244  10.930  70.545  1.00  0.00    -0.367 C  
HETATM    3  O   UNL     1     -12.884  11.376  71.487  1.00  0.00    -0.419 OA 
ENDROOT
BRANCH   2   4
HETATM    4  O   UNL     1     -12.529  11.199  69.239  1.00  0.00    -0.377 OA 
BRANCH   4   5
HETATM    5  C   UNL     1     -11.812  12.319  68.689  1.00  0.00    -0.305 C  
BRANCH   5   6
HETATM    6  C   UNL     1     -11.510  12.098  67.198  1.00  0.00    -0.346 C  
BRANCH   6   7
HETATM    7  N   UNL     1     -10.164  11.403  66.903  1.00  0.00    -0.213 N  
HETATM    8  C   UNL     1      -9.091  11.810  67.903  1.00  0.00    -0.181 C  
HETATM    9  C   UNL     1      -9.712  11.836  65.504  1.00  0.00    -0.224 C  
HETATM   10  C   UNL     1     -10.326   9.885  66.897  1.00  0.00    -0.235 C  
ENDBRANCH   6   7
ENDBRANCH   5   6
ENDBRANCH   4   5
ENDBRANCH   2   4
TORSDOF 4
ENDMDL
MODEL       79
REMARK 921   NORMALIZED FREE ENERGY PREDICTED BY IDOCK:   -2.41 KCAL/MOL
REMARK 922        TOTAL FREE ENERGY PREDICTED BY IDOCK:   -3.31 KCAL/MOL
REMARK 923 INTER-LIGAND FREE ENERGY PREDICTED BY IDOCK:   -3.18 KCAL/MOL
REMARK 924 INTRA-LIGAND FREE ENERGY PREDICTED BY IDOCK:   -0.13 KCAL/MOL
REMARK 927      BINDING AFFINITY PREDICTED BY RF-SCORE:    0.00 PKD
ROOT
HETATM    1  C   UNL     1      -9.917   8.964  71.242  1.00  0.00    -0.358 C  
HETATM    2  C   UNL     1     -11.347   9.243  71.584  1.00  0.00    -0.397 C  
HETATM    3  O   UNL     1     -11.972   8.730  72.502  1.00  0.00    -0.343 OA 
ENDROOT
BRANCH   2   4
HETATM    4  O   UNL     1     -11.864  10.192  70.752  1.00  0.00    -0.297 OA 
BRANCH   4   5
HETATM    5  C   UNL     1     -11.061  10.472  69.591  1.00  0.00    -0.283 C  
BRANCH   5   6
HETATM    6  C   UNL     1     -11.856  11.289  68.559  1.00  0.00    -0.285 C  
BRANCH   6   7
HETATM    7  N   UNL     1     -11.418  12.762  68.419  1.00  0.00    -0.287 N  
HETATM    8  C   UNL     1     -12.033  13.635  69.503  1.00  0.00    -0.341 C  
HETATM    9  C   UNL     1     -11.906  13.266  67.056  1.00  0.00    -0.390 C  
HETATM   10  C   UNL     1      -9.896  12.882  68.449  1.00  0.00    -0.197 C  
ENDBRANCH   6   7
ENDBRANCH   5   6
ENDBRANCH   4   5
ENDBRANCH   2   4
TORSDOF 4
ENDMDL
MODEL       80
REMARK 921   NORMALIZED FREE ENERGY PREDICTED BY IDOCK:   -2.38 KCAL/MOL
REMARK 922        TOTAL FREE ENERGY PREDICTED BY IDOCK:   -3.27 KCAL/MOL
REMARK 923 INTER-LIGAND FREE ENERGY PREDICTED BY IDOCK:   -3.15 KCAL/MOL
REMARK 924 INTRA-LIGAND FREE ENERGY PREDICTED BY IDOCK:   -0.13 KCAL/MOL
REMARK 927      BINDING AFFINITY PREDICTED BY RF-SCORE:    0.00 PKD
ROOT
HETATM    1  C   UNL     1     -12.993  14.301  65.342  1.00  0.00    -0.230 C  
HETATM    2  C   UNL     1     -12.582  13.012  64.701  1.00  0.00    -0.362 C  
HETATM    3  O   UNL     1     -12.538  12.800  63.497  1.00  0.00    -0.703 OA 
ENDROOT
BRANCH   2   4
HETATM    4  O   UNL     1     -12.215  12.101  65.646  1.00  0.00    -0.571 OA 
BRANCH   4   5
HETATM    5  C   UNL     1     -11.391  12.631  66.701  1.00  0.00    -0.326 C  
BRANCH   5   6
HETATM    6  C   UNL     1      -9.900  12.488  66.356  1.00  0.00    -0.253 C  
BRANCH   6   7
HETATM    7  N   UNL     1      -9.193  11.283  67.010  1.00  0.00    -0.163 N  
HETATM    8  C   UNL     1      -9.463  11.219  68.507  1.00  0.00    -0.191 C  
HETATM    9  C   UNL     1      -7.685  11.454  66.797  1.00  0.00    -0.150 C  
HETATM   10  C   UNL     1      -9.619   9.977  66.344  1.00  0.00    -0.196 C  
ENDBRANCH   6   7
ENDBRANCH   5   6
ENDBRANCH   4   5
ENDBRANCH   2   4
TORSDOF 4
ENDMDL
MODEL       81
REMARK 921   NORMALIZED FREE ENERGY PREDICTED BY IDOCK:   -2.38 KCAL/MOL
REMARK 922        TOTAL FREE ENERGY PREDICTED BY IDOCK:   -3.27 KCAL/MOL
REMARK 923 INTER-LIGAND FREE ENERGY PREDICTED BY IDOCK:   -2.95 KCAL/MOL
REMARK 924 INTRA-LIGAND FREE ENERGY PREDICTED BY IDOCK:   -0.32 KCAL/MOL
REMARK 927      BINDING AFFINITY PREDICTED BY RF-SCORE:    0.00 PKD
ROOT
HETATM    1  C   UNL     1     -10.473  18.873  66.043  1.00  0.00    -0.507 C  
HETATM    2  C   UNL     1      -9.055  19.040  66.490  1.00  0.00    -0.334 C  
HETATM    3  O   UNL     1      -8.674  19.785  67.383  1.00  0.00    -0.304 OA 
ENDROOT
BRANCH   2   4
HETATM    4  O   UNL     1      -8.229  18.209  65.793  1.00  0.00    -0.509 OA 
BRANCH   4   5
HETATM    5  C   UNL     1      -8.279  16.831  66.207  1.00  0.00    -0.324 C  
BRANCH   5   6
HETATM    6  C   UNL     1      -7.021  16.453  67.006  1.00  0.00    -0.219 C  
BRANCH   6   7
HETATM    7  N   UNL     1      -7.222  16.364  68.533  1.00  0.00    -0.162 N  
HETATM    8  C   UNL     1      -6.612  17.560  69.250  1.00  0.00    -0.235 C  
HETATM    9  C   UNL     1      -6.518  15.094  69.024  1.00  0.00    -0.106 C  
HETATM   10  C   UNL     1      -8.704  16.246  68.880  1.00  0.00    -0.253 C  
ENDBRANCH   6   7
ENDBRANCH   5   6
ENDBRANCH   4   5
ENDBRANCH   2   4
TORSDOF 4
ENDMDL
MODEL       82
REMARK 921   NORMALIZED FREE ENERGY PREDICTED BY IDOCK:   -2.38 KCAL/MOL
REMARK 922        TOTAL FREE ENERGY PREDICTED BY IDOCK:   -3.27 KCAL/MOL
REMARK 923 INTER-LIGAND FREE ENERGY PREDICTED BY IDOCK:   -3.12 KCAL/MOL
REMARK 924 INTRA-LIGAND FREE ENERGY PREDICTED BY IDOCK:   -0.15 KCAL/MOL
REMARK 927      BINDING AFFINITY PREDICTED BY RF-SCORE:    0.00 PKD
ROOT
HETATM    1  C   UNL     1      -9.493  16.564  66.189  1.00  0.00    -0.347 C  
HETATM    2  C   UNL     1     -10.574  15.987  67.048  1.00  0.00    -0.302 C  
HETATM    3  O   UNL     1     -10.802  16.300  68.209  1.00  0.00    -0.310 OA 
ENDROOT
BRANCH   2   4
HETATM    4  O   UNL     1     -11.315  15.083  66.347  1.00  0.00    -0.341 OA 
BRANCH   4   5
HETATM    5  C   UNL     1     -11.949  14.074  67.154  1.00  0.00    -0.430 C  
BRANCH   5   6
HETATM    6  C   UNL     1     -11.738  12.676  66.550  1.00  0.00    -0.400 C  
BRANCH   6   7
HETATM    7  N   UNL     1     -10.847  11.734  67.386  1.00  0.00    -0.238 N  
HETATM    8  C   UNL     1     -10.249  10.623  66.533  1.00  0.00    -0.233 C  
HETATM    9  C   UNL     1     -11.726  11.095  68.466  1.00  0.00    -0.298 C  
HETATM   10  C   UNL     1      -9.736  12.515  68.084  1.00  0.00    -0.222 C  
ENDBRANCH   6   7
ENDBRANCH   5   6
ENDBRANCH   4   5
ENDBRANCH   2   4
TORSDOF 4
ENDMDL
MODEL       83
REMARK 921   NORMALIZED FREE ENERGY PREDICTED BY IDOCK:   -2.37 KCAL/MOL
REMARK 922        TOTAL FREE ENERGY PREDICTED BY IDOCK:   -3.26 KCAL/MOL
REMARK 923 INTER-LIGAND FREE ENERGY PREDICTED BY IDOCK:   -2.98 KCAL/MOL
REMARK 924 INTRA-LIGAND FREE ENERGY PREDICTED BY IDOCK:   -0.27 KCAL/MOL
REMARK 927      BINDING AFFINITY PREDICTED BY RF-SCORE:    0.00 PKD
ROOT
HETATM    1  C   UNL     1     -10.075  19.807  68.669  1.00  0.00    -0.546 C  
HETATM    2  C   UNL     1      -9.530  19.947  67.283  1.00  0.00    -0.365 C  
HETATM    3  O   UNL     1      -8.582  20.649  66.959  1.00  0.00    -0.281 OA 
ENDROOT
BRANCH   2   4
HETATM    4  O   UNL     1     -10.208  19.143  66.415  1.00  0.00    -0.375 OA 
BRANCH   4   5
HETATM    5  C   UNL     1     -10.271  17.759  66.807  1.00  0.00    -0.351 C  
BRANCH   5   6
HETATM    6  C   UNL     1      -8.896  17.086  66.663  1.00  0.00    -0.254 C  
BRANCH   6   7
HETATM    7  N   UNL     1      -8.430  16.287  67.899  1.00  0.00    -0.163 N  
HETATM    8  C   UNL     1      -9.592  15.964  68.829  1.00  0.00    -0.219 C  
HETATM    9  C   UNL     1      -7.425  17.155  68.663  1.00  0.00    -0.245 C  
HETATM   10  C   UNL     1      -7.721  15.002  67.479  1.00  0.00    -0.185 C  
ENDBRANCH   6   7
ENDBRANCH   5   6
ENDBRANCH   4   5
ENDBRANCH   2   4
TORSDOF 4
ENDMDL
MODEL       84
REMARK 921   NORMALIZED FREE ENERGY PREDICTED BY IDOCK:   -2.35 KCAL/MOL
REMARK 922        TOTAL FREE ENERGY PREDICTED BY IDOCK:   -3.24 KCAL/MOL
REMARK 923 INTER-LIGAND FREE ENERGY PREDICTED BY IDOCK:   -3.15 KCAL/MOL
REMARK 924 INTRA-LIGAND FREE ENERGY PREDICTED BY IDOCK:   -0.09 KCAL/MOL
REMARK 927      BINDING AFFINITY PREDICTED BY RF-SCORE:    0.00 PKD
ROOT
HETATM    1  C   UNL     1     -12.606  12.944  64.955  1.00  0.00    -0.538 C  
HETATM    2  C   UNL     1     -11.428  12.529  65.778  1.00  0.00    -0.365 C  
HETATM    3  O   UNL     1     -10.294  12.974  65.671  1.00  0.00    -0.277 OA 
ENDROOT
BRANCH   2   4
HETATM    4  O   UNL     1     -11.795  11.604  66.711  1.00  0.00    -0.557 OA 
BRANCH   4   5
HETATM    5  C   UNL     1     -10.704  11.067  67.482  1.00  0.00    -0.244 C  
BRANCH   5   6
HETATM    6  C   UNL     1     -11.169  10.684  68.897  1.00  0.00    -0.275 C  
BRANCH   6   7
HETATM    7  N   UNL     1     -10.465   9.451  69.501  1.00  0.00    -0.210 N  
HETATM    8  C   UNL     1     -11.177   8.956  70.753  1.00  0.00    -0.272 C  
HETATM    9  C   UNL     1      -9.042   9.868  69.886  1.00  0.00    -0.210 C  
HETATM   10  C   UNL     1     -10.366   8.325  68.475  1.00  0.00    -0.199 C  
ENDBRANCH   6   7
ENDBRANCH   5   6
ENDBRANCH   4   5
ENDBRANCH   2   4
TORSDOF 4
ENDMDL
MODEL       85
REMARK 921   NORMALIZED FREE ENERGY PREDICTED BY IDOCK:   -2.32 KCAL/MOL
REMARK 922        TOTAL FREE ENERGY PREDICTED BY IDOCK:   -3.20 KCAL/MOL
REMARK 923 INTER-LIGAND FREE ENERGY PREDICTED BY IDOCK:   -3.09 KCAL/MOL
REMARK 924 INTRA-LIGAND FREE ENERGY PREDICTED BY IDOCK:   -0.11 KCAL/MOL
REMARK 927      BINDING AFFINITY PREDICTED BY RF-SCORE:    0.00 PKD
ROOT
HETATM    1  C   UNL     1     -13.765   9.206  72.134  1.00  0.00    -0.531 C  
HETATM    2  C   UNL     1     -12.912  10.379  71.767  1.00  0.00    -0.475 C  
HETATM    3  O   UNL     1     -13.246  11.553  71.847  1.00  0.00    -0.485 OA 
ENDROOT
BRANCH   2   4
HETATM    4  O   UNL     1     -11.676   9.968  71.365  1.00  0.00    -0.367 OA 
BRANCH   4   5
HETATM    5  C   UNL     1     -11.235  10.529  70.114  1.00  0.00    -0.315 C  
BRANCH   5   6
HETATM    6  C   UNL     1      -9.786  10.116  69.808  1.00  0.00    -0.208 C  
BRANCH   6   7
HETATM    7  N   UNL     1      -9.621   9.176  68.595  1.00  0.00    -0.150 N  
HETATM    8  C   UNL     1     -10.638   9.482  67.505  1.00  0.00    -0.275 C  
HETATM    9  C   UNL     1      -9.850   7.741  69.083  1.00  0.00    -0.173 C  
HETATM   10  C   UNL     1      -8.205   9.262  68.031  1.00  0.00    -0.115 C  
ENDBRANCH   6   7
ENDBRANCH   5   6
ENDBRANCH   4   5
ENDBRANCH   2   4
TORSDOF 4
ENDMDL
MODEL       86
REMARK 921   NORMALIZED FREE ENERGY PREDICTED BY IDOCK:   -2.32 KCAL/MOL
REMARK 922        TOTAL FREE ENERGY PREDICTED BY IDOCK:   -3.20 KCAL/MOL
REMARK 923 INTER-LIGAND FREE ENERGY PREDICTED BY IDOCK:   -3.00 KCAL/MOL
REMARK 924 INTRA-LIGAND FREE ENERGY PREDICTED BY IDOCK:   -0.20 KCAL/MOL
REMARK 927      BINDING AFFINITY PREDICTED BY RF-SCORE:    0.00 PKD
ROOT
HETATM    1  C   UNL     1     -14.071   7.289  71.520  1.00  0.00    -0.515 C  
HETATM    2  C   UNL     1     -13.553   8.544  72.150  1.00  0.00    -0.364 C  
HETATM    3  O   UNL     1     -14.242   9.453  72.593  1.00  0.00    -0.432 OA 
ENDROOT
BRANCH   2   4
HETATM    4  O   UNL     1     -12.191   8.526  72.209  1.00  0.00    -0.357 OA 
BRANCH   4   5
HETATM    5  C   UNL     1     -11.568   7.549  71.355  1.00  0.00    -0.275 C  
BRANCH   5   6
HETATM    6  C   UNL     1     -10.123   7.271  71.803  1.00  0.00    -0.179 C  
BRANCH   6   7
HETATM    7  N   UNL     1      -9.974   6.162  72.866  1.00  0.00    -0.171 N  
HETATM    8  C   UNL     1     -11.203   5.265  72.917  1.00  0.00    -0.312 C  
HETATM    9  C   UNL     1      -9.813   6.842  74.229  1.00  0.00    -0.277 C  
HETATM   10  C   UNL     1      -8.724   5.325  72.605  1.00  0.00    -0.120 C  
ENDBRANCH   6   7
ENDBRANCH   5   6
ENDBRANCH   4   5
ENDBRANCH   2   4
TORSDOF 4
ENDMDL
MODEL       87
REMARK 921   NORMALIZED FREE ENERGY PREDICTED BY IDOCK:   -2.31 KCAL/MOL
REMARK 922        TOTAL FREE ENERGY PREDICTED BY IDOCK:   -3.19 KCAL/MOL
REMARK 923 INTER-LIGAND FREE ENERGY PREDICTED BY IDOCK:   -2.88 KCAL/MOL
REMARK 924 INTRA-LIGAND FREE ENERGY PREDICTED BY IDOCK:   -0.31 KCAL/MOL
REMARK 927      BINDING AFFINITY PREDICTED BY RF-SCORE:    0.00 PKD
ROOT
HETATM    1  C   UNL     1     -13.105   9.284  71.977  1.00  0.00    -0.512 C  
HETATM    2  C   UNL     1     -12.195   8.102  72.101  1.00  0.00    -0.350 C  
HETATM    3  O   UNL     1     -11.294   7.983  72.920  1.00  0.00    -0.408 OA 
ENDROOT
BRANCH   2   4
HETATM    4  O   UNL     1     -12.531   7.138  71.198  1.00  0.00    -0.358 OA 
BRANCH   4   5
HETATM    5  C   UNL     1     -11.425   6.342  70.733  1.00  0.00    -0.316 C  
BRANCH   5   6
HETATM    6  C   UNL     1     -11.094   6.666  69.267  1.00  0.00    -0.289 C  
BRANCH   6   7
HETATM    7  N   UNL     1     -10.006   7.742  69.068  1.00  0.00    -0.178 N  
HETATM    8  C   UNL     1     -10.611   9.133  68.931  1.00  0.00    -0.191 C  
HETATM    9  C   UNL     1      -9.254   7.411  67.775  1.00  0.00    -0.131 C  
HETATM   10  C   UNL     1      -9.003   7.718  70.218  1.00  0.00    -0.148 C  
ENDBRANCH   6   7
ENDBRANCH   5   6
ENDBRANCH   4   5
ENDBRANCH   2   4
TORSDOF 4
ENDMDL
MODEL       88
REMARK 921   NORMALIZED FREE ENERGY PREDICTED BY IDOCK:   -2.31 KCAL/MOL
REMARK 922        TOTAL FREE ENERGY PREDICTED BY IDOCK:   -3.19 KCAL/MOL
REMARK 923 INTER-LIGAND FREE ENERGY PREDICTED BY IDOCK:   -3.08 KCAL/MOL
REMARK 924 INTRA-LIGAND FREE ENERGY PREDICTED BY IDOCK:   -0.11 KCAL/MOL
REMARK 927      BINDING AFFINITY PREDICTED BY RF-SCORE:    0.00 PKD
ROOT
HETATM    1  C   UNL     1     -11.702   8.175  72.424  1.00  0.00    -0.461 C  
HETATM    2  C   UNL     1     -12.895   8.969  71.991  1.00  0.00    -0.401 C  
HETATM    3  O   UNL     1     -13.941   9.076  72.615  1.00  0.00    -0.463 OA 
ENDROOT
BRANCH   2   4
HETATM    4  O   UNL     1     -12.646   9.606  70.812  1.00  0.00    -0.247 OA 
BRANCH   4   5
HETATM    5  C   UNL     1     -11.403  10.331  70.773  1.00  0.00    -0.337 C  
BRANCH   5   6
HETATM    6  C   UNL     1     -11.424  11.398  69.666  1.00  0.00    -0.309 C  
BRANCH   6   7
HETATM    7  N   UNL     1     -10.337  11.233  68.583  1.00  0.00    -0.195 N  
HETATM    8  C   UNL     1      -9.082  10.577  69.142  1.00  0.00    -0.166 C  
HETATM    9  C   UNL     1      -9.968  12.631  68.076  1.00  0.00    -0.220 C  
HETATM   10  C   UNL     1     -10.867  10.426  67.400  1.00  0.00    -0.286 C  
ENDBRANCH   6   7
ENDBRANCH   5   6
ENDBRANCH   4   5
ENDBRANCH   2   4
TORSDOF 4
ENDMDL
MODEL       89
REMARK 921   NORMALIZED FREE ENERGY PREDICTED BY IDOCK:   -2.30 KCAL/MOL
REMARK 922        TOTAL FREE ENERGY PREDICTED BY IDOCK:   -3.17 KCAL/MOL
REMARK 923 INTER-LIGAND FREE ENERGY PREDICTED BY IDOCK:   -3.07 KCAL/MOL
REMARK 924 INTRA-LIGAND FREE ENERGY PREDICTED BY IDOCK:   -0.10 KCAL/MOL
REMARK 927      BINDING AFFINITY PREDICTED BY RF-SCORE:    0.00 PKD
ROOT
HETATM    1  C   UNL     1     -11.235  10.057  70.671  1.00  0.00    -0.425 C  
HETATM    2  C   UNL     1     -12.518  10.756  70.998  1.00  0.00    -0.420 C  
HETATM    3  O   UNL     1     -13.251  10.491  71.940  1.00  0.00    -0.446 OA 
ENDROOT
BRANCH   2   4
HETATM    4  O   UNL     1     -12.748  11.774  70.121  1.00  0.00    -0.033 OA 
BRANCH   4   5
HETATM    5  C   UNL     1     -12.230  13.052  70.538  1.00  0.00    -0.313 C  
BRANCH   5   6
HETATM    6  C   UNL     1     -11.424  13.712  69.407  1.00  0.00    -0.286 C  
BRANCH   6   7
HETATM    7  N   UNL     1     -11.104  15.206  69.623  1.00  0.00    -0.255 N  
HETATM    8  C   UNL     1     -11.762  16.080  68.564  1.00  0.00    -0.241 C  
HETATM    9  C   UNL     1      -9.585  15.377  69.517  1.00  0.00    -0.257 C  
HETATM   10  C   UNL     1     -11.533  15.657  71.017  1.00  0.00    -0.395 C  
ENDBRANCH   6   7
ENDBRANCH   5   6
ENDBRANCH   4   5
ENDBRANCH   2   4
TORSDOF 4
ENDMDL
MODEL       90
REMARK 921   NORMALIZED FREE ENERGY PREDICTED BY IDOCK:   -2.30 KCAL/MOL
REMARK 922        TOTAL FREE ENERGY PREDICTED BY IDOCK:   -3.17 KCAL/MOL
REMARK 923 INTER-LIGAND FREE ENERGY PREDICTED BY IDOCK:   -2.87 KCAL/MOL
REMARK 924 INTRA-LIGAND FREE ENERGY PREDICTED BY IDOCK:   -0.30 KCAL/MOL
REMARK 927      BINDING AFFINITY PREDICTED BY RF-SCORE:    0.00 PKD
ROOT
HETATM    1  C   UNL     1     -10.449   7.071  73.664  1.00  0.00    -0.414 C  
HETATM    2  C   UNL     1     -11.537   7.234  72.649  1.00  0.00    -0.217 C  
HETATM    3  O   UNL     1     -12.048   6.329  72.004  1.00  0.00    -0.337 OA 
ENDROOT
BRANCH   2   4
HETATM    4  O   UNL     1     -11.925   8.538  72.564  1.00  0.00    -0.389 OA 
BRANCH   4   5
HETATM    5  C   UNL     1     -12.237   8.984  71.231  1.00  0.00    -0.312 C  
BRANCH   5   6
HETATM    6  C   UNL     1     -11.237  10.054  70.763  1.00  0.00    -0.352 C  
BRANCH   6   7
HETATM    7  N   UNL     1     -10.051   9.518  69.933  1.00  0.00    -0.216 N  
HETATM    8  C   UNL     1      -9.590  10.530  68.894  1.00  0.00    -0.193 C  
HETATM    9  C   UNL     1     -10.525   8.256  69.204  1.00  0.00    -0.206 C  
HETATM   10  C   UNL     1      -8.886   9.129  70.840  1.00  0.00    -0.233 C  
ENDBRANCH   6   7
ENDBRANCH   5   6
ENDBRANCH   4   5
ENDBRANCH   2   4
TORSDOF 4
ENDMDL
MODEL       91
REMARK 921   NORMALIZED FREE ENERGY PREDICTED BY IDOCK:   -2.29 KCAL/MOL
REMARK 922        TOTAL FREE ENERGY PREDICTED BY IDOCK:   -3.16 KCAL/MOL
REMARK 923 INTER-LIGAND FREE ENERGY PREDICTED BY IDOCK:   -3.04 KCAL/MOL
REMARK 924 INTRA-LIGAND FREE ENERGY PREDICTED BY IDOCK:   -0.12 KCAL/MOL
REMARK 927      BINDING AFFINITY PREDICTED BY RF-SCORE:    0.00 PKD
ROOT
HETATM    1  C   UNL     1      -9.540   4.735  69.404  1.00  0.00    -0.249 C  
HETATM    2  C   UNL     1     -10.254   5.635  68.445  1.00  0.00    -0.191 C  
HETATM    3  O   UNL     1      -9.901   5.877  67.300  1.00  0.00    -0.122 OA 
ENDROOT
BRANCH   2   4
HETATM    4  O   UNL     1     -11.395   6.128  69.007  1.00  0.00    -0.390 OA 
BRANCH   4   5
HETATM    5  C   UNL     1     -11.355   6.243  70.442  1.00  0.00    -0.372 C  
BRANCH   5   6
HETATM    6  C   UNL     1     -12.562   7.040  70.962  1.00  0.00    -0.288 C  
BRANCH   6   7
HETATM    7  N   UNL     1     -12.209   8.352  71.694  1.00  0.00    -0.301 N  
HETATM    8  C   UNL     1     -13.452   9.048  72.230  1.00  0.00    -0.475 C  
HETATM    9  C   UNL     1     -11.531   9.282  70.682  1.00  0.00    -0.274 C  
HETATM   10  C   UNL     1     -11.223   8.092  72.830  1.00  0.00    -0.382 C  
ENDBRANCH   6   7
ENDBRANCH   5   6
ENDBRANCH   4   5
ENDBRANCH   2   4
TORSDOF 4
ENDMDL
MODEL       92
REMARK 921   NORMALIZED FREE ENERGY PREDICTED BY IDOCK:   -2.27 KCAL/MOL
REMARK 922        TOTAL FREE ENERGY PREDICTED BY IDOCK:   -3.14 KCAL/MOL
REMARK 923 INTER-LIGAND FREE ENERGY PREDICTED BY IDOCK:   -3.02 KCAL/MOL
REMARK 924 INTRA-LIGAND FREE ENERGY PREDICTED BY IDOCK:   -0.12 KCAL/MOL
REMARK 927      BINDING AFFINITY PREDICTED BY RF-SCORE:    0.00 PKD
ROOT
HETATM    1  C   UNL     1     -10.774  19.727  67.315  1.00  0.00    -0.532 C  
HETATM    2  C   UNL     1      -9.633  18.914  67.841  1.00  0.00    -0.316 C  
HETATM    3  O   UNL     1      -8.447  19.152  67.659  1.00  0.00    -0.283 OA 
ENDROOT
BRANCH   2   4
HETATM    4  O   UNL     1     -10.090  17.878  68.601  1.00  0.00    -0.362 OA 
BRANCH   4   5
HETATM    5  C   UNL     1     -10.501  16.721  67.850  1.00  0.00    -0.335 C  
BRANCH   5   6
HETATM    6  C   UNL     1     -11.638  15.976  68.569  1.00  0.00    -0.316 C  
BRANCH   6   7
HETATM    7  N   UNL     1     -11.176  14.925  69.600  1.00  0.00    -0.263 N  
HETATM    8  C   UNL     1     -12.030  13.666  69.538  1.00  0.00    -0.341 C  
HETATM    9  C   UNL     1     -11.325  15.542  70.995  1.00  0.00    -0.376 C  
HETATM   10  C   UNL     1      -9.705  14.572  69.395  1.00  0.00     0.108 C  
ENDBRANCH   6   7
ENDBRANCH   5   6
ENDBRANCH   4   5
ENDBRANCH   2   4
TORSDOF 4
ENDMDL
MODEL       93
REMARK 921   NORMALIZED FREE ENERGY PREDICTED BY IDOCK:   -2.26 KCAL/MOL
REMARK 922        TOTAL FREE ENERGY PREDICTED BY IDOCK:   -3.12 KCAL/MOL
REMARK 923 INTER-LIGAND FREE ENERGY PREDICTED BY IDOCK:   -3.05 KCAL/MOL
REMARK 924 INTRA-LIGAND FREE ENERGY PREDICTED BY IDOCK:   -0.07 KCAL/MOL
REMARK 927      BINDING AFFINITY PREDICTED BY RF-SCORE:    0.00 PKD
ROOT
HETATM    1  C   UNL     1     -10.868  19.576  66.280  1.00  0.00    -0.430 C  
HETATM    2  C   UNL     1     -10.203  18.239  66.376  1.00  0.00    -0.403 C  
HETATM    3  O   UNL     1     -10.749  17.196  66.709  1.00  0.00    -0.231 OA 
ENDROOT
BRANCH   2   4
HETATM    4  O   UNL     1      -8.897  18.323  65.995  1.00  0.00    -0.502 OA 
BRANCH   4   5
HETATM    5  C   UNL     1      -8.306  19.625  66.166  1.00  0.00    -0.335 C  
BRANCH   5   6
HETATM    6  C   UNL     1      -7.558  19.715  67.506  1.00  0.00    -0.264 C  
BRANCH   6   7
HETATM    7  N   UNL     1      -6.051  20.028  67.390  1.00  0.00    -0.183 N  
HETATM    8  C   UNL     1      -5.687  20.525  65.998  1.00  0.00    -0.190 C  
HETATM    9  C   UNL     1      -5.283  18.729  67.657  1.00  0.00    -0.168 C  
HETATM   10  C   UNL     1      -5.626  21.052  68.440  1.00  0.00    -0.345 C  
ENDBRANCH   6   7
ENDBRANCH   5   6
ENDBRANCH   4   5
ENDBRANCH   2   4
TORSDOF 4
ENDMDL
MODEL       94
REMARK 921   NORMALIZED FREE ENERGY PREDICTED BY IDOCK:   -2.25 KCAL/MOL
REMARK 922        TOTAL FREE ENERGY PREDICTED BY IDOCK:   -3.11 KCAL/MOL
REMARK 923 INTER-LIGAND FREE ENERGY PREDICTED BY IDOCK:   -2.96 KCAL/MOL
REMARK 924 INTRA-LIGAND FREE ENERGY PREDICTED BY IDOCK:   -0.16 KCAL/MOL
REMARK 927      BINDING AFFINITY PREDICTED BY RF-SCORE:    0.00 PKD
ROOT
HETATM    1  C   UNL     1     -12.470  13.959  65.192  1.00  0.00    -0.479 C  
HETATM    2  C   UNL     1     -10.993  13.924  64.958  1.00  0.00    -0.368 C  
HETATM    3  O   UNL     1     -10.236  14.881  65.048  1.00  0.00    -0.380 OA 
ENDROOT
BRANCH   2   4
HETATM    4  O   UNL     1     -10.582  12.656  64.669  1.00  0.00    -0.300 OA 
BRANCH   4   5
HETATM    5  C   UNL     1      -9.744  12.055  65.674  1.00  0.00    -0.223 C  
BRANCH   5   6
HETATM    6  C   UNL     1     -10.581  11.220  66.657  1.00  0.00    -0.262 C  
BRANCH   6   7
HETATM    7  N   UNL     1     -10.519  11.689  68.126  1.00  0.00    -0.188 N  
HETATM    8  C   UNL     1     -10.078  13.142  68.233  1.00  0.00    -0.247 C  
HETATM    9  C   UNL     1      -9.489  10.816  68.851  1.00  0.00    -0.181 C  
HETATM   10  C   UNL     1     -11.868  11.498  68.815  1.00  0.00    -0.330 C  
ENDBRANCH   6   7
ENDBRANCH   5   6
ENDBRANCH   4   5
ENDBRANCH   2   4
TORSDOF 4
ENDMDL
MODEL       95
REMARK 921   NORMALIZED FREE ENERGY PREDICTED BY IDOCK:   -2.23 KCAL/MOL
REMARK 922        TOTAL FREE ENERGY PREDICTED BY IDOCK:   -3.09 KCAL/MOL
REMARK 923 INTER-LIGAND FREE ENERGY PREDICTED BY IDOCK:   -2.96 KCAL/MOL
REMARK 924 INTRA-LIGAND FREE ENERGY PREDICTED BY IDOCK:   -0.14 KCAL/MOL
REMARK 927      BINDING AFFINITY PREDICTED BY RF-SCORE:    0.00 PKD
ROOT
HETATM    1  C   UNL     1      -6.548  17.807  66.253  1.00  0.00    -0.297 C  
HETATM    2  C   UNL     1      -7.595  18.835  66.545  1.00  0.00    -0.248 C  
HETATM    3  O   UNL     1      -8.260  19.430  65.709  1.00  0.00    -0.439 OA 
ENDROOT
BRANCH   2   4
HETATM    4  O   UNL     1      -7.748  18.996  67.891  1.00  0.00    -0.256 OA 
BRANCH   4   5
HETATM    5  C   UNL     1      -8.123  17.800  68.598  1.00  0.00    -0.276 C  
BRANCH   5   6
HETATM    6  C   UNL     1      -9.639  17.559  68.503  1.00  0.00    -0.305 C  
BRANCH   6   7
HETATM    7  N   UNL     1     -10.091  16.119  68.827  1.00  0.00    -0.227 N  
HETATM    8  C   UNL     1     -10.819  15.482  67.652  1.00  0.00    -0.306 C  
HETATM    9  C   UNL     1     -11.056  16.190  70.015  1.00  0.00    -0.363 C  
HETATM   10  C   UNL     1      -8.900  15.256  69.236  1.00  0.00    -0.242 C  
ENDBRANCH   6   7
ENDBRANCH   5   6
ENDBRANCH   4   5
ENDBRANCH   2   4
TORSDOF 4
ENDMDL
MODEL       96
REMARK 921   NORMALIZED FREE ENERGY PREDICTED BY IDOCK:   -2.22 KCAL/MOL
REMARK 922        TOTAL FREE ENERGY PREDICTED BY IDOCK:   -3.08 KCAL/MOL
REMARK 923 INTER-LIGAND FREE ENERGY PREDICTED BY IDOCK:   -2.95 KCAL/MOL
REMARK 924 INTRA-LIGAND FREE ENERGY PREDICTED BY IDOCK:   -0.13 KCAL/MOL
REMARK 927      BINDING AFFINITY PREDICTED BY RF-SCORE:    0.00 PKD
ROOT
HETATM    1  C   UNL     1     -13.114  10.400  71.343  1.00  0.00    -0.512 C  
HETATM    2  C   UNL     1     -11.834  10.157  70.608  1.00  0.00    -0.342 C  
HETATM    3  O   UNL     1     -11.246  10.975  69.914  1.00  0.00    -0.270 OA 
ENDROOT
BRANCH   2   4
HETATM    4  O   UNL     1     -11.372   8.897  70.851  1.00  0.00    -0.264 OA 
BRANCH   4   5
HETATM    5  C   UNL     1     -10.581   8.770  72.047  1.00  0.00    -0.344 C  
BRANCH   5   6
HETATM    6  C   UNL     1     -11.091   7.611  72.920  1.00  0.00    -0.393 C  
BRANCH   6   7
HETATM    7  N   UNL     1     -10.225   6.334  72.876  1.00  0.00    -0.184 N  
HETATM    8  C   UNL     1      -8.740   6.665  72.824  1.00  0.00    -0.122 C  
HETATM    9  C   UNL     1     -10.594   5.563  71.604  1.00  0.00    -0.231 C  
HETATM   10  C   UNL     1     -10.520   5.436  74.075  1.00  0.00    -0.284 C  
ENDBRANCH   6   7
ENDBRANCH   5   6
ENDBRANCH   4   5
ENDBRANCH   2   4
TORSDOF 4
ENDMDL
MODEL       97
REMARK 921   NORMALIZED FREE ENERGY PREDICTED BY IDOCK:   -2.22 KCAL/MOL
REMARK 922        TOTAL FREE ENERGY PREDICTED BY IDOCK:   -3.08 KCAL/MOL
REMARK 923 INTER-LIGAND FREE ENERGY PREDICTED BY IDOCK:   -2.85 KCAL/MOL
REMARK 924 INTRA-LIGAND FREE ENERGY PREDICTED BY IDOCK:   -0.23 KCAL/MOL
REMARK 927      BINDING AFFINITY PREDICTED BY RF-SCORE:    0.00 PKD
ROOT
HETATM    1  C   UNL     1     -10.658  13.650  64.629  1.00  0.00    -0.446 C  
HETATM    2  C   UNL     1     -10.909  13.168  66.023  1.00  0.00    -0.272 C  
HETATM    3  O   UNL     1     -11.847  12.465  66.374  1.00  0.00    -0.486 OA 
ENDROOT
BRANCH   2   4
HETATM    4  O   UNL     1      -9.918  13.583  66.862  1.00  0.00    -0.245 OA 
BRANCH   4   5
HETATM    5  C   UNL     1     -10.111  13.223  68.242  1.00  0.00    -0.250 C  
BRANCH   5   6
HETATM    6  C   UNL     1      -9.938  14.446  69.158  1.00  0.00    -0.069 C  
BRANCH   6   7
HETATM    7  N   UNL     1     -11.255  15.064  69.673  1.00  0.00    -0.261 N  
HETATM    8  C   UNL     1     -11.163  15.430  71.148  1.00  0.00    -0.361 C  
HETATM    9  C   UNL     1     -12.360  14.017  69.501  1.00  0.00    -0.229 C  
HETATM   10  C   UNL     1     -11.636  16.293  68.851  1.00  0.00    -0.230 C  
ENDBRANCH   6   7
ENDBRANCH   5   6
ENDBRANCH   4   5
ENDBRANCH   2   4
TORSDOF 4
ENDMDL
MODEL       98
REMARK 921   NORMALIZED FREE ENERGY PREDICTED BY IDOCK:   -2.21 KCAL/MOL
REMARK 922        TOTAL FREE ENERGY PREDICTED BY IDOCK:   -3.07 KCAL/MOL
REMARK 923 INTER-LIGAND FREE ENERGY PREDICTED BY IDOCK:   -2.96 KCAL/MOL
REMARK 924 INTRA-LIGAND FREE ENERGY PREDICTED BY IDOCK:   -0.10 KCAL/MOL
REMARK 927      BINDING AFFINITY PREDICTED BY RF-SCORE:    0.00 PKD
ROOT
HETATM    1  C   UNL     1      -7.215  15.122  69.256  1.00  0.00    -0.182 C  
HETATM    2  C   UNL     1      -7.035  15.074  67.771  1.00  0.00    -0.174 C  
HETATM    3  O   UNL     1      -6.155  15.645  67.143  1.00  0.00    -0.323 OA 
ENDROOT
BRANCH   2   4
HETATM    4  O   UNL     1      -7.969  14.261  67.199  1.00  0.00    -0.185 OA 
BRANCH   4   5
HETATM    5  C   UNL     1      -9.271  14.859  67.049  1.00  0.00    -0.234 C  
BRANCH   5   6
HETATM    6  C   UNL     1     -10.048  14.198  65.899  1.00  0.00    -0.321 C  
BRANCH   6   7
HETATM    7  N   UNL     1     -11.425  13.622  66.291  1.00  0.00    -0.323 N  
HETATM    8  C   UNL     1     -12.499  13.999  65.280  1.00  0.00    -0.475 C  
HETATM    9  C   UNL     1     -11.809  14.216  67.650  1.00  0.00    -0.392 C  
HETATM   10  C   UNL     1     -11.356  12.104  66.441  1.00  0.00    -0.356 C  
ENDBRANCH   6   7
ENDBRANCH   5   6
ENDBRANCH   4   5
ENDBRANCH   2   4
TORSDOF 4
ENDMDL
MODEL       99
REMARK 921   NORMALIZED FREE ENERGY PREDICTED BY IDOCK:   -2.21 KCAL/MOL
REMARK 922        TOTAL FREE ENERGY PREDICTED BY IDOCK:   -3.06 KCAL/MOL
REMARK 923 INTER-LIGAND FREE ENERGY PREDICTED BY IDOCK:   -2.92 KCAL/MOL
REMARK 924 INTRA-LIGAND FREE ENERGY PREDICTED BY IDOCK:   -0.14 KCAL/MOL
REMARK 927      BINDING AFFINITY PREDICTED BY RF-SCORE:    0.00 PKD
ROOT
HETATM    1  C   UNL     1     -14.307   8.455  71.903  1.00  0.00    -0.561 C  
HETATM    2  C   UNL     1     -13.176   9.432  71.971  1.00  0.00    -0.449 C  
HETATM    3  O   UNL     1     -13.266  10.637  71.781  1.00  0.00    -0.438 OA 
ENDROOT
BRANCH   2   4
HETATM    4  O   UNL     1     -12.018   8.804  72.321  1.00  0.00    -0.365 OA 
BRANCH   4   5
HETATM    5  C   UNL     1     -10.882   9.145  71.505  1.00  0.00    -0.366 C  
BRANCH   5   6
HETATM    6  C   UNL     1     -10.234   7.883  70.912  1.00  0.00    -0.198 C  
BRANCH   6   7
HETATM    7  N   UNL     1      -9.057   7.311  71.729  1.00  0.00    -0.131 N  
HETATM    8  C   UNL     1      -8.286   8.410  72.447  1.00  0.00    -0.139 C  
HETATM    9  C   UNL     1      -8.106   6.613  70.751  1.00  0.00    -0.119 C  
HETATM   10  C   UNL     1      -9.548   6.272  72.733  1.00  0.00    -0.154 C  
ENDBRANCH   6   7
ENDBRANCH   5   6
ENDBRANCH   4   5
ENDBRANCH   2   4
TORSDOF 4
ENDMDL
MODEL      100
REMARK 921   NORMALIZED FREE ENERGY PREDICTED BY IDOCK:   -2.20 KCAL/MOL
REMARK 922        TOTAL FREE ENERGY PREDICTED BY IDOCK:   -3.05 KCAL/MOL
REMARK 923 INTER-LIGAND FREE ENERGY PREDICTED BY IDOCK:   -2.85 KCAL/MOL
REMARK 924 INTRA-LIGAND FREE ENERGY PREDICTED BY IDOCK:   -0.20 KCAL/MOL
REMARK 927      BINDING AFFINITY PREDICTED BY RF-SCORE:    0.00 PKD
ROOT
HETATM    1  C   UNL     1     -11.451   7.969  72.561  1.00  0.00    -0.471 C  
HETATM    2  C   UNL     1     -12.624   7.934  71.633  1.00  0.00    -0.321 C  
HETATM    3  O   UNL     1     -13.551   8.732  71.629  1.00  0.00    -0.368 OA 
ENDROOT
BRANCH   2   4
HETATM    4  O   UNL     1     -12.506   6.904  70.747  1.00  0.00    -0.356 OA 
BRANCH   4   5
HETATM    5  C   UNL     1     -11.212   6.273  70.731  1.00  0.00    -0.324 C  
BRANCH   5   6
HETATM    6  C   UNL     1     -10.831   5.839  69.307  1.00  0.00    -0.303 C  
BRANCH   6   7
HETATM    7  N   UNL     1      -9.860   6.789  68.575  1.00  0.00    -0.139 N  
HETATM    8  C   UNL     1      -9.373   7.906  69.488  1.00  0.00    -0.156 C  
HETATM    9  C   UNL     1     -10.618   7.418  67.401  1.00  0.00    -0.301 C  
HETATM   10  C   UNL     1      -8.670   6.018  68.009  1.00  0.00    -0.112 C  
ENDBRANCH   6   7
ENDBRANCH   5   6
ENDBRANCH   4   5
ENDBRANCH   2   4
TORSDOF 4
ENDMDL
MODEL      101
REMARK 921   NORMALIZED FREE ENERGY PREDICTED BY IDOCK:   -2.19 KCAL/MOL
REMARK 922        TOTAL FREE ENERGY PREDICTED BY IDOCK:   -3.04 KCAL/MOL
REMARK 923 INTER-LIGAND FREE ENERGY PREDICTED BY IDOCK:   -2.89 KCAL/MOL
REMARK 924 INTRA-LIGAND FREE ENERGY PREDICTED BY IDOCK:   -0.15 KCAL/MOL
REMARK 927      BINDING AFFINITY PREDICTED BY RF-SCORE:    0.00 PKD
ROOT
HETATM    1  C   UNL     1     -10.451   7.999  66.915  1.00  0.00    -0.387 C  
HETATM    2  C   UNL     1      -9.336   8.816  66.343  1.00  0.00    -0.204 C  
HETATM    3  O   UNL     1      -8.670   8.522  65.360  1.00  0.00    -0.175 OA 
ENDROOT
BRANCH   2   4
HETATM    4  O   UNL     1      -9.181   9.975  67.045  1.00  0.00    -0.144 OA 
BRANCH   4   5
HETATM    5  C   UNL     1      -9.343  11.174  66.264  1.00  0.00    -0.195 C  
BRANCH   5   6
HETATM    6  C   UNL     1     -10.831  11.529  66.109  1.00  0.00    -0.278 C  
BRANCH   6   7
HETATM    7  N   UNL     1     -11.178  12.341  64.843  1.00  0.00    -0.311 N  
HETATM    8  C   UNL     1     -12.670  12.629  64.751  1.00  0.00    -0.379 C  
HETATM    9  C   UNL     1     -10.770  11.503  63.626  1.00  0.00    -0.424 C  
HETATM   10  C   UNL     1     -10.388  13.647  64.802  1.00  0.00    -0.392 C  
ENDBRANCH   6   7
ENDBRANCH   5   6
ENDBRANCH   4   5
ENDBRANCH   2   4
TORSDOF 4
ENDMDL
MODEL      102
REMARK 921   NORMALIZED FREE ENERGY PREDICTED BY IDOCK:   -2.19 KCAL/MOL
REMARK 922        TOTAL FREE ENERGY PREDICTED BY IDOCK:   -3.04 KCAL/MOL
REMARK 923 INTER-LIGAND FREE ENERGY PREDICTED BY IDOCK:   -2.76 KCAL/MOL
REMARK 924 INTRA-LIGAND FREE ENERGY PREDICTED BY IDOCK:   -0.28 KCAL/MOL
REMARK 927      BINDING AFFINITY PREDICTED BY RF-SCORE:    0.00 PKD
ROOT
HETATM    1  C   UNL     1     -12.274  11.650  70.512  1.00  0.00    -0.451 C  
HETATM    2  C   UNL     1     -12.001  12.081  69.105  1.00  0.00    -0.268 C  
HETATM    3  O   UNL     1     -11.791  13.230  68.741  1.00  0.00    -0.308 OA 
ENDROOT
BRANCH   2   4
HETATM    4  O   UNL     1     -11.971  11.004  68.269  1.00  0.00    -0.593 OA 
BRANCH   4   5
HETATM    5  C   UNL     1     -10.661  10.445  68.058  1.00  0.00    -0.221 C  
BRANCH   5   6
HETATM    6  C   UNL     1     -10.686   8.916  68.211  1.00  0.00    -0.082 C  
BRANCH   6   7
HETATM    7  N   UNL     1     -10.136   8.387  69.553  1.00  0.00    -0.195 N  
HETATM    8  C   UNL     1     -11.256   8.092  70.541  1.00  0.00    -0.250 C  
HETATM    9  C   UNL     1      -9.238   9.475  70.150  1.00  0.00    -0.244 C  
HETATM   10  C   UNL     1      -9.285   7.138  69.336  1.00  0.00    -0.148 C  
ENDBRANCH   6   7
ENDBRANCH   5   6
ENDBRANCH   4   5
ENDBRANCH   2   4
TORSDOF 4
ENDMDL
MODEL      103
REMARK 921   NORMALIZED FREE ENERGY PREDICTED BY IDOCK:   -2.19 KCAL/MOL
REMARK 922        TOTAL FREE ENERGY PREDICTED BY IDOCK:   -3.04 KCAL/MOL
REMARK 923 INTER-LIGAND FREE ENERGY PREDICTED BY IDOCK:   -2.80 KCAL/MOL
REMARK 924 INTRA-LIGAND FREE ENERGY PREDICTED BY IDOCK:   -0.24 KCAL/MOL
REMARK 927      BINDING AFFINITY PREDICTED BY RF-SCORE:    0.00 PKD
ROOT
HETATM    1  C   UNL     1     -10.444  17.395  65.836  1.00  0.00    -0.256 C  
HETATM    2  C   UNL     1     -10.153  16.289  66.800  1.00  0.00    -0.278 C  
HETATM    3  O   UNL     1     -10.980  15.720  67.500  1.00  0.00    -0.318 OA 
ENDROOT
BRANCH   2   4
HETATM    4  O   UNL     1      -8.830  15.959  66.769  1.00  0.00    -0.216 OA 
BRANCH   4   5
HETATM    5  C   UNL     1      -7.935  17.083  66.674  1.00  0.00    -0.267 C  
BRANCH   5   6
HETATM    6  C   UNL     1      -7.512  17.566  68.071  1.00  0.00    -0.214 C  
BRANCH   6   7
HETATM    7  N   UNL     1      -7.788  19.057  68.355  1.00  0.00    -0.323 N  
HETATM    8  C   UNL     1      -7.459  19.928  67.150  1.00  0.00    -0.257 C  
HETATM    9  C   UNL     1      -6.889  19.484  69.520  1.00  0.00    -0.296 C  
HETATM   10  C   UNL     1      -9.240  19.271  68.775  1.00  0.00    -0.371 C  
ENDBRANCH   6   7
ENDBRANCH   5   6
ENDBRANCH   4   5
ENDBRANCH   2   4
TORSDOF 4
ENDMDL
MODEL      104
REMARK 921   NORMALIZED FREE ENERGY PREDICTED BY IDOCK:   -2.18 KCAL/MOL
REMARK 922        TOTAL FREE ENERGY PREDICTED BY IDOCK:   -3.03 KCAL/MOL
REMARK 923 INTER-LIGAND FREE ENERGY PREDICTED BY IDOCK:   -2.84 KCAL/MOL
REMARK 924 INTRA-LIGAND FREE ENERGY PREDICTED BY IDOCK:   -0.19 KCAL/MOL
REMARK 927      BINDING AFFINITY PREDICTED BY RF-SCORE:    0.00 PKD
ROOT
HETATM    1  C   UNL     1     -12.119  10.382  71.033  1.00  0.00    -0.488 C  
HETATM    2  C   UNL     1     -12.159  11.483  70.021  1.00  0.00    -0.331 C  
HETATM    3  O   UNL     1     -11.981  12.670  70.255  1.00  0.00    -0.348 OA 
ENDROOT
BRANCH   2   4
HETATM    4  O   UNL     1     -12.378  10.981  68.772  1.00  0.00    -0.533 OA 
BRANCH   4   5
HETATM    5  C   UNL     1     -11.271  11.128  67.864  1.00  0.00    -0.302 C  
BRANCH   5   6
HETATM    6  C   UNL     1     -10.645   9.762  67.536  1.00  0.00    -0.275 C  
BRANCH   6   7
HETATM    7  N   UNL     1      -9.141   9.641  67.859  1.00  0.00    -0.125 N  
HETATM    8  C   UNL     1      -8.313  10.636  67.057  1.00  0.00    -0.126 C  
HETATM    9  C   UNL     1      -8.696   8.224  67.482  1.00  0.00    -0.129 C  
HETATM   10  C   UNL     1      -8.889   9.833  69.353  1.00  0.00    -0.182 C  
ENDBRANCH   6   7
ENDBRANCH   5   6
ENDBRANCH   4   5
ENDBRANCH   2   4
TORSDOF 4
ENDMDL
MODEL      105
REMARK 921   NORMALIZED FREE ENERGY PREDICTED BY IDOCK:   -2.18 KCAL/MOL
REMARK 922        TOTAL FREE ENERGY PREDICTED BY IDOCK:   -3.03 KCAL/MOL
REMARK 923 INTER-LIGAND FREE ENERGY PREDICTED BY IDOCK:   -2.90 KCAL/MOL
REMARK 924 INTRA-LIGAND FREE ENERGY PREDICTED BY IDOCK:   -0.12 KCAL/MOL
REMARK 927      BINDING AFFINITY PREDICTED BY RF-SCORE:    0.00 PKD
ROOT
HETATM    1  C   UNL     1      -6.869  11.085  67.062  1.00  0.00    -0.109 C  
HETATM    2  C   UNL     1      -7.958  10.753  66.092  1.00  0.00    -0.157 C  
HETATM    3  O   UNL     1      -7.800  10.230  64.997  1.00  0.00    -0.139 OA 
ENDROOT
BRANCH   2   4
HETATM    4  O   UNL     1      -9.178  11.073  66.609  1.00  0.00    -0.161 OA 
BRANCH   4   5
HETATM    5  C   UNL     1     -10.265  11.007  65.667  1.00  0.00    -0.260 C  
BRANCH   5   6
HETATM    6  C   UNL     1     -11.379  11.996  66.045  1.00  0.00    -0.343 C  
BRANCH   6   7
HETATM    7  N   UNL     1     -11.704  13.052  64.967  1.00  0.00    -0.323 N  
HETATM    8  C   UNL     1     -12.237  12.410  63.694  1.00  0.00    -0.557 C  
HETATM    9  C   UNL     1     -10.404  13.790  64.630  1.00  0.00    -0.368 C  
HETATM   10  C   UNL     1     -12.705  14.077  65.496  1.00  0.00    -0.486 C  
ENDBRANCH   6   7
ENDBRANCH   5   6
ENDBRANCH   4   5
ENDBRANCH   2   4
TORSDOF 4
ENDMDL
MODEL      106
REMARK 921   NORMALIZED FREE ENERGY PREDICTED BY IDOCK:   -2.17 KCAL/MOL
REMARK 922        TOTAL FREE ENERGY PREDICTED BY IDOCK:   -3.01 KCAL/MOL
REMARK 923 INTER-LIGAND FREE ENERGY PREDICTED BY IDOCK:   -2.78 KCAL/MOL
REMARK 924 INTRA-LIGAND FREE ENERGY PREDICTED BY IDOCK:   -0.24 KCAL/MOL
REMARK 927      BINDING AFFINITY PREDICTED BY RF-SCORE:    0.00 PKD
ROOT
HETATM    1  C   UNL     1     -12.844   8.987  72.174  1.00  0.00    -0.478 C  
HETATM    2  C   UNL     1     -11.591   8.168  72.183  1.00  0.00    -0.357 C  
HETATM    3  O   UNL     1     -10.977   7.820  73.182  1.00  0.00    -0.396 OA 
ENDROOT
BRANCH   2   4
HETATM    4  O   UNL     1     -11.239   7.815  70.914  1.00  0.00    -0.262 OA 
BRANCH   4   5
HETATM    5  C   UNL     1     -11.640   6.487  70.529  1.00  0.00    -0.393 C  
BRANCH   5   6
HETATM    6  C   UNL     1     -10.477   5.735  69.861  1.00  0.00    -0.290 C  
BRANCH   6   7
HETATM    7  N   UNL     1      -9.596   4.913  70.825  1.00  0.00    -0.171 N  
HETATM    8  C   UNL     1      -9.175   3.586  70.207  1.00  0.00    -0.155 C  
HETATM    9  C   UNL     1     -10.425   4.621  72.080  1.00  0.00    -0.148 C  
HETATM   10  C   UNL     1      -8.364   5.709  71.247  1.00  0.00    -0.127 C  
ENDBRANCH   6   7
ENDBRANCH   5   6
ENDBRANCH   4   5
ENDBRANCH   2   4
TORSDOF 4
ENDMDL
MODEL      107
REMARK 921   NORMALIZED FREE ENERGY PREDICTED BY IDOCK:   -2.14 KCAL/MOL
REMARK 922        TOTAL FREE ENERGY PREDICTED BY IDOCK:   -2.98 KCAL/MOL
REMARK 923 INTER-LIGAND FREE ENERGY PREDICTED BY IDOCK:   -2.64 KCAL/MOL
REMARK 924 INTRA-LIGAND FREE ENERGY PREDICTED BY IDOCK:   -0.34 KCAL/MOL
REMARK 927      BINDING AFFINITY PREDICTED BY RF-SCORE:    0.00 PKD
ROOT
HETATM    1  C   UNL     1      -9.931   4.266  71.444  1.00  0.00    -0.238 C  
HETATM    2  C   UNL     1     -10.088   5.061  72.703  1.00  0.00    -0.182 C  
HETATM    3  O   UNL     1      -9.175   5.432  73.427  1.00  0.00    -0.132 OA 
ENDROOT
BRANCH   2   4
HETATM    4  O   UNL     1     -11.400   5.362  72.921  1.00  0.00    -0.294 OA 
BRANCH   4   5
HETATM    5  C   UNL     1     -11.972   6.271  71.962  1.00  0.00    -0.300 C  
BRANCH   5   6
HETATM    6  C   UNL     1     -11.661   7.730  72.336  1.00  0.00    -0.356 C  
BRANCH   6   7
HETATM    7  N   UNL     1     -10.785   8.489  71.317  1.00  0.00    -0.227 N  
HETATM    8  C   UNL     1     -10.617   7.702  70.024  1.00  0.00    -0.238 C  
HETATM    9  C   UNL     1      -9.402   8.687  71.946  1.00  0.00    -0.287 C  
HETATM   10  C   UNL     1     -11.370   9.868  71.019  1.00  0.00    -0.386 C  
ENDBRANCH   6   7
ENDBRANCH   5   6
ENDBRANCH   4   5
ENDBRANCH   2   4
TORSDOF 4
ENDMDL
MODEL      108
REMARK 921   NORMALIZED FREE ENERGY PREDICTED BY IDOCK:   -2.14 KCAL/MOL
REMARK 922        TOTAL FREE ENERGY PREDICTED BY IDOCK:   -2.98 KCAL/MOL
REMARK 923 INTER-LIGAND FREE ENERGY PREDICTED BY IDOCK:   -2.65 KCAL/MOL
REMARK 924 INTRA-LIGAND FREE ENERGY PREDICTED BY IDOCK:   -0.33 KCAL/MOL
REMARK 927      BINDING AFFINITY PREDICTED BY RF-SCORE:    0.00 PKD
ROOT
HETATM    1  C   UNL     1     -12.175  11.406  70.535  1.00  0.00    -0.478 C  
HETATM    2  C   UNL     1     -11.842  10.971  69.142  1.00  0.00    -0.337 C  
HETATM    3  O   UNL     1     -12.238  11.507  68.116  1.00  0.00    -0.576 OA 
ENDROOT
BRANCH   2   4
HETATM    4  O   UNL     1     -10.989   9.907  69.162  1.00  0.00    -0.224 OA 
BRANCH   4   5
HETATM    5  C   UNL     1     -10.052   9.871  68.069  1.00  0.00    -0.171 C  
BRANCH   5   6
HETATM    6  C   UNL     1      -8.811  10.722  68.383  1.00  0.00    -0.146 C  
BRANCH   6   7
HETATM    7  N   UNL     1      -8.583  11.916  67.433  1.00  0.00    -0.157 N  
HETATM    8  C   UNL     1      -9.294  11.717  66.101  1.00  0.00    -0.224 C  
HETATM    9  C   UNL     1      -7.078  12.021  67.167  1.00  0.00    -0.130 C  
HETATM   10  C   UNL     1      -9.040  13.221  68.081  1.00  0.00    -0.207 C  
ENDBRANCH   6   7
ENDBRANCH   5   6
ENDBRANCH   4   5
ENDBRANCH   2   4
TORSDOF 4
ENDMDL
MODEL      109
REMARK 921   NORMALIZED FREE ENERGY PREDICTED BY IDOCK:   -2.13 KCAL/MOL
REMARK 922        TOTAL FREE ENERGY PREDICTED BY IDOCK:   -2.96 KCAL/MOL
REMARK 923 INTER-LIGAND FREE ENERGY PREDICTED BY IDOCK:   -2.95 KCAL/MOL
REMARK 924 INTRA-LIGAND FREE ENERGY PREDICTED BY IDOCK:   -0.02 KCAL/MOL
REMARK 927      BINDING AFFINITY PREDICTED BY RF-SCORE:    0.00 PKD
ROOT
HETATM    1  C   UNL     1      -9.740   8.782  66.229  1.00  0.00    -0.342 C  
HETATM    2  C   UNL     1     -10.486  10.052  66.491  1.00  0.00    -0.153 C  
HETATM    3  O   UNL     1     -11.001  10.367  67.555  1.00  0.00    -0.291 OA 
ENDROOT
BRANCH   2   4
HETATM    4  O   UNL     1     -10.483  10.850  65.385  1.00  0.00    -0.265 OA 
BRANCH   4   5
HETATM    5  C   UNL     1      -9.940  12.166  65.598  1.00  0.00    -0.249 C  
BRANCH   5   6
HETATM    6  C   UNL     1     -10.432  13.143  64.517  1.00  0.00    -0.405 C  
BRANCH   6   7
HETATM    7  N   UNL     1     -11.907  13.574  64.652  1.00  0.00    -0.376 N  
HETATM    8  C   UNL     1     -12.343  13.634  66.110  1.00  0.00    -0.426 C  
HETATM    9  C   UNL     1     -12.767  12.529  63.932  1.00  0.00    -0.313 C  
HETATM   10  C   UNL     1     -12.143  14.924  63.979  1.00  0.00    -0.126 C  
ENDBRANCH   6   7
ENDBRANCH   5   6
ENDBRANCH   4   5
ENDBRANCH   2   4
TORSDOF 4
ENDMDL
MODEL      110
REMARK 921   NORMALIZED FREE ENERGY PREDICTED BY IDOCK:   -2.12 KCAL/MOL
REMARK 922        TOTAL FREE ENERGY PREDICTED BY IDOCK:   -2.95 KCAL/MOL
REMARK 923 INTER-LIGAND FREE ENERGY PREDICTED BY IDOCK:   -2.81 KCAL/MOL
REMARK 924 INTRA-LIGAND FREE ENERGY PREDICTED BY IDOCK:   -0.13 KCAL/MOL
REMARK 927      BINDING AFFINITY PREDICTED BY RF-SCORE:    0.00 PKD
ROOT
HETATM    1  C   UNL     1      -9.123   7.830  66.698  1.00  0.00    -0.195 C  
HETATM    2  C   UNL     1     -10.484   7.518  67.235  1.00  0.00    -0.321 C  
HETATM    3  O   UNL     1     -11.182   6.571  66.896  1.00  0.00    -0.387 OA 
ENDROOT
BRANCH   2   4
HETATM    4  O   UNL     1     -10.839   8.414  68.199  1.00  0.00    -0.085 OA 
BRANCH   4   5
HETATM    5  C   UNL     1     -10.032   8.362  69.390  1.00  0.00    -0.191 C  
BRANCH   5   6
HETATM    6  C   UNL     1     -10.593   7.337  70.388  1.00  0.00    -0.226 C  
BRANCH   6   7
HETATM    7  N   UNL     1     -11.519   7.925  71.474  1.00  0.00    -0.258 N  
HETATM    8  C   UNL     1     -11.648   9.437  71.343  1.00  0.00    -0.381 C  
HETATM    9  C   UNL     1     -10.896   7.610  72.839  1.00  0.00    -0.389 C  
HETATM   10  C   UNL     1     -12.899   7.275  71.423  1.00  0.00    -0.382 C  
ENDBRANCH   6   7
ENDBRANCH   5   6
ENDBRANCH   4   5
ENDBRANCH   2   4
TORSDOF 4
ENDMDL
MODEL      111
REMARK 921   NORMALIZED FREE ENERGY PREDICTED BY IDOCK:   -2.10 KCAL/MOL
REMARK 922        TOTAL FREE ENERGY PREDICTED BY IDOCK:   -2.93 KCAL/MOL
REMARK 923 INTER-LIGAND FREE ENERGY PREDICTED BY IDOCK:   -2.73 KCAL/MOL
REMARK 924 INTRA-LIGAND FREE ENERGY PREDICTED BY IDOCK:   -0.20 KCAL/MOL
REMARK 927      BINDING AFFINITY PREDICTED BY RF-SCORE:    0.00 PKD
ROOT
HETATM    1  C   UNL     1      -9.522   8.604  71.961  1.00  0.00    -0.370 C  
HETATM    2  C   UNL     1     -10.999   8.844  71.944  1.00  0.00    -0.369 C  
HETATM    3  O   UNL     1     -11.570   9.714  71.301  1.00  0.00    -0.334 OA 
ENDROOT
BRANCH   2   4
HETATM    4  O   UNL     1     -11.645   7.924  72.716  1.00  0.00    -0.383 OA 
BRANCH   4   5
HETATM    5  C   UNL     1     -11.852   6.649  72.080  1.00  0.00    -0.324 C  
BRANCH   5   6
HETATM    6  C   UNL     1     -11.281   5.509  72.939  1.00  0.00    -0.305 C  
BRANCH   6   7
HETATM    7  N   UNL     1     -10.176   4.673  72.259  1.00  0.00    -0.189 N  
HETATM    8  C   UNL     1     -10.306   3.193  72.594  1.00  0.00    -0.133 C  
HETATM    9  C   UNL     1      -8.826   5.171  72.784  1.00  0.00    -0.118 C  
HETATM   10  C   UNL     1     -10.197   4.872  70.746  1.00  0.00    -0.206 C  
ENDBRANCH   6   7
ENDBRANCH   5   6
ENDBRANCH   4   5
ENDBRANCH   2   4
TORSDOF 4
ENDMDL
MODEL      112
REMARK 921   NORMALIZED FREE ENERGY PREDICTED BY IDOCK:   -2.08 KCAL/MOL
REMARK 922        TOTAL FREE ENERGY PREDICTED BY IDOCK:   -2.91 KCAL/MOL
REMARK 923 INTER-LIGAND FREE ENERGY PREDICTED BY IDOCK:   -2.72 KCAL/MOL
REMARK 924 INTRA-LIGAND FREE ENERGY PREDICTED BY IDOCK:   -0.19 KCAL/MOL
REMARK 927      BINDING AFFINITY PREDICTED BY RF-SCORE:    0.00 PKD
ROOT
HETATM    1  C   UNL     1      -9.675   8.528  72.094  1.00  0.00    -0.387 C  
HETATM    2  C   UNL     1     -11.129   8.177  72.041  1.00  0.00    -0.306 C  
HETATM    3  O   UNL     1     -12.054   8.946  72.261  1.00  0.00    -0.358 OA 
ENDROOT
BRANCH   2   4
HETATM    4  O   UNL     1     -11.296   6.877  71.666  1.00  0.00    -0.243 OA 
BRANCH   4   5
HETATM    5  C   UNL     1     -11.623   6.692  70.276  1.00  0.00    -0.395 C  
BRANCH   5   6
HETATM    6  C   UNL     1     -10.631   5.728  69.604  1.00  0.00    -0.326 C  
BRANCH   6   7
HETATM    7  N   UNL     1      -9.990   6.256  68.303  1.00  0.00    -0.132 N  
HETATM    8  C   UNL     1      -8.581   5.714  68.111  1.00  0.00    -0.104 C  
HETATM    9  C   UNL     1      -9.912   7.783  68.409  1.00  0.00    -0.178 C  
HETATM   10  C   UNL     1     -10.855   5.911  67.093  1.00  0.00    -0.285 C  
ENDBRANCH   6   7
ENDBRANCH   5   6
ENDBRANCH   4   5
ENDBRANCH   2   4
TORSDOF 4
ENDMDL
MODEL      113
REMARK 921   NORMALIZED FREE ENERGY PREDICTED BY IDOCK:   -2.07 KCAL/MOL
REMARK 922        TOTAL FREE ENERGY PREDICTED BY IDOCK:   -2.90 KCAL/MOL
REMARK 923 INTER-LIGAND FREE ENERGY PREDICTED BY IDOCK:   -2.74 KCAL/MOL
REMARK 924 INTRA-LIGAND FREE ENERGY PREDICTED BY IDOCK:   -0.15 KCAL/MOL
REMARK 927      BINDING AFFINITY PREDICTED BY RF-SCORE:    0.00 PKD
ROOT
HETATM    1  C   UNL     1     -11.041   6.247  68.797  1.00  0.00    -0.424 C  
HETATM    2  C   UNL     1     -10.835   6.311  67.316  1.00  0.00    -0.375 C  
HETATM    3  O   UNL     1     -10.674   5.349  66.579  1.00  0.00    -0.301 OA 
ENDROOT
BRANCH   2   4
HETATM    4  O   UNL     1     -10.895   7.601  66.878  1.00  0.00    -0.328 OA 
BRANCH   4   5
HETATM    5  C   UNL     1     -10.217   8.551  67.721  1.00  0.00    -0.225 C  
BRANCH   5   6
HETATM    6  C   UNL     1     -10.706   9.981  67.438  1.00  0.00    -0.274 C  
BRANCH   6   7
HETATM    7  N   UNL     1      -9.758  10.834  66.570  1.00  0.00    -0.190 N  
HETATM    8  C   UNL     1      -9.769  12.296  66.996  1.00  0.00    -0.205 C  
HETATM    9  C   UNL     1     -10.248  10.749  65.121  1.00  0.00    -0.298 C  
HETATM   10  C   UNL     1      -8.334  10.284  66.620  1.00  0.00    -0.125 C  
ENDBRANCH   6   7
ENDBRANCH   5   6
ENDBRANCH   4   5
ENDBRANCH   2   4
TORSDOF 4
ENDMDL
MODEL      114
REMARK 921   NORMALIZED FREE ENERGY PREDICTED BY IDOCK:   -2.07 KCAL/MOL
REMARK 922        TOTAL FREE ENERGY PREDICTED BY IDOCK:   -2.90 KCAL/MOL
REMARK 923 INTER-LIGAND FREE ENERGY PREDICTED BY IDOCK:   -2.76 KCAL/MOL
REMARK 924 INTRA-LIGAND FREE ENERGY PREDICTED BY IDOCK:   -0.14 KCAL/MOL
REMARK 927      BINDING AFFINITY PREDICTED BY RF-SCORE:    0.00 PKD
ROOT
HETATM    1  C   UNL     1     -12.484  13.075  64.172  1.00  0.00    -0.374 C  
HETATM    2  C   UNL     1     -11.256  13.806  64.616  1.00  0.00    -0.378 C  
HETATM    3  O   UNL     1     -11.179  15.011  64.812  1.00  0.00    -0.390 OA 
ENDROOT
BRANCH   2   4
HETATM    4  O   UNL     1     -10.226  12.936  64.821  1.00  0.00    -0.313 OA 
BRANCH   4   5
HETATM    5  C   UNL     1     -10.475  11.595  64.361  1.00  0.00    -0.322 C  
BRANCH   5   6
HETATM    6  C   UNL     1     -10.064  10.565  65.426  1.00  0.00    -0.291 C  
BRANCH   6   7
HETATM    7  N   UNL     1      -8.838   9.703  65.058  1.00  0.00    -0.173 N  
HETATM    8  C   UNL     1      -8.899   8.331  65.716  1.00  0.00    -0.155 C  
HETATM    9  C   UNL     1      -7.588  10.429  65.566  1.00  0.00    -0.144 C  
HETATM   10  C   UNL     1      -8.714   9.553  63.544  1.00  0.00    -0.220 C  
ENDBRANCH   6   7
ENDBRANCH   5   6
ENDBRANCH   4   5
ENDBRANCH   2   4
TORSDOF 4
ENDMDL
MODEL      115
REMARK 921   NORMALIZED FREE ENERGY PREDICTED BY IDOCK:   -2.07 KCAL/MOL
REMARK 922        TOTAL FREE ENERGY PREDICTED BY IDOCK:   -2.89 KCAL/MOL
REMARK 923 INTER-LIGAND FREE ENERGY PREDICTED BY IDOCK:   -2.66 KCAL/MOL
REMARK 924 INTRA-LIGAND FREE ENERGY PREDICTED BY IDOCK:   -0.24 KCAL/MOL
REMARK 927      BINDING AFFINITY PREDICTED BY RF-SCORE:    0.00 PKD
ROOT
HETATM    1  C   UNL     1      -8.668   4.232  69.893  1.00  0.00    -0.110 C  
HETATM    2  C   UNL     1      -9.801   4.901  70.607  1.00  0.00    -0.219 C  
HETATM    3  O   UNL     1      -9.937   4.966  71.820  1.00  0.00    -0.175 OA 
ENDROOT
BRANCH   2   4
HETATM    4  O   UNL     1     -10.656   5.479  69.716  1.00  0.00    -0.297 OA 
BRANCH   4   5
HETATM    5  C   UNL     1     -11.566   6.433  70.293  1.00  0.00    -0.383 C  
BRANCH   5   6
HETATM    6  C   UNL     1     -11.049   7.869  70.104  1.00  0.00    -0.201 C  
BRANCH   6   7
HETATM    7  N   UNL     1     -11.047   8.733  71.383  1.00  0.00    -0.267 N  
HETATM    8  C   UNL     1      -9.681   8.736  72.055  1.00  0.00    -0.300 C  
HETATM    9  C   UNL     1     -12.064   8.128  72.356  1.00  0.00    -0.348 C  
HETATM   10  C   UNL     1     -11.482  10.163  71.073  1.00  0.00    -0.354 C  
ENDBRANCH   6   7
ENDBRANCH   5   6
ENDBRANCH   4   5
ENDBRANCH   2   4
TORSDOF 4
ENDMDL
MODEL      116
REMARK 921   NORMALIZED FREE ENERGY PREDICTED BY IDOCK:   -2.07 KCAL/MOL
REMARK 922        TOTAL FREE ENERGY PREDICTED BY IDOCK:   -2.89 KCAL/MOL
REMARK 923 INTER-LIGAND FREE ENERGY PREDICTED BY IDOCK:   -2.78 KCAL/MOL
REMARK 924 INTRA-LIGAND FREE ENERGY PREDICTED BY IDOCK:   -0.11 KCAL/MOL
REMARK 927      BINDING AFFINITY PREDICTED BY RF-SCORE:    0.00 PKD
ROOT
HETATM    1  C   UNL     1      -7.338  11.002  68.820  1.00  0.00    -0.111 C  
HETATM    2  C   UNL     1      -8.791  11.201  68.523  1.00  0.00    -0.161 C  
HETATM    3  O   UNL     1      -9.719  10.765  69.190  1.00  0.00    -0.207 OA 
ENDROOT
BRANCH   2   4
HETATM    4  O   UNL     1      -8.953  11.981  67.416  1.00  0.00    -0.165 OA 
BRANCH   4   5
HETATM    5  C   UNL     1      -9.965  12.997  67.544  1.00  0.00    -0.212 C  
BRANCH   5   6
HETATM    6  C   UNL     1      -9.727  14.136  66.539  1.00  0.00    -0.295 C  
BRANCH   6   7
HETATM    7  N   UNL     1     -10.865  14.351  65.518  1.00  0.00    -0.314 N  
HETATM    8  C   UNL     1     -12.229  14.066  66.131  1.00  0.00    -0.465 C  
HETATM    9  C   UNL     1     -10.641  13.376  64.358  1.00  0.00    -0.407 C  
HETATM   10  C   UNL     1     -10.829  15.770  64.956  1.00  0.00    -0.443 C  
ENDBRANCH   6   7
ENDBRANCH   5   6
ENDBRANCH   4   5
ENDBRANCH   2   4
TORSDOF 4
ENDMDL
MODEL      117
REMARK 921   NORMALIZED FREE ENERGY PREDICTED BY IDOCK:   -2.06 KCAL/MOL
REMARK 922        TOTAL FREE ENERGY PREDICTED BY IDOCK:   -2.87 KCAL/MOL
REMARK 923 INTER-LIGAND FREE ENERGY PREDICTED BY IDOCK:   -2.61 KCAL/MOL
REMARK 924 INTRA-LIGAND FREE ENERGY PREDICTED BY IDOCK:   -0.26 KCAL/MOL
REMARK 927      BINDING AFFINITY PREDICTED BY RF-SCORE:    0.00 PKD
ROOT
HETATM    1  C   UNL     1     -10.545   9.145  68.447  1.00  0.00    -0.217 C  
HETATM    2  C   UNL     1     -10.424   9.367  69.922  1.00  0.00    -0.233 C  
HETATM    3  O   UNL     1      -9.387   9.612  70.521  1.00  0.00    -0.253 OA 
ENDROOT
BRANCH   2   4
HETATM    4  O   UNL     1     -11.648   9.303  70.519  1.00  0.00    -0.267 OA 
BRANCH   4   5
HETATM    5  C   UNL     1     -11.640   8.726  71.839  1.00  0.00    -0.361 C  
BRANCH   5   6
HETATM    6  C   UNL     1     -11.826   7.201  71.771  1.00  0.00    -0.303 C  
BRANCH   6   7
HETATM    7  N   UNL     1     -10.766   6.382  72.537  1.00  0.00    -0.218 N  
HETATM    8  C   UNL     1     -11.340   5.075  73.065  1.00  0.00    -0.298 C  
HETATM    9  C   UNL     1     -10.299   7.223  73.730  1.00  0.00    -0.313 C  
HETATM   10  C   UNL     1      -9.553   6.103  71.653  1.00  0.00    -0.151 C  
ENDBRANCH   6   7
ENDBRANCH   5   6
ENDBRANCH   4   5
ENDBRANCH   2   4
TORSDOF 4
ENDMDL
MODEL      118
REMARK 921   NORMALIZED FREE ENERGY PREDICTED BY IDOCK:   -2.05 KCAL/MOL
REMARK 922        TOTAL FREE ENERGY PREDICTED BY IDOCK:   -2.87 KCAL/MOL
REMARK 923 INTER-LIGAND FREE ENERGY PREDICTED BY IDOCK:   -2.66 KCAL/MOL
REMARK 924 INTRA-LIGAND FREE ENERGY PREDICTED BY IDOCK:   -0.21 KCAL/MOL
REMARK 927      BINDING AFFINITY PREDICTED BY RF-SCORE:    0.00 PKD
ROOT
HETATM    1  C   UNL     1     -11.755  11.952  69.494  1.00  0.00    -0.410 C  
HETATM    2  C   UNL     1     -11.434  13.060  68.541  1.00  0.00    -0.304 C  
HETATM    3  O   UNL     1     -12.254  13.729  67.927  1.00  0.00    -0.327 OA 
ENDROOT
BRANCH   2   4
HETATM    4  O   UNL     1     -10.088  13.262  68.474  1.00  0.00    -0.239 OA 
BRANCH   4   5
HETATM    5  C   UNL     1      -9.346  12.173  67.894  1.00  0.00    -0.192 C  
BRANCH   5   6
HETATM    6  C   UNL     1      -9.412  12.223  66.358  1.00  0.00    -0.237 C  
BRANCH   6   7
HETATM    7  N   UNL     1      -9.462  10.845  65.665  1.00  0.00    -0.204 N  
HETATM    8  C   UNL     1      -8.073  10.362  65.275  1.00  0.00    -0.152 C  
HETATM    9  C   UNL     1     -10.298  10.996  64.389  1.00  0.00    -0.358 C  
HETATM   10  C   UNL     1     -10.146   9.813  66.557  1.00  0.00    -0.239 C  
ENDBRANCH   6   7
ENDBRANCH   5   6
ENDBRANCH   4   5
ENDBRANCH   2   4
TORSDOF 4
ENDMDL
MODEL      119
REMARK 921   NORMALIZED FREE ENERGY PREDICTED BY IDOCK:   -2.05 KCAL/MOL
REMARK 922        TOTAL FREE ENERGY PREDICTED BY IDOCK:   -2.86 KCAL/MOL
REMARK 923 INTER-LIGAND FREE ENERGY PREDICTED BY IDOCK:   -2.70 KCAL/MOL
REMARK 924 INTRA-LIGAND FREE ENERGY PREDICTED BY IDOCK:   -0.16 KCAL/MOL
REMARK 927      BINDING AFFINITY PREDICTED BY RF-SCORE:    0.00 PKD
ROOT
HETATM    1  C   UNL     1     -11.639  15.752  69.385  1.00  0.00    -0.371 C  
HETATM    2  C   UNL     1     -11.416  14.716  68.328  1.00  0.00    -0.314 C  
HETATM    3  O   UNL     1     -10.959  14.926  67.213  1.00  0.00    -0.305 OA 
ENDROOT
BRANCH   2   4
HETATM    4  O   UNL     1     -11.751  13.478  68.790  1.00  0.00    -0.293 OA 
BRANCH   4   5
HETATM    5  C   UNL     1     -11.778  12.450  67.782  1.00  0.00    -0.350 C  
BRANCH   5   6
HETATM    6  C   UNL     1     -11.363  11.093  68.371  1.00  0.00    -0.288 C  
BRANCH   6   7
HETATM    7  N   UNL     1     -10.066  10.498  67.784  1.00  0.00    -0.170 N  
HETATM    8  C   UNL     1      -8.916  10.564  68.780  1.00  0.00    -0.166 C  
HETATM    9  C   UNL     1      -9.688  11.327  66.552  1.00  0.00    -0.202 C  
HETATM   10  C   UNL     1     -10.285   9.056  67.332  1.00  0.00    -0.245 C  
ENDBRANCH   6   7
ENDBRANCH   5   6
ENDBRANCH   4   5
ENDBRANCH   2   4
TORSDOF 4
ENDMDL
MODEL      120
REMARK 921   NORMALIZED FREE ENERGY PREDICTED BY IDOCK:   -2.03 KCAL/MOL
REMARK 922        TOTAL FREE ENERGY PREDICTED BY IDOCK:   -2.84 KCAL/MOL
REMARK 923 INTER-LIGAND FREE ENERGY PREDICTED BY IDOCK:   -2.71 KCAL/MOL
REMARK 924 INTRA-LIGAND FREE ENERGY PREDICTED BY IDOCK:   -0.13 KCAL/MOL
REMARK 927      BINDING AFFINITY PREDICTED BY RF-SCORE:    0.00 PKD
ROOT
HETATM    1  C   UNL     1     -10.468   9.354  68.049  1.00  0.00    -0.278 C  
HETATM    2  C   UNL     1      -9.468  10.415  68.389  1.00  0.00    -0.149 C  
HETATM    3  O   UNL     1      -8.254  10.308  68.280  1.00  0.00    -0.111 OA 
ENDROOT
BRANCH   2   4
HETATM    4  O   UNL     1     -10.096  11.552  68.802  1.00  0.00    -0.213 OA 
BRANCH   4   5
HETATM    5  C   UNL     1     -10.886  12.201  67.789  1.00  0.00    -0.224 C  
BRANCH   5   6
HETATM    6  C   UNL     1      -9.999  13.039  66.854  1.00  0.00    -0.243 C  
BRANCH   6   7
HETATM    7  N   UNL     1     -10.691  13.526  65.563  1.00  0.00    -0.283 N  
HETATM    8  C   UNL     1     -10.335  14.972  65.247  1.00  0.00    -0.395 C  
HETATM    9  C   UNL     1     -12.205  13.436  65.784  1.00  0.00    -0.458 C  
HETATM   10  C   UNL     1     -10.331  12.627  64.383  1.00  0.00    -0.360 C  
ENDBRANCH   6   7
ENDBRANCH   5   6
ENDBRANCH   4   5
ENDBRANCH   2   4
TORSDOF 4
ENDMDL
MODEL      121
REMARK 921   NORMALIZED FREE ENERGY PREDICTED BY IDOCK:   -2.03 KCAL/MOL
REMARK 922        TOTAL FREE ENERGY PREDICTED BY IDOCK:   -2.84 KCAL/MOL
REMARK 923 INTER-LIGAND FREE ENERGY PREDICTED BY IDOCK:   -2.73 KCAL/MOL
REMARK 924 INTRA-LIGAND FREE ENERGY PREDICTED BY IDOCK:   -0.10 KCAL/MOL
REMARK 927      BINDING AFFINITY PREDICTED BY RF-SCORE:    0.00 PKD
ROOT
HETATM    1  C   UNL     1     -11.542  12.872  68.844  1.00  0.00    -0.360 C  
HETATM    2  C   UNL     1     -11.945  13.074  67.417  1.00  0.00    -0.316 C  
HETATM    3  O   UNL     1     -12.247  14.144  66.908  1.00  0.00    -0.439 OA 
ENDROOT
BRANCH   2   4
HETATM    4  O   UNL     1     -11.889  11.897  66.731  1.00  0.00    -0.598 OA 
BRANCH   4   5
HETATM    5  C   UNL     1     -10.644  11.185  66.863  1.00  0.00    -0.258 C  
BRANCH   5   6
HETATM    6  C   UNL     1     -10.892   9.684  67.083  1.00  0.00    -0.114 C  
BRANCH   6   7
HETATM    7  N   UNL     1      -9.763   8.941  67.830  1.00  0.00    -0.155 N  
HETATM    8  C   UNL     1      -8.403   9.569  67.559  1.00  0.00    -0.125 C  
HETATM    9  C   UNL     1      -9.740   7.496  67.320  1.00  0.00    -0.167 C  
HETATM   10  C   UNL     1     -10.036   8.907  69.331  1.00  0.00    -0.202 C  
ENDBRANCH   6   7
ENDBRANCH   5   6
ENDBRANCH   4   5
ENDBRANCH   2   4
TORSDOF 4
ENDMDL
MODEL      122
REMARK 921   NORMALIZED FREE ENERGY PREDICTED BY IDOCK:   -2.02 KCAL/MOL
REMARK 922        TOTAL FREE ENERGY PREDICTED BY IDOCK:   -2.83 KCAL/MOL
REMARK 923 INTER-LIGAND FREE ENERGY PREDICTED BY IDOCK:   -2.68 KCAL/MOL
REMARK 924 INTRA-LIGAND FREE ENERGY PREDICTED BY IDOCK:   -0.16 KCAL/MOL
REMARK 927      BINDING AFFINITY PREDICTED BY RF-SCORE:    0.00 PKD
ROOT
HETATM    1  C   UNL     1      -8.872  12.030  67.965  1.00  0.00    -0.179 C  
HETATM    2  C   UNL     1      -9.879  12.286  66.889  1.00  0.00    -0.209 C  
HETATM    3  O   UNL     1      -9.680  12.172  65.687  1.00  0.00    -0.242 OA 
ENDROOT
BRANCH   2   4
HETATM    4  O   UNL     1     -11.084  12.629  67.429  1.00  0.00    -0.251 OA 
BRANCH   4   5
HETATM    5  C   UNL     1     -11.003  13.521  68.556  1.00  0.00    -0.267 C  
BRANCH   5   6
HETATM    6  C   UNL     1     -11.078  14.987  68.101  1.00  0.00    -0.291 C  
BRANCH   6   7
HETATM    7  N   UNL     1     -10.435  16.003  69.069  1.00  0.00    -0.230 N  
HETATM    8  C   UNL     1      -9.024  15.586  69.463  1.00  0.00    -0.244 C  
HETATM    9  C   UNL     1     -11.297  16.051  70.334  1.00  0.00    -0.391 C  
HETATM   10  C   UNL     1     -10.417  17.401  68.456  1.00  0.00    -0.370 C  
ENDBRANCH   6   7
ENDBRANCH   5   6
ENDBRANCH   4   5
ENDBRANCH   2   4
TORSDOF 4
ENDMDL
MODEL      123
REMARK 921   NORMALIZED FREE ENERGY PREDICTED BY IDOCK:   -2.02 KCAL/MOL
REMARK 922        TOTAL FREE ENERGY PREDICTED BY IDOCK:   -2.83 KCAL/MOL
REMARK 923 INTER-LIGAND FREE ENERGY PREDICTED BY IDOCK:   -2.70 KCAL/MOL
REMARK 924 INTRA-LIGAND FREE ENERGY PREDICTED BY IDOCK:   -0.13 KCAL/MOL
REMARK 927      BINDING AFFINITY PREDICTED BY RF-SCORE:    0.00 PKD
ROOT
HETATM    1  C   UNL     1      -9.221   8.161  72.594  1.00  0.00    -0.332 C  
HETATM    2  C   UNL     1     -10.655   8.457  72.286  1.00  0.00    -0.342 C  
HETATM    3  O   UNL     1     -11.619   7.864  72.751  1.00  0.00    -0.383 OA 
ENDROOT
BRANCH   2   4
HETATM    4  O   UNL     1     -10.756   9.520  71.438  1.00  0.00    -0.346 OA 
BRANCH   4   5
HETATM    5  C   UNL     1      -9.803   9.517  70.358  1.00  0.00    -0.271 C  
BRANCH   5   6
HETATM    6  C   UNL     1     -10.433   8.953  69.074  1.00  0.00    -0.214 C  
BRANCH   6   7
HETATM    7  N   UNL     1      -9.956   9.622  67.767  1.00  0.00    -0.162 N  
HETATM    8  C   UNL     1      -9.674   8.593  66.681  1.00  0.00    -0.247 C  
HETATM    9  C   UNL     1      -8.654  10.370  68.075  1.00  0.00    -0.123 C  
HETATM   10  C   UNL     1     -10.980  10.640  67.273  1.00  0.00    -0.284 C  
ENDBRANCH   6   7
ENDBRANCH   5   6
ENDBRANCH   4   5
ENDBRANCH   2   4
TORSDOF 4
ENDMDL
MODEL      124
REMARK 921   NORMALIZED FREE ENERGY PREDICTED BY IDOCK:   -2.02 KCAL/MOL
REMARK 922        TOTAL FREE ENERGY PREDICTED BY IDOCK:   -2.83 KCAL/MOL
REMARK 923 INTER-LIGAND FREE ENERGY PREDICTED BY IDOCK:   -2.68 KCAL/MOL
REMARK 924 INTRA-LIGAND FREE ENERGY PREDICTED BY IDOCK:   -0.15 KCAL/MOL
REMARK 927      BINDING AFFINITY PREDICTED BY RF-SCORE:    0.00 PKD
ROOT
HETATM    1  C   UNL     1     -10.723  19.220  67.294  1.00  0.00    -0.594 C  
HETATM    2  C   UNL     1     -10.209  17.858  67.641  1.00  0.00    -0.365 C  
HETATM    3  O   UNL     1     -10.878  16.942  68.099  1.00  0.00    -0.362 OA 
ENDROOT
BRANCH   2   4
HETATM    4  O   UNL     1      -8.885  17.750  67.334  1.00  0.00    -0.236 OA 
BRANCH   4   5
HETATM    5  C   UNL     1      -7.992  18.104  68.407  1.00  0.00    -0.302 C  
BRANCH   5   6
HETATM    6  C   UNL     1      -7.378  16.848  69.046  1.00  0.00    -0.231 C  
BRANCH   6   7
HETATM    7  N   UNL     1      -5.849  16.717  68.883  1.00  0.00    -0.144 N  
HETATM    8  C   UNL     1      -5.201  18.058  68.566  1.00  0.00    -0.155 C  
HETATM    9  C   UNL     1      -5.584  15.763  67.713  1.00  0.00    -0.137 C  
HETATM   10  C   UNL     1      -5.219  16.113  70.136  1.00  0.00    -0.156 C  
ENDBRANCH   6   7
ENDBRANCH   5   6
ENDBRANCH   4   5
ENDBRANCH   2   4
TORSDOF 4
ENDMDL
MODEL      125
REMARK 921   NORMALIZED FREE ENERGY PREDICTED BY IDOCK:   -2.01 KCAL/MOL
REMARK 922        TOTAL FREE ENERGY PREDICTED BY IDOCK:   -2.81 KCAL/MOL
REMARK 923 INTER-LIGAND FREE ENERGY PREDICTED BY IDOCK:   -2.68 KCAL/MOL
REMARK 924 INTRA-LIGAND FREE ENERGY PREDICTED BY IDOCK:   -0.13 KCAL/MOL
REMARK 927      BINDING AFFINITY PREDICTED BY RF-SCORE:    0.00 PKD
ROOT
HETATM    1  C   UNL     1      -8.210  10.176  69.413  1.00  0.00    -0.171 C  
HETATM    2  C   UNL     1      -8.446   9.159  70.485  1.00  0.00    -0.205 C  
HETATM    3  O   UNL     1      -7.970   9.190  71.611  1.00  0.00    -0.342 OA 
ENDROOT
BRANCH   2   4
HETATM    4  O   UNL     1      -9.310   8.196  70.053  1.00  0.00    -0.158 OA 
BRANCH   4   5
HETATM    5  C   UNL     1     -10.582   8.694  69.600  1.00  0.00    -0.218 C  
BRANCH   5   6
HETATM    6  C   UNL     1     -11.412   9.231  70.779  1.00  0.00    -0.292 C  
BRANCH   6   7
HETATM    7  N   UNL     1     -12.196   8.158  71.563  1.00  0.00    -0.294 N  
HETATM    8  C   UNL     1     -13.618   8.611  71.864  1.00  0.00    -0.410 C  
HETATM    9  C   UNL     1     -11.470   7.929  72.893  1.00  0.00    -0.297 C  
HETATM   10  C   UNL     1     -12.217   6.835  70.802  1.00  0.00    -0.297 C  
ENDBRANCH   6   7
ENDBRANCH   5   6
ENDBRANCH   4   5
ENDBRANCH   2   4
TORSDOF 4
ENDMDL
MODEL      126
REMARK 921   NORMALIZED FREE ENERGY PREDICTED BY IDOCK:   -2.00 KCAL/MOL
REMARK 922        TOTAL FREE ENERGY PREDICTED BY IDOCK:   -2.81 KCAL/MOL
REMARK 923 INTER-LIGAND FREE ENERGY PREDICTED BY IDOCK:   -2.56 KCAL/MOL
REMARK 924 INTRA-LIGAND FREE ENERGY PREDICTED BY IDOCK:   -0.26 KCAL/MOL
REMARK 927      BINDING AFFINITY PREDICTED BY RF-SCORE:    0.00 PKD
ROOT
HETATM    1  C   UNL     1      -8.290   9.880  67.130  1.00  0.00    -0.121 C  
HETATM    2  C   UNL     1      -9.733   9.692  66.782  1.00  0.00    -0.197 C  
HETATM    3  O   UNL     1     -10.205   9.746  65.655  1.00  0.00    -0.265 OA 
ENDROOT
BRANCH   2   4
HETATM    4  O   UNL     1     -10.463   9.404  67.897  1.00  0.00    -0.219 OA 
BRANCH   4   5
HETATM    5  C   UNL     1     -10.580  10.491  68.834  1.00  0.00    -0.216 C  
BRANCH   5   6
HETATM    6  C   UNL     1     -11.774  11.393  68.480  1.00  0.00    -0.318 C  
BRANCH   6   7
HETATM    7  N   UNL     1     -11.401  12.834  68.072  1.00  0.00    -0.271 N  
HETATM    8  C   UNL     1     -11.788  13.126  66.628  1.00  0.00    -0.391 C  
HETATM    9  C   UNL     1      -9.881  12.978  68.204  1.00  0.00    -0.228 C  
HETATM   10  C   UNL     1     -12.055  13.849  69.006  1.00  0.00    -0.329 C  
ENDBRANCH   6   7
ENDBRANCH   5   6
ENDBRANCH   4   5
ENDBRANCH   2   4
TORSDOF 4
ENDMDL
MODEL      127
REMARK 921   NORMALIZED FREE ENERGY PREDICTED BY IDOCK:   -1.99 KCAL/MOL
REMARK 922        TOTAL FREE ENERGY PREDICTED BY IDOCK:   -2.80 KCAL/MOL
REMARK 923 INTER-LIGAND FREE ENERGY PREDICTED BY IDOCK:   -2.65 KCAL/MOL
REMARK 924 INTRA-LIGAND FREE ENERGY PREDICTED BY IDOCK:   -0.14 KCAL/MOL
REMARK 927      BINDING AFFINITY PREDICTED BY RF-SCORE:    0.00 PKD
ROOT
HETATM    1  C   UNL     1     -11.028   6.242  68.795  1.00  0.00    -0.424 C  
HETATM    2  C   UNL     1     -10.847   6.265  67.310  1.00  0.00    -0.375 C  
HETATM    3  O   UNL     1     -10.790   5.281  66.586  1.00  0.00    -0.258 OA 
ENDROOT
BRANCH   2   4
HETATM    4  O   UNL     1     -10.797   7.548  66.851  1.00  0.00    -0.345 OA 
BRANCH   4   5
HETATM    5  C   UNL     1      -9.951   8.425  67.619  1.00  0.00    -0.190 C  
BRANCH   5   6
HETATM    6  C   UNL     1     -10.286   9.898  67.333  1.00  0.00    -0.222 C  
BRANCH   6   7
HETATM    7  N   UNL     1     -10.307  10.813  68.575  1.00  0.00    -0.176 N  
HETATM    8  C   UNL     1     -11.375  11.892  68.459  1.00  0.00    -0.276 C  
HETATM    9  C   UNL     1      -8.939  11.495  68.676  1.00  0.00    -0.112 C  
HETATM   10  C   UNL     1     -10.523   9.997  69.847  1.00  0.00    -0.274 C  
ENDBRANCH   6   7
ENDBRANCH   5   6
ENDBRANCH   4   5
ENDBRANCH   2   4
TORSDOF 4
ENDMDL
MODEL      128
REMARK 921   NORMALIZED FREE ENERGY PREDICTED BY IDOCK:   -1.97 KCAL/MOL
REMARK 922        TOTAL FREE ENERGY PREDICTED BY IDOCK:   -2.76 KCAL/MOL
REMARK 923 INTER-LIGAND FREE ENERGY PREDICTED BY IDOCK:   -2.55 KCAL/MOL
REMARK 924 INTRA-LIGAND FREE ENERGY PREDICTED BY IDOCK:   -0.21 KCAL/MOL
REMARK 927      BINDING AFFINITY PREDICTED BY RF-SCORE:    0.00 PKD
ROOT
HETATM    1  C   UNL     1      -6.435  12.804  68.256  1.00  0.00    -0.083 C  
HETATM    2  C   UNL     1      -7.920  12.704  68.106  1.00  0.00    -0.158 C  
HETATM    3  O   UNL     1      -8.562  11.664  68.064  1.00  0.00    -0.139 OA 
ENDROOT
BRANCH   2   4
HETATM    4  O   UNL     1      -8.484  13.945  68.066  1.00  0.00    -0.153 OA 
BRANCH   4   5
HETATM    5  C   UNL     1      -9.038  14.309  66.788  1.00  0.00    -0.249 C  
BRANCH   5   6
HETATM    6  C   UNL     1     -10.573  14.369  66.853  1.00  0.00    -0.278 C  
BRANCH   6   7
HETATM    7  N   UNL     1     -11.302  13.302  66.009  1.00  0.00    -0.299 N  
HETATM    8  C   UNL     1     -10.472  12.874  64.807  1.00  0.00    -0.350 C  
HETATM    9  C   UNL     1     -12.608  13.921  65.501  1.00  0.00    -0.526 C  
HETATM   10  C   UNL     1     -11.657  12.085  66.861  1.00  0.00    -0.318 C  
ENDBRANCH   6   7
ENDBRANCH   5   6
ENDBRANCH   4   5
ENDBRANCH   2   4
TORSDOF 4
ENDMDL
MODEL      129
REMARK 921   NORMALIZED FREE ENERGY PREDICTED BY IDOCK:   -1.96 KCAL/MOL
REMARK 922        TOTAL FREE ENERGY PREDICTED BY IDOCK:   -2.75 KCAL/MOL
REMARK 923 INTER-LIGAND FREE ENERGY PREDICTED BY IDOCK:   -2.57 KCAL/MOL
REMARK 924 INTRA-LIGAND FREE ENERGY PREDICTED BY IDOCK:   -0.19 KCAL/MOL
REMARK 927      BINDING AFFINITY PREDICTED BY RF-SCORE:    0.00 PKD
ROOT
HETATM    1  C   UNL     1      -8.951   9.482  67.275  1.00  0.00    -0.143 C  
HETATM    2  C   UNL     1     -10.409   9.181  67.419  1.00  0.00    -0.264 C  
HETATM    3  O   UNL     1     -11.270   9.982  67.756  1.00  0.00    -0.256 OA 
ENDROOT
BRANCH   2   4
HETATM    4  O   UNL     1     -10.670   7.887  67.078  1.00  0.00    -0.339 OA 
BRANCH   4   5
HETATM    5  C   UNL     1     -10.081   6.907  67.953  1.00  0.00    -0.162 C  
BRANCH   5   6
HETATM    6  C   UNL     1     -11.135   6.320  68.906  1.00  0.00    -0.362 C  
BRANCH   6   7
HETATM    7  N   UNL     1     -10.839   6.521  70.407  1.00  0.00    -0.252 N  
HETATM    8  C   UNL     1     -10.259   5.263  71.038  1.00  0.00    -0.229 C  
HETATM    9  C   UNL     1     -12.164   6.846  71.105  1.00  0.00    -0.379 C  
HETATM   10  C   UNL     1      -9.892   7.699  70.621  1.00  0.00    -0.182 C  
ENDBRANCH   6   7
ENDBRANCH   5   6
ENDBRANCH   4   5
ENDBRANCH   2   4
TORSDOF 4
ENDMDL
MODEL      130
REMARK 921   NORMALIZED FREE ENERGY PREDICTED BY IDOCK:   -1.96 KCAL/MOL
REMARK 922        TOTAL FREE ENERGY PREDICTED BY IDOCK:   -2.75 KCAL/MOL
REMARK 923 INTER-LIGAND FREE ENERGY PREDICTED BY IDOCK:   -2.63 KCAL/MOL
REMARK 924 INTRA-LIGAND FREE ENERGY PREDICTED BY IDOCK:   -0.13 KCAL/MOL
REMARK 927      BINDING AFFINITY PREDICTED BY RF-SCORE:    0.00 PKD
ROOT
HETATM    1  C   UNL     1     -11.937  14.933  69.113  1.00  0.00    -0.313 C  
HETATM    2  C   UNL     1     -11.862  13.605  69.799  1.00  0.00    -0.327 C  
HETATM    3  O   UNL     1     -12.537  13.262  70.760  1.00  0.00    -0.333 OA 
ENDROOT
BRANCH   2   4
HETATM    4  O   UNL     1     -10.959  12.793  69.178  1.00  0.00    -0.216 OA 
BRANCH   4   5
HETATM    5  C   UNL     1     -11.327  12.401  67.842  1.00  0.00    -0.289 C  
BRANCH   5   6
HETATM    6  C   UNL     1     -10.094  12.357  66.925  1.00  0.00    -0.219 C  
BRANCH   6   7
HETATM    7  N   UNL     1      -9.841  10.997  66.240  1.00  0.00    -0.208 N  
HETATM    8  C   UNL     1     -10.427   9.846  67.045  1.00  0.00    -0.230 C  
HETATM    9  C   UNL     1      -8.324  10.799  66.144  1.00  0.00    -0.166 C  
HETATM   10  C   UNL     1     -10.408  10.989  64.823  1.00  0.00    -0.324 C  
ENDBRANCH   6   7
ENDBRANCH   5   6
ENDBRANCH   4   5
ENDBRANCH   2   4
TORSDOF 4
ENDMDL
MODEL      131
REMARK 921   NORMALIZED FREE ENERGY PREDICTED BY IDOCK:   -1.95 KCAL/MOL
REMARK 922        TOTAL FREE ENERGY PREDICTED BY IDOCK:   -2.74 KCAL/MOL
REMARK 923 INTER-LIGAND FREE ENERGY PREDICTED BY IDOCK:   -2.44 KCAL/MOL
REMARK 924 INTRA-LIGAND FREE ENERGY PREDICTED BY IDOCK:   -0.30 KCAL/MOL
REMARK 927      BINDING AFFINITY PREDICTED BY RF-SCORE:    0.00 PKD
ROOT
HETATM    1  C   UNL     1      -8.345   6.463  73.181  1.00  0.00    -0.115 C  
HETATM    2  C   UNL     1      -8.880   7.747  73.733  1.00  0.00    -0.269 C  
HETATM    3  O   UNL     1      -8.219   8.749  73.969  1.00  0.00    -0.329 OA 
ENDROOT
BRANCH   2   4
HETATM    4  O   UNL     1     -10.231   7.672  73.903  1.00  0.00    -0.207 OA 
BRANCH   4   5
HETATM    5  C   UNL     1     -10.982   7.559  72.680  1.00  0.00    -0.336 C  
BRANCH   5   6
HETATM    6  C   UNL     1     -11.052   8.912  71.953  1.00  0.00    -0.372 C  
BRANCH   6   7
HETATM    7  N   UNL     1     -10.539   8.894  70.497  1.00  0.00    -0.209 N  
HETATM    8  C   UNL     1     -11.385   9.781  69.594  1.00  0.00    -0.122 C  
HETATM    9  C   UNL     1     -10.634   7.453  69.986  1.00  0.00    -0.232 C  
HETATM   10  C   UNL     1      -9.076   9.323  70.431  1.00  0.00    -0.247 C  
ENDBRANCH   6   7
ENDBRANCH   5   6
ENDBRANCH   4   5
ENDBRANCH   2   4
TORSDOF 4
ENDMDL
MODEL      132
REMARK 921   NORMALIZED FREE ENERGY PREDICTED BY IDOCK:   -1.95 KCAL/MOL
REMARK 922        TOTAL FREE ENERGY PREDICTED BY IDOCK:   -2.74 KCAL/MOL
REMARK 923 INTER-LIGAND FREE ENERGY PREDICTED BY IDOCK:   -2.59 KCAL/MOL
REMARK 924 INTRA-LIGAND FREE ENERGY PREDICTED BY IDOCK:   -0.15 KCAL/MOL
REMARK 927      BINDING AFFINITY PREDICTED BY RF-SCORE:    0.00 PKD
ROOT
HETATM    1  C   UNL     1      -9.958   9.535  65.739  1.00  0.00    -0.316 C  
HETATM    2  C   UNL     1     -10.292   9.866  67.159  1.00  0.00    -0.243 C  
HETATM    3  O   UNL     1     -10.405  10.995  67.618  1.00  0.00    -0.179 OA 
ENDROOT
BRANCH   2   4
HETATM    4  O   UNL     1     -10.502   8.729  67.882  1.00  0.00    -0.229 OA 
BRANCH   4   5
HETATM    5  C   UNL     1      -9.945   8.753  69.210  1.00  0.00    -0.194 C  
BRANCH   5   6
HETATM    6  C   UNL     1     -10.755   7.855  70.159  1.00  0.00    -0.244 C  
BRANCH   6   7
HETATM    7  N   UNL     1     -11.240   8.545  71.452  1.00  0.00    -0.251 N  
HETATM    8  C   UNL     1     -12.479   7.867  72.018  1.00  0.00    -0.304 C  
HETATM    9  C   UNL     1     -11.598   9.993  71.101  1.00  0.00    -0.378 C  
HETATM   10  C   UNL     1     -10.131   8.574  72.501  1.00  0.00    -0.249 C  
ENDBRANCH   6   7
ENDBRANCH   5   6
ENDBRANCH   4   5
ENDBRANCH   2   4
TORSDOF 4
ENDMDL
MODEL      133
REMARK 921   NORMALIZED FREE ENERGY PREDICTED BY IDOCK:   -1.92 KCAL/MOL
REMARK 922        TOTAL FREE ENERGY PREDICTED BY IDOCK:   -2.70 KCAL/MOL
REMARK 923 INTER-LIGAND FREE ENERGY PREDICTED BY IDOCK:   -2.60 KCAL/MOL
REMARK 924 INTRA-LIGAND FREE ENERGY PREDICTED BY IDOCK:   -0.10 KCAL/MOL
REMARK 927      BINDING AFFINITY PREDICTED BY RF-SCORE:    0.00 PKD
ROOT
HETATM    1  C   UNL     1     -12.443   9.167  71.940  1.00  0.00    -0.459 C  
HETATM    2  C   UNL     1     -11.676   7.915  72.228  1.00  0.00    -0.355 C  
HETATM    3  O   UNL     1     -11.032   7.693  73.245  1.00  0.00    -0.400 OA 
ENDROOT
BRANCH   2   4
HETATM    4  O   UNL     1     -11.824   7.016  71.214  1.00  0.00    -0.293 OA 
BRANCH   4   5
HETATM    5  C   UNL     1     -11.068   7.323  70.027  1.00  0.00    -0.240 C  
BRANCH   5   6
HETATM    6  C   UNL     1     -11.021   6.114  69.079  1.00  0.00    -0.367 C  
BRANCH   6   7
HETATM    7  N   UNL     1      -9.605   5.692  68.633  1.00  0.00    -0.125 N  
HETATM    8  C   UNL     1      -8.962   6.744  67.740  1.00  0.00    -0.116 C  
HETATM    9  C   UNL     1      -9.736   4.392  67.832  1.00  0.00    -0.129 C  
HETATM   10  C   UNL     1      -8.715   5.414  69.841  1.00  0.00    -0.121 C  
ENDBRANCH   6   7
ENDBRANCH   5   6
ENDBRANCH   4   5
ENDBRANCH   2   4
TORSDOF 4
ENDMDL
MODEL      134
REMARK 921   NORMALIZED FREE ENERGY PREDICTED BY IDOCK:   -1.91 KCAL/MOL
REMARK 922        TOTAL FREE ENERGY PREDICTED BY IDOCK:   -2.70 KCAL/MOL
REMARK 923 INTER-LIGAND FREE ENERGY PREDICTED BY IDOCK:   -2.39 KCAL/MOL
REMARK 924 INTRA-LIGAND FREE ENERGY PREDICTED BY IDOCK:   -0.30 KCAL/MOL
REMARK 927      BINDING AFFINITY PREDICTED BY RF-SCORE:    0.00 PKD
ROOT
HETATM    1  C   UNL     1      -8.254   8.277  73.632  1.00  0.00    -0.257 C  
HETATM    2  C   UNL     1      -9.685   7.969  73.319  1.00  0.00    -0.238 C  
HETATM    3  O   UNL     1     -10.387   7.168  73.919  1.00  0.00    -0.358 OA 
ENDROOT
BRANCH   2   4
HETATM    4  O   UNL     1     -10.128   8.742  72.287  1.00  0.00    -0.311 OA 
BRANCH   4   5
HETATM    5  C   UNL     1     -11.104   8.106  71.439  1.00  0.00    -0.247 C  
BRANCH   5   6
HETATM    6  C   UNL     1     -10.547   7.903  70.020  1.00  0.00    -0.242 C  
BRANCH   6   7
HETATM    7  N   UNL     1      -9.950   6.506  69.749  1.00  0.00    -0.164 N  
HETATM    8  C   UNL     1     -10.188   6.063  68.312  1.00  0.00    -0.181 C  
HETATM    9  C   UNL     1     -10.648   5.512  70.684  1.00  0.00    -0.259 C  
HETATM   10  C   UNL     1      -8.457   6.483  70.066  1.00  0.00    -0.135 C  
ENDBRANCH   6   7
ENDBRANCH   5   6
ENDBRANCH   4   5
ENDBRANCH   2   4
TORSDOF 4
ENDMDL
MODEL      135
REMARK 921   NORMALIZED FREE ENERGY PREDICTED BY IDOCK:   -1.90 KCAL/MOL
REMARK 922        TOTAL FREE ENERGY PREDICTED BY IDOCK:   -2.69 KCAL/MOL
REMARK 923 INTER-LIGAND FREE ENERGY PREDICTED BY IDOCK:   -2.48 KCAL/MOL
REMARK 924 INTRA-LIGAND FREE ENERGY PREDICTED BY IDOCK:   -0.21 KCAL/MOL
REMARK 927      BINDING AFFINITY PREDICTED BY RF-SCORE:    0.00 PKD
ROOT
HETATM    1  C   UNL     1      -9.265   6.606  66.466  1.00  0.00    -0.183 C  
HETATM    2  C   UNL     1     -10.185   5.584  67.057  1.00  0.00    -0.224 C  
HETATM    3  O   UNL     1     -10.130   4.378  66.857  1.00  0.00    -0.209 OA 
ENDROOT
BRANCH   2   4
HETATM    4  O   UNL     1     -11.082   6.173  67.897  1.00  0.00    -0.328 OA 
BRANCH   4   5
HETATM    5  C   UNL     1     -10.895   5.857  69.289  1.00  0.00    -0.344 C  
BRANCH   5   6
HETATM    6  C   UNL     1     -11.378   7.011  70.183  1.00  0.00    -0.277 C  
BRANCH   6   7
HETATM    7  N   UNL     1     -10.353   8.146  70.391  1.00  0.00    -0.202 N  
HETATM    8  C   UNL     1      -8.926   7.656  70.192  1.00  0.00    -0.146 C  
HETATM    9  C   UNL     1     -10.497   8.647  71.831  1.00  0.00    -0.340 C  
HETATM   10  C   UNL     1     -10.641   9.315  69.453  1.00  0.00    -0.223 C  
ENDBRANCH   6   7
ENDBRANCH   5   6
ENDBRANCH   4   5
ENDBRANCH   2   4
TORSDOF 4
ENDMDL
MODEL      136
REMARK 921   NORMALIZED FREE ENERGY PREDICTED BY IDOCK:   -1.89 KCAL/MOL
REMARK 922        TOTAL FREE ENERGY PREDICTED BY IDOCK:   -2.67 KCAL/MOL
REMARK 923 INTER-LIGAND FREE ENERGY PREDICTED BY IDOCK:   -2.50 KCAL/MOL
REMARK 924 INTRA-LIGAND FREE ENERGY PREDICTED BY IDOCK:   -0.17 KCAL/MOL
REMARK 927      BINDING AFFINITY PREDICTED BY RF-SCORE:    0.00 PKD
ROOT
HETATM    1  C   UNL     1     -12.474   6.651  71.788  1.00  0.00    -0.360 C  
HETATM    2  C   UNL     1     -11.583   6.890  70.610  1.00  0.00    -0.353 C  
HETATM    3  O   UNL     1     -11.412   6.116  69.680  1.00  0.00    -0.429 OA 
ENDROOT
BRANCH   2   4
HETATM    4  O   UNL     1     -11.008   8.125  70.685  1.00  0.00    -0.237 OA 
BRANCH   4   5
HETATM    5  C   UNL     1      -9.854   8.299  69.843  1.00  0.00    -0.186 C  
BRANCH   5   6
HETATM    6  C   UNL     1      -9.783   9.736  69.301  1.00  0.00    -0.196 C  
BRANCH   6   7
HETATM    7  N   UNL     1      -9.676   9.847  67.765  1.00  0.00    -0.148 N  
HETATM    8  C   UNL     1     -10.236  11.169  67.258  1.00  0.00    -0.193 C  
HETATM    9  C   UNL     1     -10.500   8.707  67.157  1.00  0.00    -0.289 C  
HETATM   10  C   UNL     1      -8.230   9.680  67.308  1.00  0.00    -0.114 C  
ENDBRANCH   6   7
ENDBRANCH   5   6
ENDBRANCH   4   5
ENDBRANCH   2   4
TORSDOF 4
ENDMDL
MODEL      137
REMARK 921   NORMALIZED FREE ENERGY PREDICTED BY IDOCK:   -1.89 KCAL/MOL
REMARK 922        TOTAL FREE ENERGY PREDICTED BY IDOCK:   -2.67 KCAL/MOL
REMARK 923 INTER-LIGAND FREE ENERGY PREDICTED BY IDOCK:   -2.40 KCAL/MOL
REMARK 924 INTRA-LIGAND FREE ENERGY PREDICTED BY IDOCK:   -0.27 KCAL/MOL
REMARK 927      BINDING AFFINITY PREDICTED BY RF-SCORE:    0.00 PKD
ROOT
HETATM    1  C   UNL     1      -6.309  13.238  67.367  1.00  0.00    -0.027 C  
HETATM    2  C   UNL     1      -7.236  14.375  67.658  1.00  0.00    -0.184 C  
HETATM    3  O   UNL     1      -8.217  14.324  68.387  1.00  0.00    -0.133 OA 
ENDROOT
BRANCH   2   4
HETATM    4  O   UNL     1      -6.817  15.511  67.031  1.00  0.00    -0.252 OA 
BRANCH   4   5
HETATM    5  C   UNL     1      -7.304  16.733  67.615  1.00  0.00    -0.146 C  
BRANCH   5   6
HETATM    6  C   UNL     1      -8.066  17.571  66.576  1.00  0.00    -0.270 C  
BRANCH   6   7
HETATM    7  N   UNL     1      -9.585  17.687  66.820  1.00  0.00    -0.283 N  
HETATM    8  C   UNL     1      -9.926  17.572  68.300  1.00  0.00    -0.330 C  
HETATM    9  C   UNL     1     -10.267  16.534  66.075  1.00  0.00    -0.356 C  
HETATM   10  C   UNL     1     -10.128  18.999  66.258  1.00  0.00    -0.422 C  
ENDBRANCH   6   7
ENDBRANCH   5   6
ENDBRANCH   4   5
ENDBRANCH   2   4
TORSDOF 4
ENDMDL
MODEL      138
REMARK 921   NORMALIZED FREE ENERGY PREDICTED BY IDOCK:   -1.89 KCAL/MOL
REMARK 922        TOTAL FREE ENERGY PREDICTED BY IDOCK:   -2.66 KCAL/MOL
REMARK 923 INTER-LIGAND FREE ENERGY PREDICTED BY IDOCK:   -2.61 KCAL/MOL
REMARK 924 INTRA-LIGAND FREE ENERGY PREDICTED BY IDOCK:   -0.06 KCAL/MOL
REMARK 927      BINDING AFFINITY PREDICTED BY RF-SCORE:    0.00 PKD
ROOT
HETATM    1  C   UNL     1     -10.963  11.034  66.375  1.00  0.00    -0.202 C  
HETATM    2  C   UNL     1     -11.786  12.284  66.386  1.00  0.00    -0.311 C  
HETATM    3  O   UNL     1     -12.743  12.512  65.660  1.00  0.00    -0.521 OA 
ENDROOT
BRANCH   2   4
HETATM    4  O   UNL     1     -11.352  13.136  67.358  1.00  0.00    -0.277 OA 
BRANCH   4   5
HETATM    5  C   UNL     1     -10.657  14.298  66.869  1.00  0.00    -0.273 C  
BRANCH   5   6
HETATM    6  C   UNL     1      -9.152  14.016  66.728  1.00  0.00    -0.232 C  
BRANCH   6   7
HETATM    7  N   UNL     1      -8.236  14.933  67.566  1.00  0.00    -0.168 N  
HETATM    8  C   UNL     1      -7.953  16.247  66.853  1.00  0.00    -0.243 C  
HETATM    9  C   UNL     1      -6.908  14.199  67.776  1.00  0.00    -0.176 C  
HETATM   10  C   UNL     1      -8.848  15.202  68.939  1.00  0.00    -0.205 C  
ENDBRANCH   6   7
ENDBRANCH   5   6
ENDBRANCH   4   5
ENDBRANCH   2   4
TORSDOF 4
ENDMDL
MODEL      139
REMARK 921   NORMALIZED FREE ENERGY PREDICTED BY IDOCK:   -1.88 KCAL/MOL
REMARK 922        TOTAL FREE ENERGY PREDICTED BY IDOCK:   -2.65 KCAL/MOL
REMARK 923 INTER-LIGAND FREE ENERGY PREDICTED BY IDOCK:   -2.36 KCAL/MOL
REMARK 924 INTRA-LIGAND FREE ENERGY PREDICTED BY IDOCK:   -0.30 KCAL/MOL
REMARK 927      BINDING AFFINITY PREDICTED BY RF-SCORE:    0.00 PKD
ROOT
HETATM    1  C   UNL     1     -10.660   7.118  73.269  1.00  0.00    -0.405 C  
HETATM    2  C   UNL     1     -11.562   7.632  72.192  1.00  0.00    -0.308 C  
HETATM    3  O   UNL     1     -12.539   7.048  71.744  1.00  0.00    -0.344 OA 
ENDROOT
BRANCH   2   4
HETATM    4  O   UNL     1     -11.176   8.878  71.794  1.00  0.00    -0.315 OA 
BRANCH   4   5
HETATM    5  C   UNL     1     -11.074   9.046  70.368  1.00  0.00    -0.244 C  
BRANCH   5   6
HETATM    6  C   UNL     1      -9.613   9.268  69.945  1.00  0.00    -0.199 C  
BRANCH   6   7
HETATM    7  N   UNL     1      -8.922   8.036  69.322  1.00  0.00    -0.148 N  
HETATM    8  C   UNL     1      -9.934   7.069  68.723  1.00  0.00    -0.160 C  
HETATM    9  C   UNL     1      -8.163   7.313  70.439  1.00  0.00    -0.125 C  
HETATM   10  C   UNL     1      -7.910   8.460  68.260  1.00  0.00    -0.110 C  
ENDBRANCH   6   7
ENDBRANCH   5   6
ENDBRANCH   4   5
ENDBRANCH   2   4
TORSDOF 4
ENDMDL
MODEL      140
REMARK 921   NORMALIZED FREE ENERGY PREDICTED BY IDOCK:   -1.88 KCAL/MOL
REMARK 922        TOTAL FREE ENERGY PREDICTED BY IDOCK:   -2.65 KCAL/MOL
REMARK 923 INTER-LIGAND FREE ENERGY PREDICTED BY IDOCK:   -2.51 KCAL/MOL
REMARK 924 INTRA-LIGAND FREE ENERGY PREDICTED BY IDOCK:   -0.14 KCAL/MOL
REMARK 927      BINDING AFFINITY PREDICTED BY RF-SCORE:    0.00 PKD
ROOT
HETATM    1  C   UNL     1     -11.605   9.322  71.632  1.00  0.00    -0.463 C  
HETATM    2  C   UNL     1     -10.189   9.213  71.159  1.00  0.00    -0.314 C  
HETATM    3  O   UNL     1      -9.194   9.332  71.860  1.00  0.00    -0.298 OA 
ENDROOT
BRANCH   2   4
HETATM    4  O   UNL     1     -10.148   8.914  69.829  1.00  0.00    -0.188 OA 
BRANCH   4   5
HETATM    5  C   UNL     1     -11.016   9.718  69.008  1.00  0.00    -0.163 C  
BRANCH   5   6
HETATM    6  C   UNL     1     -10.370  10.001  67.642  1.00  0.00    -0.224 C  
BRANCH   6   7
HETATM    7  N   UNL     1     -10.189  11.496  67.305  1.00  0.00    -0.199 N  
HETATM    8  C   UNL     1      -9.008  11.721  66.370  1.00  0.00    -0.201 C  
HETATM    9  C   UNL     1      -9.917  12.240  68.617  1.00  0.00    -0.118 C  
HETATM   10  C   UNL     1     -11.462  12.072  66.690  1.00  0.00    -0.346 C  
ENDBRANCH   6   7
ENDBRANCH   5   6
ENDBRANCH   4   5
ENDBRANCH   2   4
TORSDOF 4
ENDMDL
MODEL      141
REMARK 921   NORMALIZED FREE ENERGY PREDICTED BY IDOCK:   -1.87 KCAL/MOL
REMARK 922        TOTAL FREE ENERGY PREDICTED BY IDOCK:   -2.64 KCAL/MOL
REMARK 923 INTER-LIGAND FREE ENERGY PREDICTED BY IDOCK:   -2.50 KCAL/MOL
REMARK 924 INTRA-LIGAND FREE ENERGY PREDICTED BY IDOCK:   -0.15 KCAL/MOL
REMARK 927      BINDING AFFINITY PREDICTED BY RF-SCORE:    0.00 PKD
ROOT
HETATM    1  C   UNL     1      -7.417   9.201  68.806  1.00  0.00    -0.076 C  
HETATM    2  C   UNL     1      -8.546  10.181  68.871  1.00  0.00    -0.141 C  
HETATM    3  O   UNL     1      -8.441  11.395  68.766  1.00  0.00    -0.151 OA 
ENDROOT
BRANCH   2   4
HETATM    4  O   UNL     1      -9.737   9.533  69.023  1.00  0.00    -0.162 OA 
BRANCH   4   5
HETATM    5  C   UNL     1     -10.486   9.923  70.188  1.00  0.00    -0.285 C  
BRANCH   5   6
HETATM    6  C   UNL     1     -10.112   9.050  71.397  1.00  0.00    -0.329 C  
BRANCH   6   7
HETATM    7  N   UNL     1     -11.243   8.135  71.914  1.00  0.00    -0.272 N  
HETATM    8  C   UNL     1     -10.844   7.420  73.197  1.00  0.00    -0.386 C  
HETATM    9  C   UNL     1     -11.518   7.080  70.837  1.00  0.00    -0.308 C  
HETATM   10  C   UNL     1     -12.527   8.931  72.134  1.00  0.00    -0.389 C  
ENDBRANCH   6   7
ENDBRANCH   5   6
ENDBRANCH   4   5
ENDBRANCH   2   4
TORSDOF 4
ENDMDL
MODEL      142
REMARK 921   NORMALIZED FREE ENERGY PREDICTED BY IDOCK:   -1.84 KCAL/MOL
REMARK 922        TOTAL FREE ENERGY PREDICTED BY IDOCK:   -2.60 KCAL/MOL
REMARK 923 INTER-LIGAND FREE ENERGY PREDICTED BY IDOCK:   -2.38 KCAL/MOL
REMARK 924 INTRA-LIGAND FREE ENERGY PREDICTED BY IDOCK:   -0.22 KCAL/MOL
REMARK 927      BINDING AFFINITY PREDICTED BY RF-SCORE:    0.00 PKD
ROOT
HETATM    1  C   UNL     1      -8.780   6.790  73.292  1.00  0.00    -0.138 C  
HETATM    2  C   UNL     1      -8.873   8.154  72.684  1.00  0.00    -0.219 C  
HETATM    3  O   UNL     1      -7.923   8.863  72.382  1.00  0.00    -0.374 OA 
ENDROOT
BRANCH   2   4
HETATM    4  O   UNL     1     -10.174   8.495  72.463  1.00  0.00    -0.310 OA 
BRANCH   4   5
HETATM    5  C   UNL     1     -10.850   7.680  71.487  1.00  0.00    -0.227 C  
BRANCH   5   6
HETATM    6  C   UNL     1     -10.847   8.360  70.108  1.00  0.00    -0.236 C  
BRANCH   6   7
HETATM    7  N   UNL     1     -10.352   7.473  68.947  1.00  0.00    -0.208 N  
HETATM    8  C   UNL     1      -8.864   7.176  69.061  1.00  0.00    -0.131 C  
HETATM    9  C   UNL     1     -10.595   8.237  67.641  1.00  0.00    -0.194 C  
HETATM   10  C   UNL     1     -11.144   6.169  68.884  1.00  0.00    -0.345 C  
ENDBRANCH   6   7
ENDBRANCH   5   6
ENDBRANCH   4   5
ENDBRANCH   2   4
TORSDOF 4
ENDMDL
MODEL      143
REMARK 921   NORMALIZED FREE ENERGY PREDICTED BY IDOCK:   -1.83 KCAL/MOL
REMARK 922        TOTAL FREE ENERGY PREDICTED BY IDOCK:   -2.60 KCAL/MOL
REMARK 923 INTER-LIGAND FREE ENERGY PREDICTED BY IDOCK:   -2.38 KCAL/MOL
REMARK 924 INTRA-LIGAND FREE ENERGY PREDICTED BY IDOCK:   -0.22 KCAL/MOL
REMARK 927      BINDING AFFINITY PREDICTED BY RF-SCORE:    0.00 PKD
ROOT
HETATM    1  C   UNL     1     -10.089  10.545  64.783  1.00  0.00    -0.406 C  
HETATM    2  C   UNL     1     -10.326  11.341  66.028  1.00  0.00    -0.252 C  
HETATM    3  O   UNL     1     -11.418  11.710  66.438  1.00  0.00    -0.390 OA 
ENDROOT
BRANCH   2   4
HETATM    4  O   UNL     1      -9.153  11.569  66.684  1.00  0.00    -0.178 OA 
BRANCH   4   5
HETATM    5  C   UNL     1      -9.176  11.240  68.085  1.00  0.00    -0.170 C  
BRANCH   5   6
HETATM    6  C   UNL     1      -9.070   9.720  68.293  1.00  0.00    -0.122 C  
BRANCH   6   7
HETATM    7  N   UNL     1      -9.939   9.158  69.438  1.00  0.00    -0.185 N  
HETATM    8  C   UNL     1     -10.332   7.709  69.184  1.00  0.00    -0.213 C  
HETATM    9  C   UNL     1     -11.216  10.001  69.511  1.00  0.00    -0.208 C  
HETATM   10  C   UNL     1      -9.216   9.278  70.777  1.00  0.00    -0.253 C  
ENDBRANCH   6   7
ENDBRANCH   5   6
ENDBRANCH   4   5
ENDBRANCH   2   4
TORSDOF 4
ENDMDL
MODEL      144
REMARK 921   NORMALIZED FREE ENERGY PREDICTED BY IDOCK:   -1.82 KCAL/MOL
REMARK 922        TOTAL FREE ENERGY PREDICTED BY IDOCK:   -2.58 KCAL/MOL
REMARK 923 INTER-LIGAND FREE ENERGY PREDICTED BY IDOCK:   -2.33 KCAL/MOL
REMARK 924 INTRA-LIGAND FREE ENERGY PREDICTED BY IDOCK:   -0.25 KCAL/MOL
REMARK 927      BINDING AFFINITY PREDICTED BY RF-SCORE:    0.00 PKD
ROOT
HETATM    1  C   UNL     1      -7.902   6.431  68.573  1.00  0.00    -0.105 C  
HETATM    2  C   UNL     1      -9.038   5.771  69.290  1.00  0.00    -0.118 C  
HETATM    3  O   UNL     1      -8.934   5.033  70.259  1.00  0.00    -0.111 OA 
ENDROOT
BRANCH   2   4
HETATM    4  O   UNL     1     -10.231   6.140  68.742  1.00  0.00    -0.156 OA 
BRANCH   4   5
HETATM    5  C   UNL     1     -11.317   6.236  69.683  1.00  0.00    -0.422 C  
BRANCH   5   6
HETATM    6  C   UNL     1     -11.381   7.641  70.304  1.00  0.00    -0.181 C  
BRANCH   6   7
HETATM    7  N   UNL     1     -11.433   7.669  71.846  1.00  0.00    -0.262 N  
HETATM    8  C   UNL     1     -11.560   6.268  72.428  1.00  0.00    -0.282 C  
HETATM    9  C   UNL     1     -12.668   8.478  72.257  1.00  0.00    -0.367 C  
HETATM   10  C   UNL     1     -10.201   8.365  72.418  1.00  0.00    -0.329 C  
ENDBRANCH   6   7
ENDBRANCH   5   6
ENDBRANCH   4   5
ENDBRANCH   2   4
TORSDOF 4
ENDMDL
MODEL      145
REMARK 921   NORMALIZED FREE ENERGY PREDICTED BY IDOCK:   -1.82 KCAL/MOL
REMARK 922        TOTAL FREE ENERGY PREDICTED BY IDOCK:   -2.58 KCAL/MOL
REMARK 923 INTER-LIGAND FREE ENERGY PREDICTED BY IDOCK:   -2.45 KCAL/MOL
REMARK 924 INTRA-LIGAND FREE ENERGY PREDICTED BY IDOCK:   -0.14 KCAL/MOL
REMARK 927      BINDING AFFINITY PREDICTED BY RF-SCORE:    0.00 PKD
ROOT
HETATM    1  C   UNL     1     -10.648  11.452  66.691  1.00  0.00    -0.302 C  
HETATM    2  C   UNL     1     -10.265  11.945  68.051  1.00  0.00    -0.192 C  
HETATM    3  O   UNL     1      -9.645  12.973  68.286  1.00  0.00    -0.219 OA 
ENDROOT
BRANCH   2   4
HETATM    4  O   UNL     1     -10.744  11.110  69.017  1.00  0.00    -0.206 OA 
BRANCH   4   5
HETATM    5  C   UNL     1      -9.803  10.120  69.472  1.00  0.00    -0.232 C  
BRANCH   5   6
HETATM    6  C   UNL     1     -10.436   8.719  69.464  1.00  0.00    -0.220 C  
BRANCH   6   7
HETATM    7  N   UNL     1     -10.957   8.233  70.834  1.00  0.00    -0.241 N  
HETATM    8  C   UNL     1      -9.996   8.592  71.959  1.00  0.00    -0.329 C  
HETATM    9  C   UNL     1     -11.080   6.707  70.771  1.00  0.00    -0.286 C  
HETATM   10  C   UNL     1     -12.342   8.806  71.123  1.00  0.00    -0.219 C  
ENDBRANCH   6   7
ENDBRANCH   5   6
ENDBRANCH   4   5
ENDBRANCH   2   4
TORSDOF 4
ENDMDL
MODEL      146
REMARK 921   NORMALIZED FREE ENERGY PREDICTED BY IDOCK:   -1.82 KCAL/MOL
REMARK 922        TOTAL FREE ENERGY PREDICTED BY IDOCK:   -2.58 KCAL/MOL
REMARK 923 INTER-LIGAND FREE ENERGY PREDICTED BY IDOCK:   -2.34 KCAL/MOL
REMARK 924 INTRA-LIGAND FREE ENERGY PREDICTED BY IDOCK:   -0.24 KCAL/MOL
REMARK 927      BINDING AFFINITY PREDICTED BY RF-SCORE:    0.00 PKD
ROOT
HETATM    1  C   UNL     1      -9.675   7.168  74.076  1.00  0.00    -0.314 C  
HETATM    2  C   UNL     1      -8.523   7.624  73.237  1.00  0.00    -0.160 C  
HETATM    3  O   UNL     1      -8.013   8.735  73.274  1.00  0.00    -0.409 OA 
ENDROOT
BRANCH   2   4
HETATM    4  O   UNL     1      -8.076   6.611  72.442  1.00  0.00    -0.100 OA 
BRANCH   4   5
HETATM    5  C   UNL     1      -9.040   6.129  71.488  1.00  0.00    -0.143 C  
BRANCH   5   6
HETATM    6  C   UNL     1      -9.044   7.002  70.223  1.00  0.00    -0.156 C  
BRANCH   6   7
HETATM    7  N   UNL     1     -10.440   7.463  69.755  1.00  0.00    -0.223 N  
HETATM    8  C   UNL     1     -11.518   6.455  70.128  1.00  0.00    -0.417 C  
HETATM    9  C   UNL     1     -10.402   7.589  68.228  1.00  0.00    -0.195 C  
HETATM   10  C   UNL     1     -10.781   8.835  70.333  1.00  0.00    -0.225 C  
ENDBRANCH   6   7
ENDBRANCH   5   6
ENDBRANCH   4   5
ENDBRANCH   2   4
TORSDOF 4
ENDMDL
MODEL      147
REMARK 921   NORMALIZED FREE ENERGY PREDICTED BY IDOCK:   -1.81 KCAL/MOL
REMARK 922        TOTAL FREE ENERGY PREDICTED BY IDOCK:   -2.57 KCAL/MOL
REMARK 923 INTER-LIGAND FREE ENERGY PREDICTED BY IDOCK:   -2.46 KCAL/MOL
REMARK 924 INTRA-LIGAND FREE ENERGY PREDICTED BY IDOCK:   -0.11 KCAL/MOL
REMARK 927      BINDING AFFINITY PREDICTED BY RF-SCORE:    0.00 PKD
ROOT
HETATM    1  C   UNL     1      -9.503  17.781  68.774  1.00  0.00    -0.254 C  
HETATM    2  C   UNL     1      -8.899  16.474  68.367  1.00  0.00    -0.218 C  
HETATM    3  O   UNL     1      -7.703  16.221  68.340  1.00  0.00    -0.155 OA 
ENDROOT
BRANCH   2   4
HETATM    4  O   UNL     1      -9.873  15.568  68.066  1.00  0.00    -0.211 OA 
BRANCH   4   5
HETATM    5  C   UNL     1      -9.534  14.202  68.369  1.00  0.00    -0.214 C  
BRANCH   5   6
HETATM    6  C   UNL     1     -10.789  13.313  68.371  1.00  0.00    -0.258 C  
BRANCH   6   7
HETATM    7  N   UNL     1     -10.787  12.184  67.318  1.00  0.00    -0.235 N  
HETATM    8  C   UNL     1      -9.385  11.910  66.792  1.00  0.00    -0.201 C  
HETATM    9  C   UNL     1     -11.664  12.637  66.147  1.00  0.00    -0.406 C  
HETATM   10  C   UNL     1     -11.391  10.905  67.893  1.00  0.00    -0.308 C  
ENDBRANCH   6   7
ENDBRANCH   5   6
ENDBRANCH   4   5
ENDBRANCH   2   4
TORSDOF 4
ENDMDL
MODEL      148
REMARK 921   NORMALIZED FREE ENERGY PREDICTED BY IDOCK:   -1.81 KCAL/MOL
REMARK 922        TOTAL FREE ENERGY PREDICTED BY IDOCK:   -2.57 KCAL/MOL
REMARK 923 INTER-LIGAND FREE ENERGY PREDICTED BY IDOCK:   -2.32 KCAL/MOL
REMARK 924 INTRA-LIGAND FREE ENERGY PREDICTED BY IDOCK:   -0.24 KCAL/MOL
REMARK 927      BINDING AFFINITY PREDICTED BY RF-SCORE:    0.00 PKD
ROOT
HETATM    1  C   UNL     1     -10.532   9.451  67.403  1.00  0.00    -0.343 C  
HETATM    2  C   UNL     1     -11.109  10.799  67.701  1.00  0.00    -0.319 C  
HETATM    3  O   UNL     1     -12.102  11.012  68.383  1.00  0.00    -0.594 OA 
ENDROOT
BRANCH   2   4
HETATM    4  O   UNL     1     -10.348  11.782  67.142  1.00  0.00    -0.209 OA 
BRANCH   4   5
HETATM    5  C   UNL     1      -9.437  12.425  68.053  1.00  0.00    -0.208 C  
BRANCH   5   6
HETATM    6  C   UNL     1      -8.129  12.807  67.342  1.00  0.00    -0.185 C  
BRANCH   6   7
HETATM    7  N   UNL     1      -6.966  11.812  67.541  1.00  0.00    -0.103 N  
HETATM    8  C   UNL     1      -5.616  12.515  67.521  1.00  0.00    -0.131 C  
HETATM    9  C   UNL     1      -7.007  10.809  66.384  1.00  0.00    -0.134 C  
HETATM   10  C   UNL     1      -7.133  11.035  68.845  1.00  0.00    -0.098 C  
ENDBRANCH   6   7
ENDBRANCH   5   6
ENDBRANCH   4   5
ENDBRANCH   2   4
TORSDOF 4
ENDMDL
MODEL      149
REMARK 921   NORMALIZED FREE ENERGY PREDICTED BY IDOCK:   -1.81 KCAL/MOL
REMARK 922        TOTAL FREE ENERGY PREDICTED BY IDOCK:   -2.57 KCAL/MOL
REMARK 923 INTER-LIGAND FREE ENERGY PREDICTED BY IDOCK:   -2.44 KCAL/MOL
REMARK 924 INTRA-LIGAND FREE ENERGY PREDICTED BY IDOCK:   -0.12 KCAL/MOL
REMARK 927      BINDING AFFINITY PREDICTED BY RF-SCORE:    0.00 PKD
ROOT
HETATM    1  C   UNL     1      -8.712   9.402  63.819  1.00  0.00    -0.223 C  
HETATM    2  C   UNL     1      -9.688  10.322  64.482  1.00  0.00    -0.329 C  
HETATM    3  O   UNL     1     -10.559  10.965  63.912  1.00  0.00    -0.359 OA 
ENDROOT
BRANCH   2   4
HETATM    4  O   UNL     1      -9.509  10.321  65.834  1.00  0.00    -0.170 OA 
BRANCH   4   5
HETATM    5  C   UNL     1     -10.380   9.428  66.552  1.00  0.00    -0.198 C  
BRANCH   5   6
HETATM    6  C   UNL     1     -10.981  10.123  67.786  1.00  0.00    -0.277 C  
BRANCH   6   7
HETATM    7  N   UNL     1     -10.554   9.523  69.142  1.00  0.00    -0.219 N  
HETATM    8  C   UNL     1      -9.176  10.015  69.564  1.00  0.00    -0.221 C  
HETATM    9  C   UNL     1     -10.496   8.000  68.981  1.00  0.00    -0.199 C  
HETATM   10  C   UNL     1     -11.580   9.845  70.225  1.00  0.00    -0.250 C  
ENDBRANCH   6   7
ENDBRANCH   5   6
ENDBRANCH   4   5
ENDBRANCH   2   4
TORSDOF 4
ENDMDL
MODEL      150
REMARK 921   NORMALIZED FREE ENERGY PREDICTED BY IDOCK:   -1.81 KCAL/MOL
REMARK 922        TOTAL FREE ENERGY PREDICTED BY IDOCK:   -2.57 KCAL/MOL
REMARK 923 INTER-LIGAND FREE ENERGY PREDICTED BY IDOCK:   -2.44 KCAL/MOL
REMARK 924 INTRA-LIGAND FREE ENERGY PREDICTED BY IDOCK:   -0.13 KCAL/MOL
REMARK 927      BINDING AFFINITY PREDICTED BY RF-SCORE:    0.00 PKD
ROOT
HETATM    1  C   UNL     1      -9.858   4.539  70.779  1.00  0.00    -0.280 C  
HETATM    2  C   UNL     1      -9.961   5.061  69.380  1.00  0.00    -0.220 C  
HETATM    3  O   UNL     1      -9.148   4.866  68.487  1.00  0.00    -0.106 OA 
ENDROOT
BRANCH   2   4
HETATM    4  O   UNL     1     -11.120   5.759  69.211  1.00  0.00    -0.333 OA 
BRANCH   4   5
HETATM    5  C   UNL     1     -11.225   6.947  70.017  1.00  0.00    -0.299 C  
BRANCH   5   6
HETATM    6  C   UNL     1     -10.595   8.153  69.301  1.00  0.00    -0.182 C  
BRANCH   6   7
HETATM    7  N   UNL     1     -10.192   9.321  70.225  1.00  0.00    -0.210 N  
HETATM    8  C   UNL     1     -11.140   9.452  71.409  1.00  0.00    -0.380 C  
HETATM    9  C   UNL     1     -10.263  10.612  69.403  1.00  0.00    -0.192 C  
HETATM   10  C   UNL     1      -8.757   9.154  70.718  1.00  0.00    -0.236 C  
ENDBRANCH   6   7
ENDBRANCH   5   6
ENDBRANCH   4   5
ENDBRANCH   2   4
TORSDOF 4
ENDMDL
MODEL      151
REMARK 921   NORMALIZED FREE ENERGY PREDICTED BY IDOCK:   -1.79 KCAL/MOL
REMARK 922        TOTAL FREE ENERGY PREDICTED BY IDOCK:   -2.55 KCAL/MOL
REMARK 923 INTER-LIGAND FREE ENERGY PREDICTED BY IDOCK:   -2.44 KCAL/MOL
REMARK 924 INTRA-LIGAND FREE ENERGY PREDICTED BY IDOCK:   -0.11 KCAL/MOL
REMARK 927      BINDING AFFINITY PREDICTED BY RF-SCORE:    0.00 PKD
ROOT
HETATM    1  C   UNL     1     -11.823  14.893  69.091  1.00  0.00    -0.340 C  
HETATM    2  C   UNL     1     -11.993  13.513  69.644  1.00  0.00    -0.337 C  
HETATM    3  O   UNL     1     -12.429  13.241  70.754  1.00  0.00    -0.353 OA 
ENDROOT
BRANCH   2   4
HETATM    4  O   UNL     1     -11.635  12.577  68.720  1.00  0.00    -0.275 OA 
BRANCH   4   5
HETATM    5  C   UNL     1     -10.912  11.453  69.255  1.00  0.00    -0.229 C  
BRANCH   5   6
HETATM    6  C   UNL     1     -11.378  10.140  68.603  1.00  0.00    -0.112 C  
BRANCH   6   7
HETATM    7  N   UNL     1     -10.241   9.194  68.163  1.00  0.00    -0.198 N  
HETATM    8  C   UNL     1     -10.315   7.855  68.883  1.00  0.00    -0.213 C  
HETATM    9  C   UNL     1      -8.911   9.865  68.522  1.00  0.00    -0.122 C  
HETATM   10  C   UNL     1     -10.268   8.979  66.651  1.00  0.00    -0.263 C  
ENDBRANCH   6   7
ENDBRANCH   5   6
ENDBRANCH   4   5
ENDBRANCH   2   4
TORSDOF 4
ENDMDL
MODEL      152
REMARK 921   NORMALIZED FREE ENERGY PREDICTED BY IDOCK:   -1.79 KCAL/MOL
REMARK 922        TOTAL FREE ENERGY PREDICTED BY IDOCK:   -2.55 KCAL/MOL
REMARK 923 INTER-LIGAND FREE ENERGY PREDICTED BY IDOCK:   -2.42 KCAL/MOL
REMARK 924 INTRA-LIGAND FREE ENERGY PREDICTED BY IDOCK:   -0.13 KCAL/MOL
REMARK 927      BINDING AFFINITY PREDICTED BY RF-SCORE:    0.00 PKD
ROOT
HETATM    1  C   UNL     1     -11.106   5.852  72.287  1.00  0.00    -0.330 C  
HETATM    2  C   UNL     1     -11.759   6.490  71.101  1.00  0.00    -0.335 C  
HETATM    3  O   UNL     1     -12.757   7.196  71.133  1.00  0.00    -0.367 OA 
ENDROOT
BRANCH   2   4
HETATM    4  O   UNL     1     -11.061   6.214  69.962  1.00  0.00    -0.332 OA 
BRANCH   4   5
HETATM    5  C   UNL     1     -10.207   7.281  69.511  1.00  0.00    -0.198 C  
BRANCH   5   6
HETATM    6  C   UNL     1      -9.114   6.748  68.571  1.00  0.00    -0.129 C  
BRANCH   6   7
HETATM    7  N   UNL     1      -9.336   7.055  67.074  1.00  0.00    -0.140 N  
HETATM    8  C   UNL     1     -10.164   8.317  66.877  1.00  0.00    -0.318 C  
HETATM    9  C   UNL     1     -10.099   5.874  66.465  1.00  0.00    -0.156 C  
HETATM   10  C   UNL     1      -8.002   7.183  66.343  1.00  0.00    -0.112 C  
ENDBRANCH   6   7
ENDBRANCH   5   6
ENDBRANCH   4   5
ENDBRANCH   2   4
TORSDOF 4
ENDMDL
MODEL      153
REMARK 921   NORMALIZED FREE ENERGY PREDICTED BY IDOCK:   -1.79 KCAL/MOL
REMARK 922        TOTAL FREE ENERGY PREDICTED BY IDOCK:   -2.55 KCAL/MOL
REMARK 923 INTER-LIGAND FREE ENERGY PREDICTED BY IDOCK:   -2.44 KCAL/MOL
REMARK 924 INTRA-LIGAND FREE ENERGY PREDICTED BY IDOCK:   -0.10 KCAL/MOL
REMARK 927      BINDING AFFINITY PREDICTED BY RF-SCORE:    0.00 PKD
ROOT
HETATM    1  C   UNL     1      -7.284   5.158  72.551  1.00  0.00    -0.092 C  
HETATM    2  C   UNL     1      -8.634   5.167  73.196  1.00  0.00    -0.110 C  
HETATM    3  O   UNL     1      -8.915   4.642  74.264  1.00  0.00    -0.108 OA 
ENDROOT
BRANCH   2   4
HETATM    4  O   UNL     1      -9.519   5.887  72.449  1.00  0.00    -0.147 OA 
BRANCH   4   5
HETATM    5  C   UNL     1     -10.729   6.251  73.140  1.00  0.00    -0.261 C  
BRANCH   5   6
HETATM    6  C   UNL     1     -10.977   7.765  73.048  1.00  0.00    -0.381 C  
BRANCH   6   7
HETATM    7  N   UNL     1     -11.866   8.208  71.867  1.00  0.00    -0.297 N  
HETATM    8  C   UNL     1     -11.093   9.064  70.874  1.00  0.00    -0.280 C  
HETATM    9  C   UNL     1     -13.015   9.047  72.437  1.00  0.00    -0.405 C  
HETATM   10  C   UNL     1     -12.470   6.999  71.158  1.00  0.00    -0.362 C  
ENDBRANCH   6   7
ENDBRANCH   5   6
ENDBRANCH   4   5
ENDBRANCH   2   4
TORSDOF 4
ENDMDL
MODEL      154
REMARK 921   NORMALIZED FREE ENERGY PREDICTED BY IDOCK:   -1.79 KCAL/MOL
REMARK 922        TOTAL FREE ENERGY PREDICTED BY IDOCK:   -2.54 KCAL/MOL
REMARK 923 INTER-LIGAND FREE ENERGY PREDICTED BY IDOCK:   -2.44 KCAL/MOL
REMARK 924 INTRA-LIGAND FREE ENERGY PREDICTED BY IDOCK:   -0.11 KCAL/MOL
REMARK 927      BINDING AFFINITY PREDICTED BY RF-SCORE:    0.00 PKD
ROOT
HETATM    1  C   UNL     1      -7.343  17.265  68.179  1.00  0.00    -0.199 C  
HETATM    2  C   UNL     1      -7.541  15.909  68.782  1.00  0.00    -0.178 C  
HETATM    3  O   UNL     1      -7.751  15.682  69.965  1.00  0.00     0.027 OA 
ENDROOT
BRANCH   2   4
HETATM    4  O   UNL     1      -7.500  14.944  67.820  1.00  0.00    -0.130 OA 
BRANCH   4   5
HETATM    5  C   UNL     1      -8.412  15.152  66.725  1.00  0.00    -0.237 C  
BRANCH   5   6
HETATM    6  C   UNL     1      -9.494  14.060  66.699  1.00  0.00    -0.287 C  
BRANCH   6   7
HETATM    7  N   UNL     1     -10.739  14.398  65.851  1.00  0.00    -0.297 N  
HETATM    8  C   UNL     1     -12.017  13.896  66.506  1.00  0.00    -0.439 C  
HETATM    9  C   UNL     1     -10.583  13.701  64.495  1.00  0.00    -0.411 C  
HETATM   10  C   UNL     1     -10.833  15.901  65.601  1.00  0.00    -0.284 C  
ENDBRANCH   6   7
ENDBRANCH   5   6
ENDBRANCH   4   5
ENDBRANCH   2   4
TORSDOF 4
ENDMDL
MODEL      155
REMARK 921   NORMALIZED FREE ENERGY PREDICTED BY IDOCK:   -1.78 KCAL/MOL
REMARK 922        TOTAL FREE ENERGY PREDICTED BY IDOCK:   -2.53 KCAL/MOL
REMARK 923 INTER-LIGAND FREE ENERGY PREDICTED BY IDOCK:   -2.29 KCAL/MOL
REMARK 924 INTRA-LIGAND FREE ENERGY PREDICTED BY IDOCK:   -0.24 KCAL/MOL
REMARK 927      BINDING AFFINITY PREDICTED BY RF-SCORE:    0.00 PKD
ROOT
HETATM    1  C   UNL     1      -8.808   9.916  68.407  1.00  0.00    -0.120 C  
HETATM    2  C   UNL     1     -10.079   9.238  68.813  1.00  0.00    -0.195 C  
HETATM    3  O   UNL     1     -10.578   8.271  68.255  1.00  0.00    -0.187 OA 
ENDROOT
BRANCH   2   4
HETATM    4  O   UNL     1     -10.597   9.819  69.933  1.00  0.00    -0.227 OA 
BRANCH   4   5
HETATM    5  C   UNL     1     -11.446   8.959  70.715  1.00  0.00    -0.275 C  
BRANCH   5   6
HETATM    6  C   UNL     1     -10.861   8.742  72.120  1.00  0.00    -0.330 C  
BRANCH   6   7
HETATM    7  N   UNL     1     -10.319   7.321  72.387  1.00  0.00    -0.200 N  
HETATM    8  C   UNL     1      -8.891   7.162  71.883  1.00  0.00    -0.123 C  
HETATM    9  C   UNL     1     -11.212   6.332  71.631  1.00  0.00    -0.285 C  
HETATM   10  C   UNL     1     -10.391   6.983  73.873  1.00  0.00    -0.348 C  
ENDBRANCH   6   7
ENDBRANCH   5   6
ENDBRANCH   4   5
ENDBRANCH   2   4
TORSDOF 4
ENDMDL
MODEL      156
REMARK 921   NORMALIZED FREE ENERGY PREDICTED BY IDOCK:   -1.75 KCAL/MOL
REMARK 922        TOTAL FREE ENERGY PREDICTED BY IDOCK:   -2.49 KCAL/MOL
REMARK 923 INTER-LIGAND FREE ENERGY PREDICTED BY IDOCK:   -2.40 KCAL/MOL
REMARK 924 INTRA-LIGAND FREE ENERGY PREDICTED BY IDOCK:   -0.09 KCAL/MOL
REMARK 927      BINDING AFFINITY PREDICTED BY RF-SCORE:    0.00 PKD
ROOT
HETATM    1  C   UNL     1     -12.207  13.539  66.853  1.00  0.00    -0.377 C  
HETATM    2  C   UNL     1     -10.856  12.906  66.734  1.00  0.00    -0.267 C  
HETATM    3  O   UNL     1      -9.793  13.441  67.017  1.00  0.00    -0.238 OA 
ENDROOT
BRANCH   2   4
HETATM    4  O   UNL     1     -10.965  11.617  66.303  1.00  0.00    -0.278 OA 
BRANCH   4   5
HETATM    5  C   UNL     1     -10.731  10.624  67.320  1.00  0.00    -0.285 C  
BRANCH   5   6
HETATM    6  C   UNL     1      -9.289  10.095  67.246  1.00  0.00    -0.152 C  
BRANCH   6   7
HETATM    7  N   UNL     1      -9.163   8.593  66.914  1.00  0.00    -0.151 N  
HETATM    8  C   UNL     1     -10.498   7.874  67.053  1.00  0.00    -0.349 C  
HETATM    9  C   UNL     1      -8.175   7.976  67.909  1.00  0.00    -0.129 C  
HETATM   10  C   UNL     1      -8.604   8.394  65.507  1.00  0.00    -0.176 C  
ENDBRANCH   6   7
ENDBRANCH   5   6
ENDBRANCH   4   5
ENDBRANCH   2   4
TORSDOF 4
ENDMDL
MODEL      157
REMARK 921   NORMALIZED FREE ENERGY PREDICTED BY IDOCK:   -1.74 KCAL/MOL
REMARK 922        TOTAL FREE ENERGY PREDICTED BY IDOCK:   -2.48 KCAL/MOL
REMARK 923 INTER-LIGAND FREE ENERGY PREDICTED BY IDOCK:   -2.27 KCAL/MOL
REMARK 924 INTRA-LIGAND FREE ENERGY PREDICTED BY IDOCK:   -0.22 KCAL/MOL
REMARK 927      BINDING AFFINITY PREDICTED BY RF-SCORE:    0.00 PKD
ROOT
HETATM    1  C   UNL     1      -8.075   5.884  73.949  1.00  0.00    -0.108 C  
HETATM    2  C   UNL     1      -7.565   6.973  73.058  1.00  0.00    -0.083 C  
HETATM    3  O   UNL     1      -6.436   7.040  72.592  1.00  0.00    -0.053 OA 
ENDROOT
BRANCH   2   4
HETATM    4  O   UNL     1      -8.551   7.877  72.790  1.00  0.00    -0.137 OA 
BRANCH   4   5
HETATM    5  C   UNL     1      -9.804   7.607  73.446  1.00  0.00    -0.303 C  
BRANCH   5   6
HETATM    6  C   UNL     1     -10.983   8.138  72.614  1.00  0.00    -0.370 C  
BRANCH   6   7
HETATM    7  N   UNL     1     -11.671   7.087  71.717  1.00  0.00    -0.283 N  
HETATM    8  C   UNL     1     -13.156   7.377  71.551  1.00  0.00    -0.374 C  
HETATM    9  C   UNL     1     -11.517   5.722  72.396  1.00  0.00    -0.288 C  
HETATM   10  C   UNL     1     -10.995   7.013  70.351  1.00  0.00    -0.268 C  
ENDBRANCH   6   7
ENDBRANCH   5   6
ENDBRANCH   4   5
ENDBRANCH   2   4
TORSDOF 4
ENDMDL
MODEL      158
REMARK 921   NORMALIZED FREE ENERGY PREDICTED BY IDOCK:   -1.74 KCAL/MOL
REMARK 922        TOTAL FREE ENERGY PREDICTED BY IDOCK:   -2.48 KCAL/MOL
REMARK 923 INTER-LIGAND FREE ENERGY PREDICTED BY IDOCK:   -2.32 KCAL/MOL
REMARK 924 INTRA-LIGAND FREE ENERGY PREDICTED BY IDOCK:   -0.16 KCAL/MOL
REMARK 927      BINDING AFFINITY PREDICTED BY RF-SCORE:    0.00 PKD
ROOT
HETATM    1  C   UNL     1      -6.181  13.188  67.579  1.00  0.00    -0.129 C  
HETATM    2  C   UNL     1      -6.482  14.615  67.914  1.00  0.00    -0.164 C  
HETATM    3  O   UNL     1      -5.922  15.276  68.777  1.00  0.00    -0.086 OA 
ENDROOT
BRANCH   2   4
HETATM    4  O   UNL     1      -7.450  15.108  67.090  1.00  0.00    -0.203 OA 
BRANCH   4   5
HETATM    5  C   UNL     1      -8.698  14.392  67.136  1.00  0.00    -0.226 C  
BRANCH   5   6
HETATM    6  C   UNL     1      -9.492  14.755  68.401  1.00  0.00    -0.213 C  
BRANCH   6   7
HETATM    7  N   UNL     1     -10.841  15.460  68.143  1.00  0.00    -0.274 N  
HETATM    8  C   UNL     1     -11.504  15.895  69.442  1.00  0.00    -0.351 C  
HETATM    9  C   UNL     1     -11.763  14.458  67.441  1.00  0.00    -0.397 C  
HETATM   10  C   UNL     1     -10.658  16.661  67.219  1.00  0.00    -0.281 C  
ENDBRANCH   6   7
ENDBRANCH   5   6
ENDBRANCH   4   5
ENDBRANCH   2   4
TORSDOF 4
ENDMDL
MODEL      159
REMARK 921   NORMALIZED FREE ENERGY PREDICTED BY IDOCK:   -1.73 KCAL/MOL
REMARK 922        TOTAL FREE ENERGY PREDICTED BY IDOCK:   -2.47 KCAL/MOL
REMARK 923 INTER-LIGAND FREE ENERGY PREDICTED BY IDOCK:   -2.25 KCAL/MOL
REMARK 924 INTRA-LIGAND FREE ENERGY PREDICTED BY IDOCK:   -0.23 KCAL/MOL
REMARK 927      BINDING AFFINITY PREDICTED BY RF-SCORE:    0.00 PKD
ROOT
HETATM    1  C   UNL     1      -9.047   6.223  68.790  1.00  0.00    -0.127 C  
HETATM    2  C   UNL     1     -10.446   6.234  68.259  1.00  0.00    -0.228 C  
HETATM    3  O   UNL     1     -10.757   6.264  67.076  1.00  0.00    -0.281 OA 
ENDROOT
BRANCH   2   4
HETATM    4  O   UNL     1     -11.349   6.161  69.278  1.00  0.00    -0.416 OA 
BRANCH   4   5
HETATM    5  C   UNL     1     -10.863   6.648  70.543  1.00  0.00    -0.261 C  
BRANCH   5   6
HETATM    6  C   UNL     1     -11.376   5.774  71.700  1.00  0.00    -0.148 C  
BRANCH   6   7
HETATM    7  N   UNL     1     -10.277   5.055  72.509  1.00  0.00    -0.189 N  
HETATM    8  C   UNL     1      -9.027   5.913  72.644  1.00  0.00    -0.131 C  
HETATM    9  C   UNL     1      -9.906   3.773  71.756  1.00  0.00    -0.174 C  
HETATM   10  C   UNL     1     -10.791   4.658  73.891  1.00  0.00    -0.291 C  
ENDBRANCH   6   7
ENDBRANCH   5   6
ENDBRANCH   4   5
ENDBRANCH   2   4
TORSDOF 4
ENDMDL
MODEL      160
REMARK 921   NORMALIZED FREE ENERGY PREDICTED BY IDOCK:   -1.71 KCAL/MOL
REMARK 922        TOTAL FREE ENERGY PREDICTED BY IDOCK:   -2.44 KCAL/MOL
REMARK 923 INTER-LIGAND FREE ENERGY PREDICTED BY IDOCK:   -2.36 KCAL/MOL
REMARK 924 INTRA-LIGAND FREE ENERGY PREDICTED BY IDOCK:   -0.08 KCAL/MOL
REMARK 927      BINDING AFFINITY PREDICTED BY RF-SCORE:    0.00 PKD
ROOT
HETATM    1  C   UNL     1     -11.600   9.307  71.627  1.00  0.00    -0.463 C  
HETATM    2  C   UNL     1     -10.180   9.139  71.185  1.00  0.00    -0.314 C  
HETATM    3  O   UNL     1      -9.198   9.185  71.914  1.00  0.00    -0.354 OA 
ENDROOT
BRANCH   2   4
HETATM    4  O   UNL     1     -10.120   8.879  69.848  1.00  0.00    -0.185 OA 
BRANCH   4   5
HETATM    5  C   UNL     1      -9.774  10.014  69.033  1.00  0.00    -0.199 C  
BRANCH   5   6
HETATM    6  C   UNL     1      -8.885   9.590  67.852  1.00  0.00    -0.119 C  
BRANCH   6   7
HETATM    7  N   UNL     1      -8.946  10.523  66.624  1.00  0.00    -0.141 N  
HETATM    8  C   UNL     1      -7.646  10.495  65.833  1.00  0.00    -0.148 C  
HETATM    9  C   UNL     1      -9.172  11.950  67.134  1.00  0.00    -0.183 C  
HETATM   10  C   UNL     1     -10.119  10.154  65.719  1.00  0.00    -0.254 C  
ENDBRANCH   6   7
ENDBRANCH   5   6
ENDBRANCH   4   5
ENDBRANCH   2   4
TORSDOF 4
ENDMDL
MODEL      161
REMARK 921   NORMALIZED FREE ENERGY PREDICTED BY IDOCK:   -1.70 KCAL/MOL
REMARK 922        TOTAL FREE ENERGY PREDICTED BY IDOCK:   -2.44 KCAL/MOL
REMARK 923 INTER-LIGAND FREE ENERGY PREDICTED BY IDOCK:   -2.31 KCAL/MOL
REMARK 924 INTRA-LIGAND FREE ENERGY PREDICTED BY IDOCK:   -0.13 KCAL/MOL
REMARK 927      BINDING AFFINITY PREDICTED BY RF-SCORE:    0.00 PKD
ROOT
HETATM    1  C   UNL     1      -9.451   3.096  70.409  1.00  0.00    -0.227 C  
HETATM    2  C   UNL     1      -9.602   4.207  69.417  1.00  0.00    -0.194 C  
HETATM    3  O   UNL     1      -9.000   4.299  68.356  1.00  0.00    -0.102 OA 
ENDROOT
BRANCH   2   4
HETATM    4  O   UNL     1     -10.546   5.098  69.833  1.00  0.00    -0.280 OA 
BRANCH   4   5
HETATM    5  C   UNL     1     -10.402   5.528  71.200  1.00  0.00    -0.234 C  
BRANCH   5   6
HETATM    6  C   UNL     1      -9.398   6.687  71.307  1.00  0.00    -0.158 C  
BRANCH   6   7
HETATM    7  N   UNL     1      -9.825   7.832  72.251  1.00  0.00    -0.179 N  
HETATM    8  C   UNL     1     -11.109   7.495  72.996  1.00  0.00    -0.362 C  
HETATM    9  C   UNL     1     -10.076   9.076  71.391  1.00  0.00    -0.329 C  
HETATM   10  C   UNL     1      -8.713   8.161  73.244  1.00  0.00    -0.246 C  
ENDBRANCH   6   7
ENDBRANCH   5   6
ENDBRANCH   4   5
ENDBRANCH   2   4
TORSDOF 4
ENDMDL
MODEL      162
REMARK 921   NORMALIZED FREE ENERGY PREDICTED BY IDOCK:   -1.70 KCAL/MOL
REMARK 922        TOTAL FREE ENERGY PREDICTED BY IDOCK:   -2.44 KCAL/MOL
REMARK 923 INTER-LIGAND FREE ENERGY PREDICTED BY IDOCK:   -2.24 KCAL/MOL
REMARK 924 INTRA-LIGAND FREE ENERGY PREDICTED BY IDOCK:   -0.20 KCAL/MOL
REMARK 927      BINDING AFFINITY PREDICTED BY RF-SCORE:    0.00 PKD
ROOT
HETATM    1  C   UNL     1      -9.364   6.282  69.965  1.00  0.00    -0.164 C  
HETATM    2  C   UNL     1     -10.796   6.570  69.638  1.00  0.00    -0.304 C  
HETATM    3  O   UNL     1     -11.581   7.176  70.353  1.00  0.00    -0.295 OA 
ENDROOT
BRANCH   2   4
HETATM    4  O   UNL     1     -11.110   6.099  68.397  1.00  0.00    -0.330 OA 
BRANCH   4   5
HETATM    5  C   UNL     1     -10.268   6.592  67.339  1.00  0.00    -0.190 C  
BRANCH   5   6
HETATM    6  C   UNL     1     -10.561   8.074  67.051  1.00  0.00    -0.294 C  
BRANCH   6   7
HETATM    7  N   UNL     1      -9.312   8.953  66.830  1.00  0.00    -0.163 N  
HETATM    8  C   UNL     1      -8.031   8.202  67.164  1.00  0.00    -0.105 C  
HETATM    9  C   UNL     1      -9.422  10.163  67.764  1.00  0.00    -0.144 C  
HETATM   10  C   UNL     1      -9.259   9.469  65.394  1.00  0.00    -0.247 C  
ENDBRANCH   6   7
ENDBRANCH   5   6
ENDBRANCH   4   5
ENDBRANCH   2   4
TORSDOF 4
ENDMDL
MODEL      163
REMARK 921   NORMALIZED FREE ENERGY PREDICTED BY IDOCK:   -1.70 KCAL/MOL
REMARK 922        TOTAL FREE ENERGY PREDICTED BY IDOCK:   -2.43 KCAL/MOL
REMARK 923 INTER-LIGAND FREE ENERGY PREDICTED BY IDOCK:   -2.31 KCAL/MOL
REMARK 924 INTRA-LIGAND FREE ENERGY PREDICTED BY IDOCK:   -0.12 KCAL/MOL
REMARK 927      BINDING AFFINITY PREDICTED BY RF-SCORE:    0.00 PKD
ROOT
HETATM    1  C   UNL     1     -11.223  11.341  67.778  1.00  0.00    -0.354 C  
HETATM    2  C   UNL     1     -11.588  11.391  69.228  1.00  0.00    -0.317 C  
HETATM    3  O   UNL     1     -11.855  12.405  69.859  1.00  0.00    -0.322 OA 
ENDROOT
BRANCH   2   4
HETATM    4  O   UNL     1     -11.630  10.135  69.758  1.00  0.00    -0.235 OA 
BRANCH   4   5
HETATM    5  C   UNL     1     -10.439   9.355  69.543  1.00  0.00    -0.218 C  
BRANCH   5   6
HETATM    6  C   UNL     1      -9.686   9.129  70.864  1.00  0.00    -0.284 C  
BRANCH   6   7
HETATM    7  N   UNL     1      -9.086   7.718  71.038  1.00  0.00    -0.146 N  
HETATM    8  C   UNL     1      -8.314   7.593  72.344  1.00  0.00    -0.117 C  
HETATM    9  C   UNL     1      -8.116   7.477  69.876  1.00  0.00    -0.129 C  
HETATM   10  C   UNL     1     -10.177   6.652  70.970  1.00  0.00    -0.191 C  
ENDBRANCH   6   7
ENDBRANCH   5   6
ENDBRANCH   4   5
ENDBRANCH   2   4
TORSDOF 4
ENDMDL
MODEL      164
REMARK 921   NORMALIZED FREE ENERGY PREDICTED BY IDOCK:   -1.69 KCAL/MOL
REMARK 922        TOTAL FREE ENERGY PREDICTED BY IDOCK:   -2.42 KCAL/MOL
REMARK 923 INTER-LIGAND FREE ENERGY PREDICTED BY IDOCK:   -2.30 KCAL/MOL
REMARK 924 INTRA-LIGAND FREE ENERGY PREDICTED BY IDOCK:   -0.12 KCAL/MOL
REMARK 927      BINDING AFFINITY PREDICTED BY RF-SCORE:    0.00 PKD
ROOT
HETATM    1  C   UNL     1     -10.620   7.508  73.267  1.00  0.00    -0.438 C  
HETATM    2  C   UNL     1      -9.398   7.895  72.495  1.00  0.00    -0.197 C  
HETATM    3  O   UNL     1      -8.582   8.741  72.833  1.00  0.00    -0.398 OA 
ENDROOT
BRANCH   2   4
HETATM    4  O   UNL     1      -9.283   7.140  71.365  1.00  0.00    -0.150 OA 
BRANCH   4   5
HETATM    5  C   UNL     1     -10.336   7.339  70.403  1.00  0.00    -0.208 C  
BRANCH   5   6
HETATM    6  C   UNL     1     -10.291   6.259  69.310  1.00  0.00    -0.218 C  
BRANCH   6   7
HETATM    7  N   UNL     1     -10.072   6.791  67.878  1.00  0.00    -0.150 N  
HETATM    8  C   UNL     1     -11.153   6.299  66.925  1.00  0.00    -0.253 C  
HETATM    9  C   UNL     1      -8.719   6.267  67.387  1.00  0.00    -0.105 C  
HETATM   10  C   UNL     1     -10.020   8.317  67.868  1.00  0.00    -0.183 C  
ENDBRANCH   6   7
ENDBRANCH   5   6
ENDBRANCH   4   5
ENDBRANCH   2   4
TORSDOF 4
ENDMDL
MODEL      165
REMARK 921   NORMALIZED FREE ENERGY PREDICTED BY IDOCK:   -1.68 KCAL/MOL
REMARK 922        TOTAL FREE ENERGY PREDICTED BY IDOCK:   -2.41 KCAL/MOL
REMARK 923 INTER-LIGAND FREE ENERGY PREDICTED BY IDOCK:   -2.26 KCAL/MOL
REMARK 924 INTRA-LIGAND FREE ENERGY PREDICTED BY IDOCK:   -0.15 KCAL/MOL
REMARK 927      BINDING AFFINITY PREDICTED BY RF-SCORE:    0.00 PKD
ROOT
HETATM    1  C   UNL     1     -10.557   5.839  67.746  1.00  0.00    -0.310 C  
HETATM    2  C   UNL     1      -9.063   5.799  67.821  1.00  0.00    -0.106 C  
HETATM    3  O   UNL     1      -8.305   5.703  66.866  1.00  0.00    -0.108 OA 
ENDROOT
BRANCH   2   4
HETATM    4  O   UNL     1      -8.643   5.931  69.112  1.00  0.00    -0.114 OA 
BRANCH   4   5
HETATM    5  C   UNL     1      -9.464   6.790  69.924  1.00  0.00    -0.156 C  
BRANCH   5   6
HETATM    6  C   UNL     1      -9.519   6.285  71.375  1.00  0.00    -0.156 C  
BRANCH   6   7
HETATM    7  N   UNL     1     -10.879   6.474  72.079  1.00  0.00    -0.226 N  
HETATM    8  C   UNL     1     -11.998   6.731  71.079  1.00  0.00    -0.379 C  
HETATM    9  C   UNL     1     -10.762   7.693  73.000  1.00  0.00    -0.391 C  
HETATM   10  C   UNL     1     -11.217   5.261  72.942  1.00  0.00    -0.312 C  
ENDBRANCH   6   7
ENDBRANCH   5   6
ENDBRANCH   4   5
ENDBRANCH   2   4
TORSDOF 4
ENDMDL
MODEL      166
REMARK 921   NORMALIZED FREE ENERGY PREDICTED BY IDOCK:   -1.68 KCAL/MOL
REMARK 922        TOTAL FREE ENERGY PREDICTED BY IDOCK:   -2.40 KCAL/MOL
REMARK 923 INTER-LIGAND FREE ENERGY PREDICTED BY IDOCK:   -2.30 KCAL/MOL
REMARK 924 INTRA-LIGAND FREE ENERGY PREDICTED BY IDOCK:   -0.11 KCAL/MOL
REMARK 927      BINDING AFFINITY PREDICTED BY RF-SCORE:    0.00 PKD
ROOT
HETATM    1  C   UNL     1     -11.869  12.782  66.474  1.00  0.00    -0.471 C  
HETATM    2  C   UNL     1     -10.424  12.475  66.234  1.00  0.00    -0.246 C  
HETATM    3  O   UNL     1      -9.502  13.272  66.332  1.00  0.00    -0.258 OA 
ENDROOT
BRANCH   2   4
HETATM    4  O   UNL     1     -10.257  11.156  65.930  1.00  0.00    -0.236 OA 
BRANCH   4   5
HETATM    5  C   UNL     1      -8.888  10.755  65.738  1.00  0.00    -0.188 C  
BRANCH   5   6
HETATM    6  C   UNL     1      -8.810   9.398  65.018  1.00  0.00    -0.196 C  
BRANCH   6   7
HETATM    7  N   UNL     1      -8.204   9.448  63.600  1.00  0.00    -0.157 N  
HETATM    8  C   UNL     1      -9.122  10.166  62.622  1.00  0.00    -0.290 C  
HETATM    9  C   UNL     1      -8.020   8.004  63.121  1.00  0.00    -0.143 C  
HETATM   10  C   UNL     1      -6.832  10.117  63.619  1.00  0.00    -0.112 C  
ENDBRANCH   6   7
ENDBRANCH   5   6
ENDBRANCH   4   5
ENDBRANCH   2   4
TORSDOF 4
ENDMDL
MODEL      167
REMARK 921   NORMALIZED FREE ENERGY PREDICTED BY IDOCK:   -1.67 KCAL/MOL
REMARK 922        TOTAL FREE ENERGY PREDICTED BY IDOCK:   -2.40 KCAL/MOL
REMARK 923 INTER-LIGAND FREE ENERGY PREDICTED BY IDOCK:   -2.22 KCAL/MOL
REMARK 924 INTRA-LIGAND FREE ENERGY PREDICTED BY IDOCK:   -0.18 KCAL/MOL
REMARK 927      BINDING AFFINITY PREDICTED BY RF-SCORE:    0.00 PKD
ROOT
HETATM    1  C   UNL     1     -11.155   9.126  71.802  1.00  0.00    -0.437 C  
HETATM    2  C   UNL     1     -10.353   9.396  70.568  1.00  0.00    -0.281 C  
HETATM    3  O   UNL     1      -9.157   9.651  70.539  1.00  0.00    -0.242 OA 
ENDROOT
BRANCH   2   4
HETATM    4  O   UNL     1     -11.130   9.276  69.454  1.00  0.00    -0.170 OA 
BRANCH   4   5
HETATM    5  C   UNL     1     -10.416   9.398  68.210  1.00  0.00    -0.217 C  
BRANCH   5   6
HETATM    6  C   UNL     1     -10.503   8.095  67.398  1.00  0.00    -0.285 C  
BRANCH   6   7
HETATM    7  N   UNL     1      -9.165   7.611  66.800  1.00  0.00    -0.151 N  
HETATM    8  C   UNL     1      -8.704   8.505  65.658  1.00  0.00    -0.181 C  
HETATM    9  C   UNL     1      -9.384   6.197  66.251  1.00  0.00    -0.134 C  
HETATM   10  C   UNL     1      -8.084   7.537  67.877  1.00  0.00    -0.119 C  
ENDBRANCH   6   7
ENDBRANCH   5   6
ENDBRANCH   4   5
ENDBRANCH   2   4
TORSDOF 4
ENDMDL
MODEL      168
REMARK 921   NORMALIZED FREE ENERGY PREDICTED BY IDOCK:   -1.66 KCAL/MOL
REMARK 922        TOTAL FREE ENERGY PREDICTED BY IDOCK:   -2.39 KCAL/MOL
REMARK 923 INTER-LIGAND FREE ENERGY PREDICTED BY IDOCK:   -2.24 KCAL/MOL
REMARK 924 INTRA-LIGAND FREE ENERGY PREDICTED BY IDOCK:   -0.15 KCAL/MOL
REMARK 927      BINDING AFFINITY PREDICTED BY RF-SCORE:    0.00 PKD
ROOT
HETATM    1  C   UNL     1     -11.126   7.652  72.855  1.00  0.00    -0.448 C  
HETATM    2  C   UNL     1     -11.572   7.428  71.445  1.00  0.00    -0.275 C  
HETATM    3  O   UNL     1     -12.658   6.978  71.106  1.00  0.00    -0.377 OA 
ENDROOT
BRANCH   2   4
HETATM    4  O   UNL     1     -10.614   7.838  70.566  1.00  0.00    -0.218 OA 
BRANCH   4   5
HETATM    5  C   UNL     1     -10.631   7.154  69.299  1.00  0.00    -0.221 C  
BRANCH   5   6
HETATM    6  C   UNL     1      -9.226   6.650  68.930  1.00  0.00    -0.130 C  
BRANCH   6   7
HETATM    7  N   UNL     1      -9.099   5.117  68.802  1.00  0.00    -0.110 N  
HETATM    8  C   UNL     1      -9.743   4.605  67.521  1.00  0.00    -0.172 C  
HETATM    9  C   UNL     1      -9.826   4.487  69.995  1.00  0.00    -0.226 C  
HETATM   10  C   UNL     1      -7.635   4.687  68.861  1.00  0.00    -0.064 C  
ENDBRANCH   6   7
ENDBRANCH   5   6
ENDBRANCH   4   5
ENDBRANCH   2   4
TORSDOF 4
ENDMDL
MODEL      169
REMARK 921   NORMALIZED FREE ENERGY PREDICTED BY IDOCK:   -1.65 KCAL/MOL
REMARK 922        TOTAL FREE ENERGY PREDICTED BY IDOCK:   -2.37 KCAL/MOL
REMARK 923 INTER-LIGAND FREE ENERGY PREDICTED BY IDOCK:   -2.37 KCAL/MOL
REMARK 924 INTRA-LIGAND FREE ENERGY PREDICTED BY IDOCK:    0.00 KCAL/MOL
REMARK 927      BINDING AFFINITY PREDICTED BY RF-SCORE:    0.00 PKD
ROOT
HETATM    1  C   UNL     1      -7.651   8.578  71.316  1.00  0.00    -0.115 C  
HETATM    2  C   UNL     1      -8.104   8.089  72.656  1.00  0.00    -0.145 C  
HETATM    3  O   UNL     1      -7.969   8.688  73.714  1.00  0.00    -0.407 OA 
ENDROOT
BRANCH   2   4
HETATM    4  O   UNL     1      -8.739   6.888  72.541  1.00  0.00    -0.125 OA 
BRANCH   4   5
HETATM    5  C   UNL     1     -10.070   6.859  73.088  1.00  0.00    -0.215 C  
BRANCH   5   6
HETATM    6  C   UNL     1     -10.910   8.029  72.547  1.00  0.00    -0.349 C  
BRANCH   6   7
HETATM    7  N   UNL     1     -11.675   7.731  71.240  1.00  0.00    -0.283 N  
HETATM    8  C   UNL     1     -11.461   6.295  70.780  1.00  0.00    -0.316 C  
HETATM    9  C   UNL     1     -11.134   8.671  70.158  1.00  0.00    -0.192 C  
HETATM   10  C   UNL     1     -13.166   8.012  71.407  1.00  0.00    -0.227 C  
ENDBRANCH   6   7
ENDBRANCH   5   6
ENDBRANCH   4   5
ENDBRANCH   2   4
TORSDOF 4
ENDMDL
MODEL      170
REMARK 921   NORMALIZED FREE ENERGY PREDICTED BY IDOCK:   -1.64 KCAL/MOL
REMARK 922        TOTAL FREE ENERGY PREDICTED BY IDOCK:   -2.36 KCAL/MOL
REMARK 923 INTER-LIGAND FREE ENERGY PREDICTED BY IDOCK:   -2.25 KCAL/MOL
REMARK 924 INTRA-LIGAND FREE ENERGY PREDICTED BY IDOCK:   -0.11 KCAL/MOL
REMARK 927      BINDING AFFINITY PREDICTED BY RF-SCORE:    0.00 PKD
ROOT
HETATM    1  C   UNL     1      -9.786   5.769  71.076  1.00  0.00    -0.213 C  
HETATM    2  C   UNL     1     -10.503   6.552  70.022  1.00  0.00    -0.212 C  
HETATM    3  O   UNL     1     -11.431   6.140  69.340  1.00  0.00    -0.423 OA 
ENDROOT
BRANCH   2   4
HETATM    4  O   UNL     1     -10.010   7.820  69.945  1.00  0.00    -0.186 OA 
BRANCH   4   5
HETATM    5  C   UNL     1     -10.969   8.812  69.534  1.00  0.00    -0.068 C  
BRANCH   5   6
HETATM    6  C   UNL     1     -10.445  10.230  69.811  1.00  0.00    -0.259 C  
BRANCH   6   7
HETATM    7  N   UNL     1     -10.323  11.134  68.566  1.00  0.00    -0.185 N  
HETATM    8  C   UNL     1     -10.955  10.489  67.341  1.00  0.00    -0.288 C  
HETATM    9  C   UNL     1      -8.832  11.346  68.288  1.00  0.00    -0.167 C  
HETATM   10  C   UNL     1     -10.954  12.500  68.823  1.00  0.00    -0.253 C  
ENDBRANCH   6   7
ENDBRANCH   5   6
ENDBRANCH   4   5
ENDBRANCH   2   4
TORSDOF 4
ENDMDL
MODEL      171
REMARK 921   NORMALIZED FREE ENERGY PREDICTED BY IDOCK:   -1.62 KCAL/MOL
REMARK 922        TOTAL FREE ENERGY PREDICTED BY IDOCK:   -2.34 KCAL/MOL
REMARK 923 INTER-LIGAND FREE ENERGY PREDICTED BY IDOCK:   -2.25 KCAL/MOL
REMARK 924 INTRA-LIGAND FREE ENERGY PREDICTED BY IDOCK:   -0.09 KCAL/MOL
REMARK 927      BINDING AFFINITY PREDICTED BY RF-SCORE:    0.00 PKD
ROOT
HETATM    1  C   UNL     1      -5.807  13.140  69.099  1.00  0.00    -0.080 C  
HETATM    2  C   UNL     1      -6.778  14.278  69.133  1.00  0.00    -0.118 C  
HETATM    3  O   UNL     1      -6.811  15.158  69.981  1.00  0.00    -0.175 OA 
ENDROOT
BRANCH   2   4
HETATM    4  O   UNL     1      -7.609  14.233  68.053  1.00  0.00    -0.115 OA 
BRANCH   4   5
HETATM    5  C   UNL     1      -9.001  14.061  68.376  1.00  0.00    -0.189 C  
BRANCH   5   6
HETATM    6  C   UNL     1      -9.636  12.968  67.500  1.00  0.00    -0.204 C  
BRANCH   6   7
HETATM    7  N   UNL     1     -11.178  12.980  67.460  1.00  0.00    -0.271 N  
HETATM    8  C   UNL     1     -11.777  12.350  68.709  1.00  0.00    -0.332 C  
HETATM    9  C   UNL     1     -11.620  12.160  66.244  1.00  0.00    -0.360 C  
HETATM   10  C   UNL     1     -11.705  14.403  67.286  1.00  0.00    -0.404 C  
ENDBRANCH   6   7
ENDBRANCH   5   6
ENDBRANCH   4   5
ENDBRANCH   2   4
TORSDOF 4
ENDMDL
MODEL      172
REMARK 921   NORMALIZED FREE ENERGY PREDICTED BY IDOCK:   -1.62 KCAL/MOL
REMARK 922        TOTAL FREE ENERGY PREDICTED BY IDOCK:   -2.34 KCAL/MOL
REMARK 923 INTER-LIGAND FREE ENERGY PREDICTED BY IDOCK:   -2.12 KCAL/MOL
REMARK 924 INTRA-LIGAND FREE ENERGY PREDICTED BY IDOCK:   -0.22 KCAL/MOL
REMARK 927      BINDING AFFINITY PREDICTED BY RF-SCORE:    0.00 PKD
ROOT
HETATM    1  C   UNL     1      -8.547   9.862  67.060  1.00  0.00    -0.130 C  
HETATM    2  C   UNL     1      -9.711   9.476  66.202  1.00  0.00    -0.258 C  
HETATM    3  O   UNL     1      -9.801   9.672  64.998  1.00  0.00    -0.268 OA 
ENDROOT
BRANCH   2   4
HETATM    4  O   UNL     1     -10.657   8.826  66.938  1.00  0.00    -0.276 OA 
BRANCH   4   5
HETATM    5  C   UNL     1     -10.520   7.393  66.957  1.00  0.00    -0.333 C  
BRANCH   5   6
HETATM    6  C   UNL     1     -10.778   6.837  68.367  1.00  0.00    -0.232 C  
BRANCH   6   7
HETATM    7  N   UNL     1      -9.545   6.216  69.057  1.00  0.00    -0.126 N  
HETATM    8  C   UNL     1      -8.899   7.189  70.033  1.00  0.00    -0.142 C  
HETATM    9  C   UNL     1      -8.524   5.873  67.967  1.00  0.00    -0.110 C  
HETATM   10  C   UNL     1      -9.920   4.923  69.776  1.00  0.00    -0.244 C  
ENDBRANCH   6   7
ENDBRANCH   5   6
ENDBRANCH   4   5
ENDBRANCH   2   4
TORSDOF 4
ENDMDL
MODEL      173
REMARK 921   NORMALIZED FREE ENERGY PREDICTED BY IDOCK:   -1.60 KCAL/MOL
REMARK 922        TOTAL FREE ENERGY PREDICTED BY IDOCK:   -2.31 KCAL/MOL
REMARK 923 INTER-LIGAND FREE ENERGY PREDICTED BY IDOCK:   -2.09 KCAL/MOL
REMARK 924 INTRA-LIGAND FREE ENERGY PREDICTED BY IDOCK:   -0.22 KCAL/MOL
REMARK 927      BINDING AFFINITY PREDICTED BY RF-SCORE:    0.00 PKD
ROOT
HETATM    1  C   UNL     1     -10.584   5.551  68.755  1.00  0.00    -0.236 C  
HETATM    2  C   UNL     1     -10.864   5.812  67.309  1.00  0.00    -0.197 C  
HETATM    3  O   UNL     1     -10.684   5.019  66.395  1.00  0.00    -0.300 OA 
ENDROOT
BRANCH   2   4
HETATM    4  O   UNL     1     -11.397   7.056  67.139  1.00  0.00    -0.240 OA 
BRANCH   4   5
HETATM    5  C   UNL     1     -10.435   8.084  66.838  1.00  0.00    -0.317 C  
BRANCH   5   6
HETATM    6  C   UNL     1     -10.363   9.116  67.975  1.00  0.00    -0.222 C  
BRANCH   6   7
HETATM    7  N   UNL     1      -8.958   9.318  68.582  1.00  0.00    -0.132 N  
HETATM    8  C   UNL     1      -7.940   8.366  67.970  1.00  0.00    -0.119 C  
HETATM    9  C   UNL     1      -9.053   9.026  70.083  1.00  0.00    -0.188 C  
HETATM   10  C   UNL     1      -8.495  10.762  68.410  1.00  0.00    -0.137 C  
ENDBRANCH   6   7
ENDBRANCH   5   6
ENDBRANCH   4   5
ENDBRANCH   2   4
TORSDOF 4
ENDMDL
MODEL      174
REMARK 921   NORMALIZED FREE ENERGY PREDICTED BY IDOCK:   -1.57 KCAL/MOL
REMARK 922        TOTAL FREE ENERGY PREDICTED BY IDOCK:   -2.28 KCAL/MOL
REMARK 923 INTER-LIGAND FREE ENERGY PREDICTED BY IDOCK:   -2.10 KCAL/MOL
REMARK 924 INTRA-LIGAND FREE ENERGY PREDICTED BY IDOCK:   -0.17 KCAL/MOL
REMARK 927      BINDING AFFINITY PREDICTED BY RF-SCORE:    0.00 PKD
ROOT
HETATM    1  C   UNL     1     -11.388  10.005  68.624  1.00  0.00    -0.115 C  
HETATM    2  C   UNL     1     -10.442  11.059  68.141  1.00  0.00    -0.189 C  
HETATM    3  O   UNL     1      -9.243  11.103  68.382  1.00  0.00    -0.162 OA 
ENDROOT
BRANCH   2   4
HETATM    4  O   UNL     1     -11.088  11.958  67.346  1.00  0.00    -0.246 OA 
BRANCH   4   5
HETATM    5  C   UNL     1     -10.222  12.871  66.647  1.00  0.00    -0.247 C  
BRANCH   5   6
HETATM    6  C   UNL     1     -10.456  14.316  67.115  1.00  0.00    -0.266 C  
BRANCH   6   7
HETATM    7  N   UNL     1      -9.182  15.180  67.220  1.00  0.00    -0.193 N  
HETATM    8  C   UNL     1      -9.013  16.081  66.005  1.00  0.00    -0.310 C  
HETATM    9  C   UNL     1      -7.980  14.232  67.291  1.00  0.00    -0.168 C  
HETATM   10  C   UNL     1      -9.197  16.018  68.496  1.00  0.00    -0.206 C  
ENDBRANCH   6   7
ENDBRANCH   5   6
ENDBRANCH   4   5
ENDBRANCH   2   4
TORSDOF 4
ENDMDL
MODEL      175
REMARK 921   NORMALIZED FREE ENERGY PREDICTED BY IDOCK:   -1.56 KCAL/MOL
REMARK 922        TOTAL FREE ENERGY PREDICTED BY IDOCK:   -2.27 KCAL/MOL
REMARK 923 INTER-LIGAND FREE ENERGY PREDICTED BY IDOCK:   -3.08 KCAL/MOL
REMARK 924 INTRA-LIGAND FREE ENERGY PREDICTED BY IDOCK:    0.82 KCAL/MOL
REMARK 927      BINDING AFFINITY PREDICTED BY RF-SCORE:    0.00 PKD
ROOT
HETATM    1  C   UNL     1      -9.984  11.839  68.136  1.00  0.00    -0.196 C  
HETATM    2  C   UNL     1      -9.470  13.184  67.726  1.00  0.00    -0.209 C  
HETATM    3  O   UNL     1      -8.334  13.598  67.914  1.00  0.00    -0.148 OA 
ENDROOT
BRANCH   2   4
HETATM    4  O   UNL     1     -10.434  13.886  67.065  1.00  0.00    -0.274 OA 
BRANCH   4   5
HETATM    5  C   UNL     1     -11.709  13.223  66.985  1.00  0.00    -0.389 C  
BRANCH   5   6
HETATM    6  C   UNL     1     -11.696  12.140  65.894  1.00  0.00    -0.328 C  
BRANCH   6   7
HETATM    7  N   UNL     1     -11.767  12.673  64.448  1.00  0.00    -0.346 N  
HETATM    8  C   UNL     1     -12.818  11.935  63.629  1.00  0.00    -0.305 C  
HETATM    9  C   UNL     1     -10.398  12.444  63.798  1.00  0.00    -0.425 C  
HETATM   10  C   UNL     1     -12.051  14.173  64.435  1.00  0.00    -0.463 C  
ENDBRANCH   6   7
ENDBRANCH   5   6
ENDBRANCH   4   5
ENDBRANCH   2   4
TORSDOF 4
ENDMDL
MODEL      176
REMARK 921   NORMALIZED FREE ENERGY PREDICTED BY IDOCK:   -1.56 KCAL/MOL
REMARK 922        TOTAL FREE ENERGY PREDICTED BY IDOCK:   -2.26 KCAL/MOL
REMARK 923 INTER-LIGAND FREE ENERGY PREDICTED BY IDOCK:   -2.16 KCAL/MOL
REMARK 924 INTRA-LIGAND FREE ENERGY PREDICTED BY IDOCK:   -0.10 KCAL/MOL
REMARK 927      BINDING AFFINITY PREDICTED BY RF-SCORE:    0.00 PKD
ROOT
HETATM    1  C   UNL     1     -12.285  13.176  66.318  1.00  0.00    -0.423 C  
HETATM    2  C   UNL     1     -11.423  12.106  65.725  1.00  0.00    -0.361 C  
HETATM    3  O   UNL     1     -11.118  12.013  64.544  1.00  0.00    -0.306 OA 
ENDROOT
BRANCH   2   4
HETATM    4  O   UNL     1     -10.976  11.257  66.693  1.00  0.00    -0.287 OA 
BRANCH   4   5
HETATM    5  C   UNL     1     -10.157  10.177  66.210  1.00  0.00    -0.238 C  
BRANCH   5   6
HETATM    6  C   UNL     1      -9.004   9.885  67.185  1.00  0.00    -0.138 C  
BRANCH   6   7
HETATM    7  N   UNL     1      -7.622   9.704  66.522  1.00  0.00    -0.097 N  
HETATM    8  C   UNL     1      -6.842  11.010  66.486  1.00  0.00    -0.132 C  
HETATM    9  C   UNL     1      -7.853   9.237  65.081  1.00  0.00    -0.110 C  
HETATM   10  C   UNL     1      -6.812   8.629  67.242  1.00  0.00    -0.067 C  
ENDBRANCH   6   7
ENDBRANCH   5   6
ENDBRANCH   4   5
ENDBRANCH   2   4
TORSDOF 4
ENDMDL
MODEL      177
REMARK 921   NORMALIZED FREE ENERGY PREDICTED BY IDOCK:   -1.51 KCAL/MOL
REMARK 922        TOTAL FREE ENERGY PREDICTED BY IDOCK:   -2.21 KCAL/MOL
REMARK 923 INTER-LIGAND FREE ENERGY PREDICTED BY IDOCK:   -2.05 KCAL/MOL
REMARK 924 INTRA-LIGAND FREE ENERGY PREDICTED BY IDOCK:   -0.16 KCAL/MOL
REMARK 927      BINDING AFFINITY PREDICTED BY RF-SCORE:    0.00 PKD
ROOT
HETATM    1  C   UNL     1      -8.119  14.004  67.549  1.00  0.00    -0.197 C  
HETATM    2  C   UNL     1      -9.603  13.808  67.564  1.00  0.00    -0.219 C  
HETATM    3  O   UNL     1     -10.423  14.554  67.048  1.00  0.00    -0.265 OA 
ENDROOT
BRANCH   2   4
HETATM    4  O   UNL     1      -9.928  12.647  68.202  1.00  0.00    -0.214 OA 
BRANCH   4   5
HETATM    5  C   UNL     1      -9.105  11.520  67.849  1.00  0.00    -0.167 C  
BRANCH   5   6
HETATM    6  C   UNL     1      -8.887  10.600  69.061  1.00  0.00    -0.148 C  
BRANCH   6   7
HETATM    7  N   UNL     1      -9.805   9.360  69.111  1.00  0.00    -0.169 N  
HETATM    8  C   UNL     1     -10.425   9.066  67.752  1.00  0.00    -0.245 C  
HETATM    9  C   UNL     1     -10.933   9.655  70.105  1.00  0.00    -0.275 C  
HETATM   10  C   UNL     1      -9.040   8.138  69.614  1.00  0.00    -0.151 C  
ENDBRANCH   6   7
ENDBRANCH   5   6
ENDBRANCH   4   5
ENDBRANCH   2   4
TORSDOF 4
ENDMDL
MODEL      178
REMARK 921   NORMALIZED FREE ENERGY PREDICTED BY IDOCK:   -1.51 KCAL/MOL
REMARK 922        TOTAL FREE ENERGY PREDICTED BY IDOCK:   -2.20 KCAL/MOL
REMARK 923 INTER-LIGAND FREE ENERGY PREDICTED BY IDOCK:   -2.00 KCAL/MOL
REMARK 924 INTRA-LIGAND FREE ENERGY PREDICTED BY IDOCK:   -0.20 KCAL/MOL
REMARK 927      BINDING AFFINITY PREDICTED BY RF-SCORE:    0.00 PKD
ROOT
HETATM    1  C   UNL     1      -8.707   9.966  67.494  1.00  0.00    -0.121 C  
HETATM    2  C   UNL     1      -9.801   9.343  66.685  1.00  0.00    -0.245 C  
HETATM    3  O   UNL     1      -9.913   9.412  65.469  1.00  0.00    -0.281 OA 
ENDROOT
BRANCH   2   4
HETATM    4  O   UNL     1     -10.649   8.638  67.486  1.00  0.00    -0.263 OA 
BRANCH   4   5
HETATM    5  C   UNL     1     -10.775   7.244  67.145  1.00  0.00    -0.343 C  
BRANCH   5   6
HETATM    6  C   UNL     1      -9.501   6.471  67.524  1.00  0.00    -0.125 C  
BRANCH   6   7
HETATM    7  N   UNL     1      -8.987   5.496  66.443  1.00  0.00    -0.127 N  
HETATM    8  C   UNL     1      -8.263   6.230  65.324  1.00  0.00    -0.138 C  
HETATM    9  C   UNL     1     -10.203   4.779  65.846  1.00  0.00    -0.258 C  
HETATM   10  C   UNL     1      -8.071   4.440  67.057  1.00  0.00    -0.101 C  
ENDBRANCH   6   7
ENDBRANCH   5   6
ENDBRANCH   4   5
ENDBRANCH   2   4
TORSDOF 4
ENDMDL
MODEL      179
REMARK 921   NORMALIZED FREE ENERGY PREDICTED BY IDOCK:   -1.50 KCAL/MOL
REMARK 922        TOTAL FREE ENERGY PREDICTED BY IDOCK:   -2.19 KCAL/MOL
REMARK 923 INTER-LIGAND FREE ENERGY PREDICTED BY IDOCK:   -1.95 KCAL/MOL
REMARK 924 INTRA-LIGAND FREE ENERGY PREDICTED BY IDOCK:   -0.23 KCAL/MOL
REMARK 927      BINDING AFFINITY PREDICTED BY RF-SCORE:    0.00 PKD
ROOT
HETATM    1  C   UNL     1      -9.931   2.903  72.011  1.00  0.00    -0.227 C  
HETATM    2  C   UNL     1      -9.484   3.694  73.201  1.00  0.00    -0.106 C  
HETATM    3  O   UNL     1      -9.936   3.591  74.332  1.00  0.00    -0.118 OA 
ENDROOT
BRANCH   2   4
HETATM    4  O   UNL     1      -8.458   4.527  72.866  1.00  0.00    -0.105 OA 
BRANCH   4   5
HETATM    5  C   UNL     1      -8.772   5.477  71.830  1.00  0.00    -0.135 C  
BRANCH   5   6
HETATM    6  C   UNL     1      -9.476   6.712  72.414  1.00  0.00    -0.148 C  
BRANCH   6   7
HETATM    7  N   UNL     1     -10.725   7.177  71.636  1.00  0.00    -0.212 N  
HETATM    8  C   UNL     1     -10.519   7.077  70.131  1.00  0.00    -0.214 C  
HETATM    9  C   UNL     1     -10.978   8.646  71.994  1.00  0.00    -0.362 C  
HETATM   10  C   UNL     1     -11.954   6.372  72.052  1.00  0.00    -0.326 C  
ENDBRANCH   6   7
ENDBRANCH   5   6
ENDBRANCH   4   5
ENDBRANCH   2   4
TORSDOF 4
ENDMDL
MODEL      180
REMARK 921   NORMALIZED FREE ENERGY PREDICTED BY IDOCK:   -1.46 KCAL/MOL
REMARK 922        TOTAL FREE ENERGY PREDICTED BY IDOCK:   -2.14 KCAL/MOL
REMARK 923 INTER-LIGAND FREE ENERGY PREDICTED BY IDOCK:   -1.84 KCAL/MOL
REMARK 924 INTRA-LIGAND FREE ENERGY PREDICTED BY IDOCK:   -0.30 KCAL/MOL
REMARK 927      BINDING AFFINITY PREDICTED BY RF-SCORE:    0.00 PKD
ROOT
HETATM    1  C   UNL     1      -6.502   9.758  68.036  1.00  0.00    -0.056 C  
HETATM    2  C   UNL     1      -7.731   9.677  68.886  1.00  0.00    -0.077 C  
HETATM    3  O   UNL     1      -7.843  10.130  70.017  1.00  0.00    -0.173 OA 
ENDROOT
BRANCH   2   4
HETATM    4  O   UNL     1      -8.743   9.062  68.211  1.00  0.00    -0.129 OA 
BRANCH   4   5
HETATM    5  C   UNL     1      -9.105   7.767  68.726  1.00  0.00    -0.140 C  
BRANCH   5   6
HETATM    6  C   UNL     1     -10.608   7.705  69.045  1.00  0.00    -0.174 C  
BRANCH   6   7
HETATM    7  N   UNL     1     -10.962   7.854  70.540  1.00  0.00    -0.246 N  
HETATM    8  C   UNL     1     -11.305   9.294  70.894  1.00  0.00    -0.308 C  
HETATM    9  C   UNL     1      -9.734   7.434  71.354  1.00  0.00    -0.167 C  
HETATM   10  C   UNL     1     -12.118   6.931  70.919  1.00  0.00    -0.373 C  
ENDBRANCH   6   7
ENDBRANCH   5   6
ENDBRANCH   4   5
ENDBRANCH   2   4
TORSDOF 4
ENDMDL
MODEL      181
REMARK 921   NORMALIZED FREE ENERGY PREDICTED BY IDOCK:   -1.45 KCAL/MOL
REMARK 922        TOTAL FREE ENERGY PREDICTED BY IDOCK:   -2.13 KCAL/MOL
REMARK 923 INTER-LIGAND FREE ENERGY PREDICTED BY IDOCK:   -2.01 KCAL/MOL
REMARK 924 INTRA-LIGAND FREE ENERGY PREDICTED BY IDOCK:   -0.12 KCAL/MOL
REMARK 927      BINDING AFFINITY PREDICTED BY RF-SCORE:    0.00 PKD
ROOT
HETATM    1  C   UNL     1     -12.556   7.718  71.940  1.00  0.00    -0.339 C  
HETATM    2  C   UNL     1     -12.107   8.982  71.276  1.00  0.00    -0.314 C  
HETATM    3  O   UNL     1     -12.753  10.018  71.209  1.00  0.00    -0.338 OA 
ENDROOT
BRANCH   2   4
HETATM    4  O   UNL     1     -10.842   8.844  70.784  1.00  0.00    -0.217 OA 
BRANCH   4   5
HETATM    5  C   UNL     1     -10.753   8.863  69.348  1.00  0.00    -0.181 C  
BRANCH   5   6
HETATM    6  C   UNL     1      -9.587   9.750  68.883  1.00  0.00    -0.167 C  
BRANCH   6   7
HETATM    7  N   UNL     1      -8.554   9.046  67.979  1.00  0.00    -0.129 N  
HETATM    8  C   UNL     1      -8.664   7.530  68.076  1.00  0.00    -0.121 C  
HETATM    9  C   UNL     1      -7.158   9.461  68.455  1.00  0.00    -0.071 C  
HETATM   10  C   UNL     1      -8.709   9.491  66.527  1.00  0.00    -0.134 C  
ENDBRANCH   6   7
ENDBRANCH   5   6
ENDBRANCH   4   5
ENDBRANCH   2   4
TORSDOF 4
ENDMDL
MODEL      182
REMARK 921   NORMALIZED FREE ENERGY PREDICTED BY IDOCK:   -1.45 KCAL/MOL
REMARK 922        TOTAL FREE ENERGY PREDICTED BY IDOCK:   -2.12 KCAL/MOL
REMARK 923 INTER-LIGAND FREE ENERGY PREDICTED BY IDOCK:   -2.01 KCAL/MOL
REMARK 924 INTRA-LIGAND FREE ENERGY PREDICTED BY IDOCK:   -0.11 KCAL/MOL
REMARK 927      BINDING AFFINITY PREDICTED BY RF-SCORE:    0.00 PKD
ROOT
HETATM    1  C   UNL     1     -10.911   7.322  73.280  1.00  0.00    -0.404 C  
HETATM    2  C   UNL     1      -9.487   7.713  73.034  1.00  0.00    -0.226 C  
HETATM    3  O   UNL     1      -8.689   8.067  73.890  1.00  0.00    -0.266 OA 
ENDROOT
BRANCH   2   4
HETATM    4  O   UNL     1      -9.174   7.579  71.713  1.00  0.00    -0.139 OA 
BRANCH   4   5
HETATM    5  C   UNL     1     -10.053   8.282  70.815  1.00  0.00    -0.190 C  
BRANCH   5   6
HETATM    6  C   UNL     1      -9.574   8.145  69.361  1.00  0.00    -0.167 C  
BRANCH   6   7
HETATM    7  N   UNL     1      -9.199   9.474  68.672  1.00  0.00    -0.134 N  
HETATM    8  C   UNL     1      -8.136  10.232  69.454  1.00  0.00    -0.163 C  
HETATM    9  C   UNL     1     -10.463  10.339  68.610  1.00  0.00    -0.193 C  
HETATM   10  C   UNL     1      -8.724   9.230  67.242  1.00  0.00    -0.128 C  
ENDBRANCH   6   7
ENDBRANCH   5   6
ENDBRANCH   4   5
ENDBRANCH   2   4
TORSDOF 4
ENDMDL
MODEL      183
REMARK 921   NORMALIZED FREE ENERGY PREDICTED BY IDOCK:   -1.44 KCAL/MOL
REMARK 922        TOTAL FREE ENERGY PREDICTED BY IDOCK:   -2.12 KCAL/MOL
REMARK 923 INTER-LIGAND FREE ENERGY PREDICTED BY IDOCK:   -1.92 KCAL/MOL
REMARK 924 INTRA-LIGAND FREE ENERGY PREDICTED BY IDOCK:   -0.20 KCAL/MOL
REMARK 927      BINDING AFFINITY PREDICTED BY RF-SCORE:    0.00 PKD
ROOT
HETATM    1  C   UNL     1     -10.897   8.485  70.145  1.00  0.00    -0.238 C  
HETATM    2  C   UNL     1      -9.602   8.245  70.854  1.00  0.00    -0.165 C  
HETATM    3  O   UNL     1      -9.208   8.852  71.839  1.00  0.00    -0.310 OA 
ENDROOT
BRANCH   2   4
HETATM    4  O   UNL     1      -8.922   7.213  70.277  1.00  0.00    -0.150 OA 
BRANCH   4   5
HETATM    5  C   UNL     1      -9.419   5.905  70.617  1.00  0.00    -0.171 C  
BRANCH   5   6
HETATM    6  C   UNL     1      -8.877   5.450  71.982  1.00  0.00    -0.134 C  
BRANCH   6   7
HETATM    7  N   UNL     1      -9.932   4.846  72.933  1.00  0.00    -0.154 N  
HETATM    8  C   UNL     1      -9.482   4.916  74.386  1.00  0.00    -0.127 C  
HETATM    9  C   UNL     1     -10.114   3.373  72.553  1.00  0.00    -0.162 C  
HETATM   10  C   UNL     1     -11.277   5.547  72.766  1.00  0.00    -0.305 C  
ENDBRANCH   6   7
ENDBRANCH   5   6
ENDBRANCH   4   5
ENDBRANCH   2   4
TORSDOF 4
ENDMDL
MODEL      184
REMARK 921   NORMALIZED FREE ENERGY PREDICTED BY IDOCK:   -1.37 KCAL/MOL
REMARK 922        TOTAL FREE ENERGY PREDICTED BY IDOCK:   -2.02 KCAL/MOL
REMARK 923 INTER-LIGAND FREE ENERGY PREDICTED BY IDOCK:   -1.82 KCAL/MOL
REMARK 924 INTRA-LIGAND FREE ENERGY PREDICTED BY IDOCK:   -0.20 KCAL/MOL
REMARK 927      BINDING AFFINITY PREDICTED BY RF-SCORE:    0.00 PKD
ROOT
HETATM    1  C   UNL     1      -6.811   7.496  68.846  1.00  0.00    -0.068 C  
HETATM    2  C   UNL     1      -8.291   7.616  68.665  1.00  0.00    -0.129 C  
HETATM    3  O   UNL     1      -8.928   7.186  67.713  1.00  0.00    -0.123 OA 
ENDROOT
BRANCH   2   4
HETATM    4  O   UNL     1      -8.858   8.238  69.738  1.00  0.00    -0.139 OA 
BRANCH   4   5
HETATM    5  C   UNL     1     -10.189   8.735  69.507  1.00  0.00    -0.208 C  
BRANCH   5   6
HETATM    6  C   UNL     1     -10.240  10.263  69.673  1.00  0.00    -0.235 C  
BRANCH   6   7
HETATM    7  N   UNL     1     -10.582  11.046  68.389  1.00  0.00    -0.182 N  
HETATM    8  C   UNL     1      -9.459  11.996  67.995  1.00  0.00    -0.199 C  
HETATM    9  C   UNL     1     -11.841  11.874  68.668  1.00  0.00    -0.308 C  
HETATM   10  C   UNL     1     -10.890  10.093  67.237  1.00  0.00    -0.230 C  
ENDBRANCH   6   7
ENDBRANCH   5   6
ENDBRANCH   4   5
ENDBRANCH   2   4
TORSDOF 4
ENDMDL
MODEL      185
REMARK 921   NORMALIZED FREE ENERGY PREDICTED BY IDOCK:   -1.33 KCAL/MOL
REMARK 922        TOTAL FREE ENERGY PREDICTED BY IDOCK:   -1.98 KCAL/MOL
REMARK 923 INTER-LIGAND FREE ENERGY PREDICTED BY IDOCK:   -1.73 KCAL/MOL
REMARK 924 INTRA-LIGAND FREE ENERGY PREDICTED BY IDOCK:   -0.26 KCAL/MOL
REMARK 927      BINDING AFFINITY PREDICTED BY RF-SCORE:    0.00 PKD
ROOT
HETATM    1  C   UNL     1     -11.035   6.471  67.103  1.00  0.00    -0.480 C  
HETATM    2  C   UNL     1      -9.812   5.609  67.120  1.00  0.00    -0.149 C  
HETATM    3  O   UNL     1      -9.380   4.969  66.172  1.00  0.00    -0.140 OA 
ENDROOT
BRANCH   2   4
HETATM    4  O   UNL     1      -9.202   5.664  68.338  1.00  0.00    -0.116 OA 
BRANCH   4   5
HETATM    5  C   UNL     1      -8.037   6.509  68.387  1.00  0.00    -0.111 C  
BRANCH   5   6
HETATM    6  C   UNL     1      -8.077   7.427  69.620  1.00  0.00    -0.128 C  
BRANCH   6   7
HETATM    7  N   UNL     1      -8.484   8.887  69.331  1.00  0.00    -0.121 N  
HETATM    8  C   UNL     1      -7.525   9.876  69.980  1.00  0.00    -0.168 C  
HETATM    9  C   UNL     1      -9.880   9.109  69.922  1.00  0.00    -0.190 C  
HETATM   10  C   UNL     1      -8.562   9.142  67.828  1.00  0.00    -0.121 C  
ENDBRANCH   6   7
ENDBRANCH   5   6
ENDBRANCH   4   5
ENDBRANCH   2   4
TORSDOF 4
ENDMDL
MODEL      186
REMARK 921   NORMALIZED FREE ENERGY PREDICTED BY IDOCK:   -1.32 KCAL/MOL
REMARK 922        TOTAL FREE ENERGY PREDICTED BY IDOCK:   -1.97 KCAL/MOL
REMARK 923 INTER-LIGAND FREE ENERGY PREDICTED BY IDOCK:   -1.75 KCAL/MOL
REMARK 924 INTRA-LIGAND FREE ENERGY PREDICTED BY IDOCK:   -0.21 KCAL/MOL
REMARK 927      BINDING AFFINITY PREDICTED BY RF-SCORE:    0.00 PKD
ROOT
HETATM    1  C   UNL     1     -10.964   6.353  67.082  1.00  0.00    -0.476 C  
HETATM    2  C   UNL     1      -9.593   6.010  66.590  1.00  0.00    -0.154 C  
HETATM    3  O   UNL     1      -9.340   5.350  65.592  1.00  0.00    -0.154 OA 
ENDROOT
BRANCH   2   4
HETATM    4  O   UNL     1      -8.641   6.576  67.386  1.00  0.00    -0.118 OA 
BRANCH   4   5
HETATM    5  C   UNL     1      -7.683   7.391  66.686  1.00  0.00    -0.101 C  
BRANCH   5   6
HETATM    6  C   UNL     1      -8.291   8.754  66.314  1.00  0.00    -0.118 C  
BRANCH   6   7
HETATM    7  N   UNL     1      -7.934   9.261  64.901  1.00  0.00    -0.115 N  
HETATM    8  C   UNL     1      -6.616  10.023  64.895  1.00  0.00    -0.126 C  
HETATM    9  C   UNL     1      -9.046  10.215  64.453  1.00  0.00    -0.245 C  
HETATM   10  C   UNL     1      -7.875   8.104  63.907  1.00  0.00    -0.147 C  
ENDBRANCH   6   7
ENDBRANCH   5   6
ENDBRANCH   4   5
ENDBRANCH   2   4
TORSDOF 4
ENDMDL
MODEL      187
REMARK 921   NORMALIZED FREE ENERGY PREDICTED BY IDOCK:   -1.31 KCAL/MOL
REMARK 922        TOTAL FREE ENERGY PREDICTED BY IDOCK:   -1.96 KCAL/MOL
REMARK 923 INTER-LIGAND FREE ENERGY PREDICTED BY IDOCK:   -1.72 KCAL/MOL
REMARK 924 INTRA-LIGAND FREE ENERGY PREDICTED BY IDOCK:   -0.24 KCAL/MOL
REMARK 927      BINDING AFFINITY PREDICTED BY RF-SCORE:    0.00 PKD
ROOT
HETATM    1  C   UNL     1      -7.549   4.279  66.772  1.00  0.00    -0.085 C  
HETATM    2  C   UNL     1      -8.950   4.644  67.149  1.00  0.00    -0.113 C  
HETATM    3  O   UNL     1      -9.701   3.965  67.836  1.00  0.00    -0.158 OA 
ENDROOT
BRANCH   2   4
HETATM    4  O   UNL     1      -9.276   5.873  66.658  1.00  0.00    -0.131 OA 
BRANCH   4   5
HETATM    5  C   UNL     1     -10.079   6.678  67.542  1.00  0.00    -0.160 C  
BRANCH   5   6
HETATM    6  C   UNL     1      -9.251   7.168  68.741  1.00  0.00    -0.136 C  
BRANCH   6   7
HETATM    7  N   UNL     1      -9.946   7.030  70.111  1.00  0.00    -0.182 N  
HETATM    8  C   UNL     1      -9.917   8.338  70.889  1.00  0.00    -0.190 C  
HETATM    9  C   UNL     1      -9.185   5.971  70.916  1.00  0.00    -0.154 C  
HETATM   10  C   UNL     1     -11.386   6.551  69.944  1.00  0.00    -0.406 C  
ENDBRANCH   6   7
ENDBRANCH   5   6
ENDBRANCH   4   5
ENDBRANCH   2   4
TORSDOF 4
ENDMDL
MODEL      188
REMARK 921   NORMALIZED FREE ENERGY PREDICTED BY IDOCK:   -1.31 KCAL/MOL
REMARK 922        TOTAL FREE ENERGY PREDICTED BY IDOCK:   -1.95 KCAL/MOL
REMARK 923 INTER-LIGAND FREE ENERGY PREDICTED BY IDOCK:   -1.82 KCAL/MOL
REMARK 924 INTRA-LIGAND FREE ENERGY PREDICTED BY IDOCK:   -0.13 KCAL/MOL
REMARK 927      BINDING AFFINITY PREDICTED BY RF-SCORE:    0.00 PKD
ROOT
HETATM    1  C   UNL     1     -12.554   7.689  71.917  1.00  0.00    -0.332 C  
HETATM    2  C   UNL     1     -11.997   8.842  71.142  1.00  0.00    -0.293 C  
HETATM    3  O   UNL     1     -12.498   9.956  71.067  1.00  0.00    -0.315 OA 
ENDROOT
BRANCH   2   4
HETATM    4  O   UNL     1     -10.816   8.501  70.553  1.00  0.00    -0.220 OA 
BRANCH   4   5
HETATM    5  C   UNL     1      -9.658   8.672  71.392  1.00  0.00    -0.243 C  
BRANCH   5   6
HETATM    6  C   UNL     1      -8.754   7.430  71.339  1.00  0.00    -0.125 C  
BRANCH   6   7
HETATM    7  N   UNL     1      -7.310   7.696  70.865  1.00  0.00    -0.066 N  
HETATM    8  C   UNL     1      -6.954   9.173  70.953  1.00  0.00    -0.101 C  
HETATM    9  C   UNL     1      -7.213   7.261  69.399  1.00  0.00    -0.084 C  
HETATM   10  C   UNL     1      -6.312   6.867  71.670  1.00  0.00    -0.042 C  
ENDBRANCH   6   7
ENDBRANCH   5   6
ENDBRANCH   4   5
ENDBRANCH   2   4
TORSDOF 4
ENDMDL
MODEL      189
REMARK 921   NORMALIZED FREE ENERGY PREDICTED BY IDOCK:   -1.27 KCAL/MOL
REMARK 922        TOTAL FREE ENERGY PREDICTED BY IDOCK:   -1.91 KCAL/MOL
REMARK 923 INTER-LIGAND FREE ENERGY PREDICTED BY IDOCK:   -1.83 KCAL/MOL
REMARK 924 INTRA-LIGAND FREE ENERGY PREDICTED BY IDOCK:   -0.08 KCAL/MOL
REMARK 927      BINDING AFFINITY PREDICTED BY RF-SCORE:    0.00 PKD
ROOT
HETATM    1  C   UNL     1     -10.601   7.484  73.081  1.00  0.00    -0.442 C  
HETATM    2  C   UNL     1      -9.193   7.977  72.961  1.00  0.00    -0.270 C  
HETATM    3  O   UNL     1      -8.527   8.454  73.869  1.00  0.00    -0.288 OA 
ENDROOT
BRANCH   2   4
HETATM    4  O   UNL     1      -8.722   7.785  71.696  1.00  0.00    -0.113 OA 
BRANCH   4   5
HETATM    5  C   UNL     1      -8.932   6.460  71.174  1.00  0.00    -0.146 C  
BRANCH   5   6
HETATM    6  C   UNL     1      -8.092   6.230  69.907  1.00  0.00    -0.120 C  
BRANCH   6   7
HETATM    7  N   UNL     1      -8.555   5.051  69.024  1.00  0.00    -0.085 N  
HETATM    8  C   UNL     1      -9.443   4.086  69.797  1.00  0.00    -0.195 C  
HETATM    9  C   UNL     1      -7.305   4.295  68.563  1.00  0.00    -0.060 C  
HETATM   10  C   UNL     1      -9.286   5.557  67.783  1.00  0.00    -0.107 C  
ENDBRANCH   6   7
ENDBRANCH   5   6
ENDBRANCH   4   5
ENDBRANCH   2   4
TORSDOF 4
ENDMDL
MODEL      190
REMARK 921   NORMALIZED FREE ENERGY PREDICTED BY IDOCK:   -1.25 KCAL/MOL
REMARK 922        TOTAL FREE ENERGY PREDICTED BY IDOCK:   -1.88 KCAL/MOL
REMARK 923 INTER-LIGAND FREE ENERGY PREDICTED BY IDOCK:   -1.66 KCAL/MOL
REMARK 924 INTRA-LIGAND FREE ENERGY PREDICTED BY IDOCK:   -0.22 KCAL/MOL
REMARK 927      BINDING AFFINITY PREDICTED BY RF-SCORE:    0.00 PKD
ROOT
HETATM    1  C   UNL     1      -8.641   6.486  70.099  1.00  0.00    -0.140 C  
HETATM    2  C   UNL     1     -10.108   6.739  69.950  1.00  0.00    -0.180 C  
HETATM    3  O   UNL     1     -10.666   7.105  68.924  1.00  0.00    -0.211 OA 
ENDROOT
BRANCH   2   4
HETATM    4  O   UNL     1     -10.765   6.462  71.112  1.00  0.00    -0.228 OA 
BRANCH   4   5
HETATM    5  C   UNL     1      -9.912   6.338  72.266  1.00  0.00    -0.165 C  
BRANCH   5   6
HETATM    6  C   UNL     1     -10.427   5.241  73.212  1.00  0.00    -0.224 C  
BRANCH   6   7
HETATM    7  N   UNL     1      -9.576   3.954  73.239  1.00  0.00    -0.111 N  
HETATM    8  C   UNL     1      -9.834   3.085  72.016  1.00  0.00    -0.171 C  
HETATM    9  C   UNL     1      -9.969   3.161  74.490  1.00  0.00    -0.138 C  
HETATM   10  C   UNL     1      -8.089   4.288  73.340  1.00  0.00    -0.090 C  
ENDBRANCH   6   7
ENDBRANCH   5   6
ENDBRANCH   4   5
ENDBRANCH   2   4
TORSDOF 4
ENDMDL
MODEL      191
REMARK 921   NORMALIZED FREE ENERGY PREDICTED BY IDOCK:   -1.24 KCAL/MOL
REMARK 922        TOTAL FREE ENERGY PREDICTED BY IDOCK:   -1.87 KCAL/MOL
REMARK 923 INTER-LIGAND FREE ENERGY PREDICTED BY IDOCK:   -1.76 KCAL/MOL
REMARK 924 INTRA-LIGAND FREE ENERGY PREDICTED BY IDOCK:   -0.11 KCAL/MOL
REMARK 927      BINDING AFFINITY PREDICTED BY RF-SCORE:    0.00 PKD
ROOT
HETATM    1  C   UNL     1     -10.928   6.246  67.208  1.00  0.00    -0.455 C  
HETATM    2  C   UNL     1      -9.494   5.986  66.870  1.00  0.00    -0.134 C  
HETATM    3  O   UNL     1      -9.087   5.501  65.823  1.00  0.00    -0.158 OA 
ENDROOT
BRANCH   2   4
HETATM    4  O   UNL     1      -8.678   6.406  67.879  1.00  0.00    -0.116 OA 
BRANCH   4   5
HETATM    5  C   UNL     1      -9.253   6.305  69.195  1.00  0.00    -0.128 C  
BRANCH   5   6
HETATM    6  C   UNL     1      -8.685   5.091  69.949  1.00  0.00    -0.101 C  
BRANCH   6   7
HETATM    7  N   UNL     1      -9.283   4.858  71.352  1.00  0.00    -0.142 N  
HETATM    8  C   UNL     1      -8.287   5.202  72.451  1.00  0.00    -0.121 C  
HETATM    9  C   UNL     1      -9.639   3.372  71.467  1.00  0.00    -0.163 C  
HETATM   10  C   UNL     1     -10.566   5.666  71.536  1.00  0.00    -0.244 C  
ENDBRANCH   6   7
ENDBRANCH   5   6
ENDBRANCH   4   5
ENDBRANCH   2   4
TORSDOF 4
ENDMDL
MODEL      192
REMARK 921   NORMALIZED FREE ENERGY PREDICTED BY IDOCK:   -1.23 KCAL/MOL
REMARK 922        TOTAL FREE ENERGY PREDICTED BY IDOCK:   -1.85 KCAL/MOL
REMARK 923 INTER-LIGAND FREE ENERGY PREDICTED BY IDOCK:   -1.71 KCAL/MOL
REMARK 924 INTRA-LIGAND FREE ENERGY PREDICTED BY IDOCK:   -0.14 KCAL/MOL
REMARK 927      BINDING AFFINITY PREDICTED BY RF-SCORE:    0.00 PKD
ROOT
HETATM    1  C   UNL     1      -9.693   4.327  69.702  1.00  0.00    -0.284 C  
HETATM    2  C   UNL     1      -9.089   5.535  70.346  1.00  0.00    -0.139 C  
HETATM    3  O   UNL     1      -8.308   5.523  71.287  1.00  0.00    -0.122 OA 
ENDROOT
BRANCH   2   4
HETATM    4  O   UNL     1      -9.494   6.672  69.711  1.00  0.00    -0.148 OA 
BRANCH   4   5
HETATM    5  C   UNL     1      -8.543   7.752  69.755  1.00  0.00    -0.134 C  
BRANCH   5   6
HETATM    6  C   UNL     1      -8.332   8.354  68.355  1.00  0.00    -0.131 C  
BRANCH   6   7
HETATM    7  N   UNL     1      -9.296   9.503  67.990  1.00  0.00    -0.133 N  
HETATM    8  C   UNL     1     -10.482   9.003  67.176  1.00  0.00    -0.263 C  
HETATM    9  C   UNL     1      -8.517  10.512  67.141  1.00  0.00    -0.127 C  
HETATM   10  C   UNL     1      -9.786  10.220  69.245  1.00  0.00    -0.228 C  
ENDBRANCH   6   7
ENDBRANCH   5   6
ENDBRANCH   4   5
ENDBRANCH   2   4
TORSDOF 4
ENDMDL
MODEL      193
REMARK 921   NORMALIZED FREE ENERGY PREDICTED BY IDOCK:   -1.22 KCAL/MOL
REMARK 922        TOTAL FREE ENERGY PREDICTED BY IDOCK:   -1.84 KCAL/MOL
REMARK 923 INTER-LIGAND FREE ENERGY PREDICTED BY IDOCK:   -1.62 KCAL/MOL
REMARK 924 INTRA-LIGAND FREE ENERGY PREDICTED BY IDOCK:   -0.22 KCAL/MOL
REMARK 927      BINDING AFFINITY PREDICTED BY RF-SCORE:    0.00 PKD
ROOT
HETATM    1  C   UNL     1      -9.715   2.636  71.188  1.00  0.00    -0.181 C  
HETATM    2  C   UNL     1     -10.193   2.510  72.600  1.00  0.00    -0.161 C  
HETATM    3  O   UNL     1     -10.917   1.622  73.028  1.00  0.00    -0.141 OA 
ENDROOT
BRANCH   2   4
HETATM    4  O   UNL     1      -9.673   3.504  73.375  1.00  0.00    -0.106 OA 
BRANCH   4   5
HETATM    5  C   UNL     1     -10.368   4.761  73.281  1.00  0.00    -0.182 C  
BRANCH   5   6
HETATM    6  C   UNL     1      -9.379   5.938  73.303  1.00  0.00    -0.135 C  
BRANCH   6   7
HETATM    7  N   UNL     1      -9.328   6.769  72.003  1.00  0.00    -0.142 N  
HETATM    8  C   UNL     1     -10.562   6.540  71.142  1.00  0.00    -0.229 C  
HETATM    9  C   UNL     1      -8.095   6.321  71.211  1.00  0.00    -0.118 C  
HETATM   10  C   UNL     1      -9.174   8.255  72.315  1.00  0.00    -0.228 C  
ENDBRANCH   6   7
ENDBRANCH   5   6
ENDBRANCH   4   5
ENDBRANCH   2   4
TORSDOF 4
ENDMDL
MODEL      194
REMARK 921   NORMALIZED FREE ENERGY PREDICTED BY IDOCK:   -1.19 KCAL/MOL
REMARK 922        TOTAL FREE ENERGY PREDICTED BY IDOCK:   -1.81 KCAL/MOL
REMARK 923 INTER-LIGAND FREE ENERGY PREDICTED BY IDOCK:   -2.08 KCAL/MOL
REMARK 924 INTRA-LIGAND FREE ENERGY PREDICTED BY IDOCK:    0.26 KCAL/MOL
REMARK 927      BINDING AFFINITY PREDICTED BY RF-SCORE:    0.00 PKD
ROOT
HETATM    1  C   UNL     1      -6.492  13.545  67.509  1.00  0.00    -0.113 C  
HETATM    2  C   UNL     1      -7.564  12.542  67.220  1.00  0.00    -0.131 C  
HETATM    3  O   UNL     1      -7.389  11.344  67.050  1.00  0.00    -0.129 OA 
ENDROOT
BRANCH   2   4
HETATM    4  O   UNL     1      -8.791  13.137  67.214  1.00  0.00    -0.191 OA 
BRANCH   4   5
HETATM    5  C   UNL     1      -8.929  14.234  68.136  1.00  0.00    -0.189 C  
BRANCH   5   6
HETATM    6  C   UNL     1      -8.889  15.581  67.396  1.00  0.00    -0.190 C  
BRANCH   6   7
HETATM    7  N   UNL     1     -10.095  16.506  67.663  1.00  0.00    -0.259 N  
HETATM    8  C   UNL     1      -9.952  17.246  68.986  1.00  0.00    -0.272 C  
HETATM    9  C   UNL     1     -11.350  15.629  67.732  1.00  0.00    -0.261 C  
HETATM   10  C   UNL     1     -10.278  17.503  66.522  1.00  0.00    -0.342 C  
ENDBRANCH   6   7
ENDBRANCH   5   6
ENDBRANCH   4   5
ENDBRANCH   2   4
TORSDOF 4
ENDMDL
MODEL      195
REMARK 921   NORMALIZED FREE ENERGY PREDICTED BY IDOCK:   -1.18 KCAL/MOL
REMARK 922        TOTAL FREE ENERGY PREDICTED BY IDOCK:   -1.80 KCAL/MOL
REMARK 923 INTER-LIGAND FREE ENERGY PREDICTED BY IDOCK:   -2.12 KCAL/MOL
REMARK 924 INTRA-LIGAND FREE ENERGY PREDICTED BY IDOCK:    0.33 KCAL/MOL
REMARK 927      BINDING AFFINITY PREDICTED BY RF-SCORE:    0.00 PKD
ROOT
HETATM    1  C   UNL     1      -6.260  13.800  67.617  1.00  0.00    -0.119 C  
HETATM    2  C   UNL     1      -7.282  13.303  68.591  1.00  0.00    -0.106 C  
HETATM    3  O   UNL     1      -7.717  12.161  68.645  1.00  0.00    -0.125 OA 
ENDROOT
BRANCH   2   4
HETATM    4  O   UNL     1      -7.641  14.293  69.458  1.00  0.00    -0.005 OA 
BRANCH   4   5
HETATM    5  C   UNL     1      -8.775  15.075  69.037  1.00  0.00    -0.203 C  
BRANCH   5   6
HETATM    6  C   UNL     1      -9.715  14.242  68.149  1.00  0.00    -0.226 C  
BRANCH   6   7
HETATM    7  N   UNL     1     -10.701  15.066  67.295  1.00  0.00    -0.291 N  
HETATM    8  C   UNL     1     -12.015  14.327  67.085  1.00  0.00    -0.417 C  
HETATM    9  C   UNL     1     -10.052  15.298  65.926  1.00  0.00    -0.334 C  
HETATM   10  C   UNL     1     -10.963  16.430  67.930  1.00  0.00    -0.298 C  
ENDBRANCH   6   7
ENDBRANCH   5   6
ENDBRANCH   4   5
ENDBRANCH   2   4
TORSDOF 4
ENDMDL
MODEL      196
REMARK 921   NORMALIZED FREE ENERGY PREDICTED BY IDOCK:   -1.15 KCAL/MOL
REMARK 922        TOTAL FREE ENERGY PREDICTED BY IDOCK:   -1.76 KCAL/MOL
REMARK 923 INTER-LIGAND FREE ENERGY PREDICTED BY IDOCK:   -1.65 KCAL/MOL
REMARK 924 INTRA-LIGAND FREE ENERGY PREDICTED BY IDOCK:   -0.11 KCAL/MOL
REMARK 927      BINDING AFFINITY PREDICTED BY RF-SCORE:    0.00 PKD
ROOT
HETATM    1  C   UNL     1      -6.900   8.328  72.616  1.00  0.00    -0.107 C  
HETATM    2  C   UNL     1      -8.190   8.451  71.867  1.00  0.00    -0.158 C  
HETATM    3  O   UNL     1      -9.205   8.991  72.285  1.00  0.00    -0.344 OA 
ENDROOT
BRANCH   2   4
HETATM    4  O   UNL     1      -8.076   7.913  70.620  1.00  0.00    -0.098 OA 
BRANCH   4   5
HETATM    5  C   UNL     1      -9.324   7.755  69.919  1.00  0.00    -0.157 C  
BRANCH   5   6
HETATM    6  C   UNL     1      -9.085   7.315  68.466  1.00  0.00    -0.136 C  
BRANCH   6   7
HETATM    7  N   UNL     1      -9.698   5.950  68.090  1.00  0.00    -0.123 N  
HETATM    8  C   UNL     1     -10.714   5.487  69.124  1.00  0.00    -0.190 C  
HETATM    9  C   UNL     1      -8.559   4.926  68.038  1.00  0.00    -0.102 C  
HETATM   10  C   UNL     1     -10.344   6.007  66.708  1.00  0.00    -0.238 C  
ENDBRANCH   6   7
ENDBRANCH   5   6
ENDBRANCH   4   5
ENDBRANCH   2   4
TORSDOF 4
ENDMDL
MODEL      197
REMARK 921   NORMALIZED FREE ENERGY PREDICTED BY IDOCK:   -1.06 KCAL/MOL
REMARK 922        TOTAL FREE ENERGY PREDICTED BY IDOCK:   -1.64 KCAL/MOL
REMARK 923 INTER-LIGAND FREE ENERGY PREDICTED BY IDOCK:   -1.53 KCAL/MOL
REMARK 924 INTRA-LIGAND FREE ENERGY PREDICTED BY IDOCK:   -0.11 KCAL/MOL
REMARK 927      BINDING AFFINITY PREDICTED BY RF-SCORE:    0.00 PKD
ROOT
HETATM    1  C   UNL     1     -11.310   9.922  68.844  1.00  0.00    -0.060 C  
HETATM    2  C   UNL     1     -10.890   9.083  70.010  1.00  0.00    -0.231 C  
HETATM    3  O   UNL     1     -10.985   9.403  71.186  1.00  0.00    -0.302 OA 
ENDROOT
BRANCH   2   4
HETATM    4  O   UNL     1     -10.420   7.874  69.589  1.00  0.00    -0.219 OA 
BRANCH   4   5
HETATM    5  C   UNL     1     -10.101   6.954  70.649  1.00  0.00    -0.194 C  
BRANCH   5   6
HETATM    6  C   UNL     1      -8.637   6.493  70.554  1.00  0.00    -0.143 C  
BRANCH   6   7
HETATM    7  N   UNL     1      -8.017   6.019  71.885  1.00  0.00    -0.106 N  
HETATM    8  C   UNL     1      -6.648   5.388  71.673  1.00  0.00    -0.044 C  
HETATM    9  C   UNL     1      -8.951   4.961  72.483  1.00  0.00    -0.132 C  
HETATM   10  C   UNL     1      -7.914   7.173  72.878  1.00  0.00    -0.101 C  
ENDBRANCH   6   7
ENDBRANCH   5   6
ENDBRANCH   4   5
ENDBRANCH   2   4
TORSDOF 4
ENDMDL
MODEL      198
REMARK 921   NORMALIZED FREE ENERGY PREDICTED BY IDOCK:   -1.04 KCAL/MOL
REMARK 922        TOTAL FREE ENERGY PREDICTED BY IDOCK:   -1.62 KCAL/MOL
REMARK 923 INTER-LIGAND FREE ENERGY PREDICTED BY IDOCK:   -1.36 KCAL/MOL
REMARK 924 INTRA-LIGAND FREE ENERGY PREDICTED BY IDOCK:   -0.26 KCAL/MOL
REMARK 927      BINDING AFFINITY PREDICTED BY RF-SCORE:    0.00 PKD
ROOT
HETATM    1  C   UNL     1      -8.407   8.676  63.746  1.00  0.00    -0.116 C  
HETATM    2  C   UNL     1      -8.818   9.292  65.046  1.00  0.00    -0.198 C  
HETATM    3  O   UNL     1      -9.311   8.694  65.991  1.00  0.00    -0.212 OA 
ENDROOT
BRANCH   2   4
HETATM    4  O   UNL     1      -8.528  10.625  65.060  1.00  0.00    -0.177 OA 
BRANCH   4   5
HETATM    5  C   UNL     1      -9.119  11.355  66.150  1.00  0.00    -0.207 C  
BRANCH   5   6
HETATM    6  C   UNL     1      -8.057  12.176  66.900  1.00  0.00    -0.112 C  
BRANCH   6   7
HETATM    7  N   UNL     1      -7.529  11.527  68.196  1.00  0.00    -0.095 N  
HETATM    8  C   UNL     1      -6.945  12.564  69.145  1.00  0.00    -0.025 C  
HETATM    9  C   UNL     1      -6.417  10.546  67.807  1.00  0.00    -0.060 C  
HETATM   10  C   UNL     1      -8.631  10.737  68.897  1.00  0.00    -0.153 C  
ENDBRANCH   6   7
ENDBRANCH   5   6
ENDBRANCH   4   5
ENDBRANCH   2   4
TORSDOF 4
ENDMDL
MODEL      199
REMARK 921   NORMALIZED FREE ENERGY PREDICTED BY IDOCK:   -0.86 KCAL/MOL
REMARK 922        TOTAL FREE ENERGY PREDICTED BY IDOCK:   -1.40 KCAL/MOL
REMARK 923 INTER-LIGAND FREE ENERGY PREDICTED BY IDOCK:   -1.30 KCAL/MOL
REMARK 924 INTRA-LIGAND FREE ENERGY PREDICTED BY IDOCK:   -0.10 KCAL/MOL
REMARK 927      BINDING AFFINITY PREDICTED BY RF-SCORE:    0.00 PKD
ROOT
HETATM    1  C   UNL     1      -8.305   6.842  67.991  1.00  0.00    -0.121 C  
HETATM    2  C   UNL     1      -7.831   7.739  66.890  1.00  0.00    -0.107 C  
HETATM    3  O   UNL     1      -7.867   8.961  66.904  1.00  0.00    -0.099 OA 
ENDROOT
BRANCH   2   4
HETATM    4  O   UNL     1      -7.303   7.007  65.868  1.00  0.00    -0.072 OA 
BRANCH   4   5
HETATM    5  C   UNL     1      -8.276   6.320  65.059  1.00  0.00    -0.132 C  
BRANCH   5   6
HETATM    6  C   UNL     1      -8.036   4.802  65.086  1.00  0.00    -0.106 C  
BRANCH   6   7
HETATM    7  N   UNL     1      -9.311   3.940  64.965  1.00  0.00    -0.148 N  
HETATM    8  C   UNL     1      -9.059   2.502  65.398  1.00  0.00    -0.123 C  
HETATM    9  C   UNL     1      -9.733   3.935  63.492  1.00  0.00    -0.157 C  
HETATM   10  C   UNL     1     -10.452   4.542  65.781  1.00  0.00    -0.233 C  
ENDBRANCH   6   7
ENDBRANCH   5   6
ENDBRANCH   4   5
ENDBRANCH   2   4
TORSDOF 4
ENDMDL
