MODEL        1
REMARK 921   NORMALIZED FREE ENERGY PREDICTED BY IDOCK:   -6.30 KCAL/MOL
REMARK 922        TOTAL FREE ENERGY PREDICTED BY IDOCK:   -8.93 KCAL/MOL
REMARK 923 INTER-LIGAND FREE ENERGY PREDICTED BY IDOCK:   -8.14 KCAL/MOL
REMARK 924 INTRA-LIGAND FREE ENERGY PREDICTED BY IDOCK:   -0.79 KCAL/MOL
REMARK 927      BINDING AFFINITY PREDICTED BY RF-SCORE:    0.00 PKD
ROOT
HETATM    1  C   UNL     1     -11.147   6.168  72.856  1.00  0.00    -0.247 C  
HETATM    2  O   UNL     1     -11.793   6.381  71.604  1.00  0.00    -0.310 OA 
ENDROOT
BRANCH   2   3
HETATM    3  C   UNL     1     -11.730   7.661  71.114  1.00  0.00    -0.290 A  
HETATM    4  C   UNL     1     -10.870   7.905  70.028  1.00  0.00    -0.238 A  
HETATM    5  C   UNL     1     -10.070   6.769  69.435  1.00  0.00    -0.183 C  
HETATM    6  C   UNL     1     -10.758   9.226  69.508  1.00  0.00    -0.236 A  
HETATM    7  C   UNL     1     -11.499  10.291  70.097  1.00  0.00    -0.383 A  
HETATM    8  C   UNL     1      -9.830   9.528  68.349  1.00  0.00    -0.175 C  
HETATM    9  C   UNL     1     -12.430   8.718  71.694  1.00  0.00    -0.392 A  
HETATM   10  C   UNL     1     -12.331  10.031  71.203  1.00  0.00    -0.477 A  
HETATM   11  C   UNL     1     -13.124  11.073  71.946  1.00  0.00    -0.525 C  
BRANCH   7  12
HETATM   12  C   UNL     1     -11.306  11.676  69.612  1.00  0.00    -0.308 C  
HETATM   13  C   UNL     1     -12.032  12.251  68.637  1.00  0.00    -0.276 C  
BRANCH  13  14
HETATM   14  C   UNL     1     -11.835  13.591  68.065  1.00  0.00    -0.400 C  
HETATM   15  C   UNL     1     -11.400  14.604  68.852  1.00  0.00    -0.305 C  
HETATM   16  C   UNL     1     -12.154  13.836  66.606  1.00  0.00    -0.471 C  
BRANCH  15  17
HETATM   17  C   UNL     1     -11.172  15.964  68.392  1.00  0.00    -0.368 C  
HETATM   18  C   UNL     1     -10.083  16.707  68.651  1.00  0.00    -0.270 C  
BRANCH  18  19
HETATM   19  C   UNL     1      -9.918  18.053  68.109  1.00  0.00    -0.356 C  
HETATM   20  C   UNL     1      -9.061  18.985  68.924  1.00  0.00    -0.321 C  
HETATM   21  C   UNL     1     -10.517  18.388  66.947  1.00  0.00    -0.419 C  
HETATM   22  C   UNL     1     -10.454  19.726  66.320  1.00  0.00    -0.506 C  
HETATM   23  O   UNL     1     -11.178  19.780  65.182  1.00  0.00    -0.296 OA 
HETATM   24  O   UNL     1      -9.845  20.689  66.755  1.00  0.00    -0.392 OA 
ENDBRANCH  18  19
ENDBRANCH  15  17
ENDBRANCH  13  14
ENDBRANCH   7  12
ENDBRANCH   2   3
TORSDOF 5
ENDMDL
MODEL        2
REMARK 921   NORMALIZED FREE ENERGY PREDICTED BY IDOCK:   -6.29 KCAL/MOL
REMARK 922        TOTAL FREE ENERGY PREDICTED BY IDOCK:   -8.92 KCAL/MOL
REMARK 923 INTER-LIGAND FREE ENERGY PREDICTED BY IDOCK:   -8.14 KCAL/MOL
REMARK 924 INTRA-LIGAND FREE ENERGY PREDICTED BY IDOCK:   -0.79 KCAL/MOL
REMARK 927      BINDING AFFINITY PREDICTED BY RF-SCORE:    0.00 PKD
ROOT
HETATM    1  C   UNL     1     -11.398   5.881  72.472  1.00  0.00    -0.304 C  
HETATM    2  O   UNL     1     -12.466   6.568  71.826  1.00  0.00    -0.345 OA 
ENDROOT
BRANCH   2   3
HETATM    3  C   UNL     1     -12.168   7.824  71.359  1.00  0.00    -0.319 A  
HETATM    4  C   UNL     1     -12.916   8.904  71.862  1.00  0.00    -0.436 A  
HETATM    5  C   UNL     1     -13.992   8.656  72.892  1.00  0.00    -0.013 C  
HETATM    6  C   UNL     1     -12.653  10.219  71.383  1.00  0.00    -0.539 A  
HETATM    7  C   UNL     1     -11.652  10.431  70.391  1.00  0.00    -0.423 A  
HETATM    8  C   UNL     1     -13.449  11.403  71.890  1.00  0.00    -0.280 C  
HETATM    9  C   UNL     1     -11.209   8.045  70.372  1.00  0.00    -0.230 A  
HETATM   10  C   UNL     1     -10.936   9.332  69.879  1.00  0.00    -0.231 A  
HETATM   11  C   UNL     1      -9.894   9.415  68.795  1.00  0.00    -0.172 C  
BRANCH   7  12
HETATM   12  C   UNL     1     -11.450  11.786  69.830  1.00  0.00    -0.320 C  
HETATM   13  C   UNL     1     -12.005  12.230  68.688  1.00  0.00    -0.276 C  
BRANCH  13  14
HETATM   14  C   UNL     1     -11.779  13.534  68.047  1.00  0.00    -0.394 C  
HETATM   15  C   UNL     1     -11.425  14.603  68.799  1.00  0.00    -0.322 C  
HETATM   16  C   UNL     1     -11.979  13.678  66.554  1.00  0.00    -0.465 C  
BRANCH  15  17
HETATM   17  C   UNL     1     -11.178  15.935  68.271  1.00  0.00    -0.354 C  
HETATM   18  C   UNL     1     -10.508  16.915  68.898  1.00  0.00    -0.346 C  
BRANCH  18  19
HETATM   19  C   UNL     1     -10.268  18.213  68.271  1.00  0.00    -0.402 C  
HETATM   20  C   UNL     1      -9.639  19.259  69.153  1.00  0.00    -0.355 C  
HETATM   21  C   UNL     1     -10.608  18.408  66.979  1.00  0.00    -0.400 C  
HETATM   22  C   UNL     1     -10.450  19.685  66.249  1.00  0.00    -0.519 C  
HETATM   23  O   UNL     1     -10.908  19.597  64.983  1.00  0.00    -0.304 OA 
HETATM   24  O   UNL     1      -9.980  20.713  66.706  1.00  0.00    -0.386 OA 
ENDBRANCH  18  19
ENDBRANCH  15  17
ENDBRANCH  13  14
ENDBRANCH   7  12
ENDBRANCH   2   3
TORSDOF 5
ENDMDL
MODEL        3
REMARK 921   NORMALIZED FREE ENERGY PREDICTED BY IDOCK:   -6.28 KCAL/MOL
REMARK 922        TOTAL FREE ENERGY PREDICTED BY IDOCK:   -8.90 KCAL/MOL
REMARK 923 INTER-LIGAND FREE ENERGY PREDICTED BY IDOCK:   -8.12 KCAL/MOL
REMARK 924 INTRA-LIGAND FREE ENERGY PREDICTED BY IDOCK:   -0.78 KCAL/MOL
REMARK 927      BINDING AFFINITY PREDICTED BY RF-SCORE:    0.00 PKD
ROOT
HETATM    1  C   UNL     1     -11.379   5.139  73.163  1.00  0.00    -0.313 C  
HETATM    2  O   UNL     1     -10.821   6.361  73.636  1.00  0.00    -0.247 OA 
ENDROOT
BRANCH   2   3
HETATM    3  C   UNL     1     -10.927   7.431  72.784  1.00  0.00    -0.339 A  
HETATM    4  C   UNL     1      -9.771   7.831  72.088  1.00  0.00    -0.240 A  
HETATM    5  C   UNL     1      -8.479   7.075  72.284  1.00  0.00    -0.117 C  
HETATM    6  C   UNL     1      -9.835   8.953  71.213  1.00  0.00    -0.361 A  
HETATM    7  C   UNL     1     -11.056   9.672  71.061  1.00  0.00    -0.438 A  
HETATM    8  C   UNL     1      -8.606   9.420  70.460  1.00  0.00    -0.265 C  
HETATM    9  C   UNL     1     -12.107   8.159  72.641  1.00  0.00    -0.311 A  
HETATM   10  C   UNL     1     -12.193   9.273  71.789  1.00  0.00    -0.457 A  
HETATM   11  C   UNL     1     -13.523   9.977  71.758  1.00  0.00    -0.422 C  
BRANCH   7  12
HETATM   12  C   UNL     1     -11.090  10.892  70.223  1.00  0.00    -0.173 C  
HETATM   13  C   UNL     1     -11.465  10.921  68.932  1.00  0.00    -0.369 C  
BRANCH  13  14
HETATM   14  C   UNL     1     -11.446  12.085  68.035  1.00  0.00    -0.392 C  
HETATM   15  C   UNL     1     -11.508  13.336  68.551  1.00  0.00    -0.347 C  
HETATM   16  C   UNL     1     -11.392  11.875  66.537  1.00  0.00    -0.403 C  
BRANCH  15  17
HETATM   17  C   UNL     1     -11.496  14.555  67.757  1.00  0.00    -0.362 C  
HETATM   18  C   UNL     1     -10.485  15.436  67.691  1.00  0.00    -0.272 C  
BRANCH  18  19
HETATM   19  C   UNL     1     -10.542  16.616  66.830  1.00  0.00    -0.229 C  
HETATM   20  C   UNL     1     -10.749  16.346  65.364  1.00  0.00    -0.310 C  
HETATM   21  C   UNL     1     -10.412  17.847  67.369  1.00  0.00    -0.390 C  
HETATM   22  C   UNL     1     -10.415  19.109  66.597  1.00  0.00    -0.443 C  
HETATM   23  O   UNL     1     -10.230  20.182  67.394  1.00  0.00    -0.411 OA 
HETATM   24  O   UNL     1     -10.552  19.206  65.390  1.00  0.00    -0.508 OA 
ENDBRANCH  18  19
ENDBRANCH  15  17
ENDBRANCH  13  14
ENDBRANCH   7  12
ENDBRANCH   2   3
TORSDOF 5
ENDMDL
MODEL        4
REMARK 921   NORMALIZED FREE ENERGY PREDICTED BY IDOCK:   -6.26 KCAL/MOL
REMARK 922        TOTAL FREE ENERGY PREDICTED BY IDOCK:   -8.88 KCAL/MOL
REMARK 923 INTER-LIGAND FREE ENERGY PREDICTED BY IDOCK:   -8.13 KCAL/MOL
REMARK 924 INTRA-LIGAND FREE ENERGY PREDICTED BY IDOCK:   -0.75 KCAL/MOL
REMARK 927      BINDING AFFINITY PREDICTED BY RF-SCORE:    0.00 PKD
ROOT
HETATM    1  C   UNL     1     -10.843   3.655  73.479  1.00  0.00    -0.231 C  
HETATM    2  O   UNL     1     -10.729   4.978  73.994  1.00  0.00    -0.283 OA 
ENDROOT
BRANCH   2   3
HETATM    3  C   UNL     1     -10.853   5.986  73.070  1.00  0.00    -0.260 A  
HETATM    4  C   UNL     1      -9.717   6.774  72.804  1.00  0.00    -0.170 A  
HETATM    5  C   UNL     1      -8.418   6.480  73.516  1.00  0.00    -0.129 C  
HETATM    6  C   UNL     1      -9.813   7.845  71.871  1.00  0.00    -0.233 A  
HETATM    7  C   UNL     1     -11.054   8.124  71.229  1.00  0.00    -0.287 A  
HETATM    8  C   UNL     1      -8.615   8.722  71.571  1.00  0.00    -0.253 C  
HETATM    9  C   UNL     1     -12.065   6.288  72.452  1.00  0.00    -0.186 A  
HETATM   10  C   UNL     1     -12.186   7.343  71.533  1.00  0.00    -0.368 A  
HETATM   11  C   UNL     1     -13.562   7.568  70.965  1.00  0.00    -0.120 C  
BRANCH   7  12
HETATM   12  C   UNL     1     -11.170   9.297  70.333  1.00  0.00    -0.290 C  
HETATM   13  C   UNL     1     -11.659  10.494  70.702  1.00  0.00    -0.445 C  
BRANCH  13  14
HETATM   14  C   UNL     1     -11.866  11.666  69.839  1.00  0.00    -0.434 C  
HETATM   15  C   UNL     1     -11.560  11.596  68.521  1.00  0.00    -0.379 C  
HETATM   16  C   UNL     1     -12.388  12.954  70.438  1.00  0.00    -0.333 C  
BRANCH  15  17
HETATM   17  C   UNL     1     -11.726  12.691  67.579  1.00  0.00    -0.429 C  
HETATM   18  C   UNL     1     -10.914  12.964  66.544  1.00  0.00    -0.300 C  
BRANCH  18  19
HETATM   19  C   UNL     1     -11.182  14.062  65.619  1.00  0.00    -0.310 C  
HETATM   20  C   UNL     1     -11.844  13.679  64.323  1.00  0.00    -0.464 C  
HETATM   21  C   UNL     1     -10.837  15.324  65.956  1.00  0.00    -0.331 C  
HETATM   22  C   UNL     1     -11.023  16.509  65.090  1.00  0.00    -0.191 C  
HETATM   23  O   UNL     1     -10.553  17.632  65.672  1.00  0.00    -0.565 OA 
HETATM   24  O   UNL     1     -11.522  16.507  63.978  1.00  0.00    -1.137 OA 
ENDBRANCH  18  19
ENDBRANCH  15  17
ENDBRANCH  13  14
ENDBRANCH   7  12
ENDBRANCH   2   3
TORSDOF 5
ENDMDL
MODEL        5
REMARK 921   NORMALIZED FREE ENERGY PREDICTED BY IDOCK:   -6.25 KCAL/MOL
REMARK 922        TOTAL FREE ENERGY PREDICTED BY IDOCK:   -8.87 KCAL/MOL
REMARK 923 INTER-LIGAND FREE ENERGY PREDICTED BY IDOCK:   -8.13 KCAL/MOL
REMARK 924 INTRA-LIGAND FREE ENERGY PREDICTED BY IDOCK:   -0.74 KCAL/MOL
REMARK 927      BINDING AFFINITY PREDICTED BY RF-SCORE:    0.00 PKD
ROOT
HETATM    1  C   UNL     1     -12.877   9.304  72.062  1.00  0.00    -0.415 C  
HETATM    2  O   UNL     1     -13.328  10.655  72.087  1.00  0.00    -0.444 OA 
ENDROOT
BRANCH   2   3
HETATM    3  C   UNL     1     -12.773  11.483  71.143  1.00  0.00    -0.356 A  
HETATM    4  C   UNL     1     -12.903  12.871  71.331  1.00  0.00    -0.377 A  
HETATM    5  C   UNL     1     -13.620  13.398  72.551  1.00  0.00    -0.659 C  
HETATM    6  C   UNL     1     -12.362  13.762  70.360  1.00  0.00    -0.423 A  
HETATM    7  C   UNL     1     -11.712  13.247  69.202  1.00  0.00    -0.379 A  
HETATM    8  C   UNL     1     -12.498  15.261  70.524  1.00  0.00    -0.454 C  
HETATM    9  C   UNL     1     -12.155  10.996  69.992  1.00  0.00    -0.441 A  
HETATM   10  C   UNL     1     -11.620  11.854  69.018  1.00  0.00    -0.376 A  
HETATM   11  C   UNL     1     -11.007  11.185  67.816  1.00  0.00    -0.315 C  
BRANCH   7  12
HETATM   12  C   UNL     1     -11.237  14.177  68.152  1.00  0.00    -0.299 C  
HETATM   13  C   UNL     1      -9.971  14.616  68.038  1.00  0.00    -0.220 C  
BRANCH  13  14
HETATM   14  C   UNL     1      -9.462  15.594  67.067  1.00  0.00    -0.236 C  
HETATM   15  C   UNL     1      -8.506  16.479  67.437  1.00  0.00    -0.194 C  
HETATM   16  C   UNL     1     -10.036  15.627  65.667  1.00  0.00    -0.395 C  
BRANCH  15  17
HETATM   17  C   UNL     1      -7.932  17.487  66.559  1.00  0.00    -0.309 C  
HETATM   18  C   UNL     1      -7.286  18.595  66.956  1.00  0.00    -0.221 C  
BRANCH  18  19
HETATM   19  C   UNL     1      -6.702  19.534  66.001  1.00  0.00    -0.251 C  
HETATM   20  C   UNL     1      -6.616  20.965  66.459  1.00  0.00    -0.327 C  
HETATM   21  C   UNL     1      -6.280  19.091  64.797  1.00  0.00    -0.244 C  
HETATM   22  C   UNL     1      -5.708  19.950  63.737  1.00  0.00    -0.277 C  
HETATM   23  O   UNL     1      -5.408  19.241  62.628  1.00  0.00    -0.303 OA 
HETATM   24  O   UNL     1      -5.526  21.153  63.815  1.00  0.00    -0.215 OA 
ENDBRANCH  18  19
ENDBRANCH  15  17
ENDBRANCH  13  14
ENDBRANCH   7  12
ENDBRANCH   2   3
TORSDOF 5
ENDMDL
MODEL        6
REMARK 921   NORMALIZED FREE ENERGY PREDICTED BY IDOCK:   -6.08 KCAL/MOL
REMARK 922        TOTAL FREE ENERGY PREDICTED BY IDOCK:   -8.65 KCAL/MOL
REMARK 923 INTER-LIGAND FREE ENERGY PREDICTED BY IDOCK:   -7.90 KCAL/MOL
REMARK 924 INTRA-LIGAND FREE ENERGY PREDICTED BY IDOCK:   -0.75 KCAL/MOL
REMARK 927      BINDING AFFINITY PREDICTED BY RF-SCORE:    0.00 PKD
ROOT
HETATM    1  C   UNL     1     -11.647   6.010  72.043  1.00  0.00    -0.276 C  
HETATM    2  O   UNL     1     -12.696   6.913  71.705  1.00  0.00    -0.365 OA 
ENDROOT
BRANCH   2   3
HETATM    3  C   UNL     1     -12.295   8.148  71.260  1.00  0.00    -0.265 A  
HETATM    4  C   UNL     1     -13.009   9.271  71.717  1.00  0.00    -0.471 A  
HETATM    5  C   UNL     1     -14.160   9.089  72.677  1.00  0.00    -0.335 C  
HETATM    6  C   UNL     1     -12.639  10.568  71.258  1.00  0.00    -0.531 A  
HETATM    7  C   UNL     1     -11.567  10.719  70.332  1.00  0.00    -0.431 A  
HETATM    8  C   UNL     1     -13.395  11.797  71.717  1.00  0.00    -0.342 C  
HETATM    9  C   UNL     1     -11.265   8.311  70.336  1.00  0.00    -0.222 A  
HETATM   10  C   UNL     1     -10.886   9.579  69.864  1.00  0.00    -0.272 A  
HETATM   11  C   UNL     1      -9.775   9.598  68.848  1.00  0.00    -0.163 C  
BRANCH   7  12
HETATM   12  C   UNL     1     -11.251  12.059  69.788  1.00  0.00    -0.105 C  
HETATM   13  C   UNL     1     -11.765  12.562  68.652  1.00  0.00    -0.368 C  
BRANCH  13  14
HETATM   14  C   UNL     1     -11.430  13.850  68.027  1.00  0.00    -0.339 C  
HETATM   15  C   UNL     1     -10.614  14.720  68.669  1.00  0.00    -0.255 C  
HETATM   16  C   UNL     1     -12.029  14.209  66.684  1.00  0.00    -0.470 C  
BRANCH  15  17
HETATM   17  C   UNL     1     -10.218  16.017  68.144  1.00  0.00    -0.243 C  
HETATM   18  C   UNL     1     -10.046  17.135  68.868  1.00  0.00    -0.322 C  
BRANCH  18  19
HETATM   19  C   UNL     1      -9.603  18.388  68.262  1.00  0.00    -0.355 C  
HETATM   20  C   UNL     1     -10.633  19.120  67.444  1.00  0.00    -0.577 C  
HETATM   21  C   UNL     1      -8.337  18.818  68.456  1.00  0.00    -0.379 C  
HETATM   22  C   UNL     1      -7.764  20.047  67.866  1.00  0.00    -0.280 C  
HETATM   23  O   UNL     1      -6.467  20.206  68.203  1.00  0.00    -0.250 OA 
HETATM   24  O   UNL     1      -8.356  20.836  67.149  1.00  0.00    -0.283 OA 
ENDBRANCH  18  19
ENDBRANCH  15  17
ENDBRANCH  13  14
ENDBRANCH   7  12
ENDBRANCH   2   3
TORSDOF 5
ENDMDL
MODEL        7
REMARK 921   NORMALIZED FREE ENERGY PREDICTED BY IDOCK:   -6.08 KCAL/MOL
REMARK 922        TOTAL FREE ENERGY PREDICTED BY IDOCK:   -8.65 KCAL/MOL
REMARK 923 INTER-LIGAND FREE ENERGY PREDICTED BY IDOCK:   -7.90 KCAL/MOL
REMARK 924 INTRA-LIGAND FREE ENERGY PREDICTED BY IDOCK:   -0.74 KCAL/MOL
REMARK 927      BINDING AFFINITY PREDICTED BY RF-SCORE:    0.00 PKD
ROOT
HETATM    1  C   UNL     1     -10.883  16.013  67.882  1.00  0.00    -0.333 C  
HETATM    2  O   UNL     1     -11.649  15.863  69.073  1.00  0.00    -0.370 OA 
ENDROOT
BRANCH   2   3
HETATM    3  C   UNL     1     -11.899  14.569  69.459  1.00  0.00    -0.329 A  
HETATM    4  C   UNL     1     -12.603  14.368  70.660  1.00  0.00    -0.424 A  
HETATM    5  C   UNL     1     -13.069  15.559  71.464  1.00  0.00    -0.573 C  
HETATM    6  C   UNL     1     -12.859  13.040  71.106  1.00  0.00    -0.331 A  
HETATM    7  C   UNL     1     -12.388  11.929  70.349  1.00  0.00    -0.334 A  
HETATM    8  C   UNL     1     -13.601  12.787  72.402  1.00  0.00    -0.507 C  
HETATM    9  C   UNL     1     -11.424  13.472  68.743  1.00  0.00    -0.349 A  
HETATM   10  C   UNL     1     -11.659  12.153  69.166  1.00  0.00    -0.374 A  
HETATM   11  C   UNL     1     -11.063  11.070  68.306  1.00  0.00    -0.316 C  
BRANCH   7  12
HETATM   12  C   UNL     1     -12.576  10.555  70.867  1.00  0.00    -0.493 C  
HETATM   13  C   UNL     1     -11.623   9.838  71.490  1.00  0.00    -0.424 C  
BRANCH  13  14
HETATM   14  C   UNL     1     -11.730   8.448  71.956  1.00  0.00    -0.417 C  
HETATM   15  C   UNL     1     -10.798   7.946  72.802  1.00  0.00    -0.451 C  
HETATM   16  C   UNL     1     -12.863   7.577  71.459  1.00  0.00    -0.397 C  
BRANCH  15  17
HETATM   17  C   UNL     1     -10.807   6.589  73.324  1.00  0.00    -0.276 C  
HETATM   18  C   UNL     1     -10.006   5.589  72.921  1.00  0.00    -0.191 C  
BRANCH  18  19
HETATM   19  C   UNL     1     -10.054   4.264  73.533  1.00  0.00    -0.194 C  
HETATM   20  C   UNL     1      -8.888   3.909  74.416  1.00  0.00    -0.097 C  
HETATM   21  C   UNL     1     -11.102   3.449  73.290  1.00  0.00    -0.236 C  
HETATM   22  C   UNL     1     -11.244   2.075  73.821  1.00  0.00    -0.195 C  
HETATM   23  O   UNL     1     -12.375   1.484  73.383  1.00  0.00    -0.184 OA 
HETATM   24  O   UNL     1     -10.451   1.510  74.555  1.00  0.00    -0.107 OA 
ENDBRANCH  18  19
ENDBRANCH  15  17
ENDBRANCH  13  14
ENDBRANCH   7  12
ENDBRANCH   2   3
TORSDOF 5
ENDMDL
MODEL        8
REMARK 921   NORMALIZED FREE ENERGY PREDICTED BY IDOCK:   -6.05 KCAL/MOL
REMARK 922        TOTAL FREE ENERGY PREDICTED BY IDOCK:   -8.61 KCAL/MOL
REMARK 923 INTER-LIGAND FREE ENERGY PREDICTED BY IDOCK:   -8.00 KCAL/MOL
REMARK 924 INTRA-LIGAND FREE ENERGY PREDICTED BY IDOCK:   -0.61 KCAL/MOL
REMARK 927      BINDING AFFINITY PREDICTED BY RF-SCORE:    0.00 PKD
ROOT
HETATM    1  C   UNL     1     -10.786  19.669  65.616  1.00  0.00    -0.329 C  
HETATM    2  O   UNL     1      -9.792  18.697  65.931  1.00  0.00    -0.510 OA 
ENDROOT
BRANCH   2   3
HETATM    3  C   UNL     1     -10.266  17.481  66.357  1.00  0.00    -0.354 A  
HETATM    4  C   UNL     1     -10.454  17.300  67.740  1.00  0.00    -0.371 A  
HETATM    5  C   UNL     1     -10.152  18.432  68.692  1.00  0.00    -0.407 C  
HETATM    6  C   UNL     1     -10.920  16.044  68.223  1.00  0.00    -0.335 A  
HETATM    7  C   UNL     1     -11.175  14.978  67.312  1.00  0.00    -0.339 A  
HETATM    8  C   UNL     1     -11.120  15.809  69.706  1.00  0.00    -0.322 C  
HETATM    9  C   UNL     1     -10.497  16.421  65.482  1.00  0.00    -0.349 A  
HETATM   10  C   UNL     1     -10.950  15.171  65.936  1.00  0.00    -0.339 A  
HETATM   11  C   UNL     1     -11.130  14.113  64.879  1.00  0.00    -0.389 C  
BRANCH   7  12
HETATM   12  C   UNL     1     -11.568  13.648  67.830  1.00  0.00    -0.376 C  
HETATM   13  C   UNL     1     -10.702  12.691  68.210  1.00  0.00    -0.248 C  
BRANCH  13  14
HETATM   14  C   UNL     1     -11.034  11.331  68.658  1.00  0.00    -0.266 C  
HETATM   15  C   UNL     1     -11.442  11.121  69.932  1.00  0.00    -0.386 C  
HETATM   16  C   UNL     1     -10.883  10.169  67.700  1.00  0.00    -0.346 C  
BRANCH  15  17
HETATM   17  C   UNL     1     -11.794   9.820  70.480  1.00  0.00    -0.316 C  
HETATM   18  C   UNL     1     -10.995   9.043  71.228  1.00  0.00    -0.384 C  
BRANCH  18  19
HETATM   19  C   UNL     1     -11.448   7.766  71.775  1.00  0.00    -0.307 C  
HETATM   20  C   UNL     1     -12.905   7.448  71.573  1.00  0.00    -0.416 C  
HETATM   21  C   UNL     1     -10.572   6.959  72.412  1.00  0.00    -0.240 C  
HETATM   22  C   UNL     1     -10.920   5.665  73.037  1.00  0.00    -0.284 C  
HETATM   23  O   UNL     1      -9.852   5.094  73.632  1.00  0.00    -0.153 OA 
HETATM   24  O   UNL     1     -12.026   5.152  73.045  1.00  0.00    -0.231 OA 
ENDBRANCH  18  19
ENDBRANCH  15  17
ENDBRANCH  13  14
ENDBRANCH   7  12
ENDBRANCH   2   3
TORSDOF 5
ENDMDL
MODEL        9
REMARK 921   NORMALIZED FREE ENERGY PREDICTED BY IDOCK:   -6.04 KCAL/MOL
REMARK 922        TOTAL FREE ENERGY PREDICTED BY IDOCK:   -8.60 KCAL/MOL
REMARK 923 INTER-LIGAND FREE ENERGY PREDICTED BY IDOCK:   -7.83 KCAL/MOL
REMARK 924 INTRA-LIGAND FREE ENERGY PREDICTED BY IDOCK:   -0.76 KCAL/MOL
REMARK 927      BINDING AFFINITY PREDICTED BY RF-SCORE:    0.00 PKD
ROOT
HETATM    1  C   UNL     1      -9.431   2.360  71.165  1.00  0.00    -0.150 C  
HETATM    2  O   UNL     1      -9.792   3.435  72.027  1.00  0.00    -0.154 OA 
ENDROOT
BRANCH   2   3
HETATM    3  C   UNL     1     -10.114   4.614  71.402  1.00  0.00    -0.178 A  
HETATM    4  C   UNL     1     -10.507   5.697  72.209  1.00  0.00    -0.260 A  
HETATM    5  C   UNL     1     -10.546   5.538  73.710  1.00  0.00    -0.316 C  
HETATM    6  C   UNL     1     -10.874   6.929  71.596  1.00  0.00    -0.252 A  
HETATM    7  C   UNL     1     -10.857   7.053  70.176  1.00  0.00    -0.285 A  
HETATM    8  C   UNL     1     -11.316   8.111  72.433  1.00  0.00    -0.456 C  
HETATM    9  C   UNL     1     -10.126   4.744  70.014  1.00  0.00    -0.308 A  
HETATM   10  C   UNL     1     -10.489   5.947  69.386  1.00  0.00    -0.343 A  
HETATM   11  C   UNL     1     -10.482   5.931  67.880  1.00  0.00    -0.297 C  
BRANCH   7  12
HETATM   12  C   UNL     1     -11.329   8.305  69.543  1.00  0.00     0.283 C  
HETATM   13  C   UNL     1     -10.524   9.237  69.002  1.00  0.00    -0.233 C  
BRANCH  13  14
HETATM   14  C   UNL     1     -10.931  10.528  68.430  1.00  0.00    -0.310 C  
HETATM   15  C   UNL     1     -10.890  10.716  67.089  1.00  0.00    -0.328 C  
HETATM   16  C   UNL     1     -11.362  11.651  69.349  1.00  0.00    -0.342 C  
BRANCH  15  17
HETATM   17  C   UNL     1     -11.269  11.950  66.419  1.00  0.00    -0.387 C  
HETATM   18  C   UNL     1     -10.436  12.771  65.760  1.00  0.00    -0.294 C  
BRANCH  18  19
HETATM   19  C   UNL     1     -10.912  13.971  65.076  1.00  0.00    -0.379 C  
HETATM   20  C   UNL     1     -11.919  13.744  63.981  1.00  0.00    -0.451 C  
HETATM   21  C   UNL     1     -10.446  15.184  65.445  1.00  0.00    -0.416 C  
HETATM   22  C   UNL     1     -10.824  16.463  64.804  1.00  0.00    -0.178 C  
HETATM   23  O   UNL     1     -10.175  17.509  65.356  1.00  0.00    -0.593 OA 
HETATM   24  O   UNL     1     -11.611  16.592  63.882  1.00  0.00    -1.204 OA 
ENDBRANCH  18  19
ENDBRANCH  15  17
ENDBRANCH  13  14
ENDBRANCH   7  12
ENDBRANCH   2   3
TORSDOF 5
ENDMDL
MODEL       10
REMARK 921   NORMALIZED FREE ENERGY PREDICTED BY IDOCK:   -6.03 KCAL/MOL
REMARK 922        TOTAL FREE ENERGY PREDICTED BY IDOCK:   -8.58 KCAL/MOL
REMARK 923 INTER-LIGAND FREE ENERGY PREDICTED BY IDOCK:   -7.81 KCAL/MOL
REMARK 924 INTRA-LIGAND FREE ENERGY PREDICTED BY IDOCK:   -0.77 KCAL/MOL
REMARK 927      BINDING AFFINITY PREDICTED BY RF-SCORE:    0.00 PKD
ROOT
HETATM    1  C   UNL     1     -10.561  18.514  65.868  1.00  0.00    -0.300 C  
HETATM    2  O   UNL     1     -10.718  17.258  65.214  1.00  0.00    -0.637 OA 
ENDROOT
BRANCH   2   3
HETATM    3  C   UNL     1     -10.652  16.154  66.027  1.00  0.00    -0.295 A  
HETATM    4  C   UNL     1     -11.267  14.971  65.576  1.00  0.00    -0.344 A  
HETATM    5  C   UNL     1     -11.953  14.949  64.231  1.00  0.00    -0.355 C  
HETATM    6  C   UNL     1     -11.242  13.811  66.403  1.00  0.00    -0.321 A  
HETATM    7  C   UNL     1     -10.614  13.859  67.681  1.00  0.00    -0.247 A  
HETATM    8  C   UNL     1     -11.907  12.527  65.956  1.00  0.00    -0.478 C  
HETATM    9  C   UNL     1     -10.063  16.190  67.290  1.00  0.00    -0.265 A  
HETATM   10  C   UNL     1     -10.031  15.061  68.126  1.00  0.00    -0.220 A  
HETATM   11  C   UNL     1      -9.386  15.257  69.472  1.00  0.00    -0.198 C  
BRANCH   7  12
HETATM   12  C   UNL     1     -10.675  12.679  68.573  1.00  0.00    -0.271 C  
HETATM   13  C   UNL     1     -11.706  12.389  69.386  1.00  0.00    -0.384 C  
BRANCH  13  14
HETATM   14  C   UNL     1     -11.788  11.277  70.344  1.00  0.00    -0.443 C  
HETATM   15  C   UNL     1     -10.880  10.273  70.292  1.00  0.00    -0.349 C  
HETATM   16  C   UNL     1     -12.908  11.246  71.360  1.00  0.00    -0.515 C  
BRANCH  15  17
HETATM   17  C   UNL     1     -10.867   9.128  71.188  1.00  0.00    -0.381 C  
HETATM   18  C   UNL     1      -9.849   8.771  71.988  1.00  0.00    -0.376 C  
BRANCH  18  19
HETATM   19  C   UNL     1      -9.939   7.627  72.892  1.00  0.00    -0.319 C  
HETATM   20  C   UNL     1      -8.920   7.586  73.999  1.00  0.00    -0.292 C  
HETATM   21  C   UNL     1     -10.897   6.695  72.702  1.00  0.00    -0.279 C  
HETATM   22  C   UNL     1     -11.064   5.477  73.526  1.00  0.00    -0.167 C  
HETATM   23  O   UNL     1     -12.081   4.709  73.082  1.00  0.00    -0.111 OA 
HETATM   24  O   UNL     1     -10.380   5.167  74.486  1.00  0.00    -0.261 OA 
ENDBRANCH  18  19
ENDBRANCH  15  17
ENDBRANCH  13  14
ENDBRANCH   7  12
ENDBRANCH   2   3
TORSDOF 5
ENDMDL
MODEL       11
REMARK 921   NORMALIZED FREE ENERGY PREDICTED BY IDOCK:   -5.94 KCAL/MOL
REMARK 922        TOTAL FREE ENERGY PREDICTED BY IDOCK:   -8.47 KCAL/MOL
REMARK 923 INTER-LIGAND FREE ENERGY PREDICTED BY IDOCK:   -7.80 KCAL/MOL
REMARK 924 INTRA-LIGAND FREE ENERGY PREDICTED BY IDOCK:   -0.67 KCAL/MOL
REMARK 927      BINDING AFFINITY PREDICTED BY RF-SCORE:    0.00 PKD
ROOT
HETATM    1  C   UNL     1     -12.749  15.423  73.846  1.00  0.00    -0.554 C  
HETATM    2  O   UNL     1     -13.544  15.111  72.705  1.00  0.00    -0.461 OA 
ENDROOT
BRANCH   2   3
HETATM    3  C   UNL     1     -13.107  14.053  71.949  1.00  0.00    -0.386 A  
HETATM    4  C   UNL     1     -12.408  14.341  70.762  1.00  0.00    -0.427 A  
HETATM    5  C   UNL     1     -12.152  15.777  70.373  1.00  0.00    -0.399 C  
HETATM    6  C   UNL     1     -11.960  13.270  69.937  1.00  0.00    -0.400 A  
HETATM    7  C   UNL     1     -12.235  11.921  70.306  1.00  0.00    -0.353 A  
HETATM    8  C   UNL     1     -11.219  13.543  68.645  1.00  0.00    -0.311 C  
HETATM    9  C   UNL     1     -13.388  12.729  72.283  1.00  0.00    -0.563 A  
HETATM   10  C   UNL     1     -12.962  11.656  71.483  1.00  0.00    -0.463 A  
HETATM   11  C   UNL     1     -13.362  10.283  71.955  1.00  0.00    -0.487 C  
BRANCH   7  12
HETATM   12  C   UNL     1     -11.849  10.818  69.397  1.00  0.00    -0.370 C  
HETATM   13  C   UNL     1     -10.846   9.953  69.630  1.00  0.00    -0.281 C  
BRANCH  13  14
HETATM   14  C   UNL     1     -10.372   8.891  68.731  1.00  0.00    -0.232 C  
HETATM   15  C   UNL     1     -10.487   7.593  69.101  1.00  0.00    -0.220 C  
HETATM   16  C   UNL     1      -9.728   9.259  67.413  1.00  0.00    -0.208 C  
BRANCH  15  17
HETATM   17  C   UNL     1     -10.052   6.465  68.292  1.00  0.00    -0.169 C  
HETATM   18  C   UNL     1     -10.780   5.857  67.340  1.00  0.00    -0.370 C  
BRANCH  18  19
HETATM   19  C   UNL     1     -10.245   4.756  66.543  1.00  0.00    -0.294 C  
HETATM   20  C   UNL     1      -9.273   3.849  67.249  1.00  0.00    -0.200 C  
HETATM   21  C   UNL     1     -10.635   4.606  65.259  1.00  0.00    -0.118 C  
HETATM   22  C   UNL     1     -10.136   3.555  64.344  1.00  0.00    -0.182 C  
HETATM   23  O   UNL     1     -10.672   3.671  63.111  1.00  0.00    -0.224 OA 
HETATM   24  O   UNL     1      -9.332   2.685  64.630  1.00  0.00    -0.133 OA 
ENDBRANCH  18  19
ENDBRANCH  15  17
ENDBRANCH  13  14
ENDBRANCH   7  12
ENDBRANCH   2   3
TORSDOF 5
ENDMDL
MODEL       12
REMARK 921   NORMALIZED FREE ENERGY PREDICTED BY IDOCK:   -5.93 KCAL/MOL
REMARK 922        TOTAL FREE ENERGY PREDICTED BY IDOCK:   -8.46 KCAL/MOL
REMARK 923 INTER-LIGAND FREE ENERGY PREDICTED BY IDOCK:   -7.77 KCAL/MOL
REMARK 924 INTRA-LIGAND FREE ENERGY PREDICTED BY IDOCK:   -0.69 KCAL/MOL
REMARK 927      BINDING AFFINITY PREDICTED BY RF-SCORE:    0.00 PKD
ROOT
HETATM    1  C   UNL     1     -10.269   4.816  74.550  1.00  0.00    -0.264 C  
HETATM    2  O   UNL     1     -10.447   4.128  73.316  1.00  0.00    -0.152 OA 
ENDROOT
BRANCH   2   3
HETATM    3  C   UNL     1     -10.633   4.925  72.214  1.00  0.00    -0.185 A  
HETATM    4  C   UNL     1      -9.959   4.573  71.030  1.00  0.00    -0.257 A  
HETATM    5  C   UNL     1      -9.082   3.343  71.003  1.00  0.00    -0.182 C  
HETATM    6  C   UNL     1     -10.106   5.390  69.872  1.00  0.00    -0.322 A  
HETATM    7  C   UNL     1     -10.916   6.561  69.923  1.00  0.00    -0.393 A  
HETATM    8  C   UNL     1      -9.384   5.049  68.586  1.00  0.00    -0.173 C  
HETATM    9  C   UNL     1     -11.402   6.087  72.253  1.00  0.00    -0.353 A  
HETATM   10  C   UNL     1     -11.557   6.911  71.127  1.00  0.00    -0.363 A  
HETATM   11  C   UNL     1     -12.395   8.147  71.326  1.00  0.00    -0.285 C  
BRANCH   7  12
HETATM   12  C   UNL     1     -10.989   7.455  68.746  1.00  0.00     0.002 C  
HETATM   13  C   UNL     1     -10.413   8.668  68.672  1.00  0.00    -0.208 C  
BRANCH  13  14
HETATM   14  C   UNL     1     -10.516   9.626  67.562  1.00  0.00    -0.321 C  
HETATM   15  C   UNL     1     -11.192  10.787  67.732  1.00  0.00    -0.385 C  
HETATM   16  C   UNL     1      -9.892   9.291  66.224  1.00  0.00    -0.361 C  
BRANCH  15  17
HETATM   17  C   UNL     1     -11.354  11.803  66.704  1.00  0.00    -0.381 C  
HETATM   18  C   UNL     1     -11.334  13.131  66.905  1.00  0.00    -0.355 C  
BRANCH  18  19
HETATM   19  C   UNL     1     -11.462  14.082  65.804  1.00  0.00    -0.318 C  
HETATM   20  C   UNL     1     -12.233  13.596  64.606  1.00  0.00    -0.448 C  
HETATM   21  C   UNL     1     -10.905  15.308  65.907  1.00  0.00    -0.345 C  
HETATM   22  C   UNL     1     -10.936  16.340  64.847  1.00  0.00    -0.307 C  
HETATM   23  O   UNL     1     -10.267  17.453  65.214  1.00  0.00    -0.522 OA 
HETATM   24  O   UNL     1     -11.477  16.229  63.760  1.00  0.00    -0.888 OA 
ENDBRANCH  18  19
ENDBRANCH  15  17
ENDBRANCH  13  14
ENDBRANCH   7  12
ENDBRANCH   2   3
TORSDOF 5
ENDMDL
MODEL       13
REMARK 921   NORMALIZED FREE ENERGY PREDICTED BY IDOCK:   -5.93 KCAL/MOL
REMARK 922        TOTAL FREE ENERGY PREDICTED BY IDOCK:   -8.45 KCAL/MOL
REMARK 923 INTER-LIGAND FREE ENERGY PREDICTED BY IDOCK:   -7.64 KCAL/MOL
REMARK 924 INTRA-LIGAND FREE ENERGY PREDICTED BY IDOCK:   -0.80 KCAL/MOL
REMARK 927      BINDING AFFINITY PREDICTED BY RF-SCORE:    0.00 PKD
ROOT
HETATM    1  C   UNL     1     -10.170   4.715  74.307  1.00  0.00    -0.237 C  
HETATM    2  O   UNL     1     -10.890   4.437  73.109  1.00  0.00    -0.210 OA 
ENDROOT
BRANCH   2   3
HETATM    3  C   UNL     1     -10.963   5.469  72.207  1.00  0.00    -0.239 A  
HETATM    4  C   UNL     1     -10.213   5.357  71.022  1.00  0.00    -0.296 A  
HETATM    5  C   UNL     1      -9.382   4.120  70.775  1.00  0.00    -0.223 C  
HETATM    6  C   UNL     1     -10.243   6.418  70.073  1.00  0.00    -0.221 A  
HETATM    7  C   UNL     1     -11.011   7.589  70.335  1.00  0.00    -0.264 A  
HETATM    8  C   UNL     1      -9.436   6.338  68.794  1.00  0.00    -0.124 C  
HETATM    9  C   UNL     1     -11.690   6.631  72.459  1.00  0.00    -0.200 A  
HETATM   10  C   UNL     1     -11.730   7.694  71.541  1.00  0.00    -0.310 A  
HETATM   11  C   UNL     1     -12.535   8.895  71.960  1.00  0.00    -0.461 C  
BRANCH   7  12
HETATM   12  C   UNL     1     -10.962   8.727  69.389  1.00  0.00    -0.046 C  
HETATM   13  C   UNL     1     -10.215   9.832  69.562  1.00  0.00    -0.238 C  
BRANCH  13  14
HETATM   14  C   UNL     1     -10.185  11.020  68.698  1.00  0.00    -0.211 C  
HETATM   15  C   UNL     1     -11.330  11.475  68.135  1.00  0.00    -0.367 C  
HETATM   16  C   UNL     1      -8.866  11.706  68.415  1.00  0.00    -0.161 C  
BRANCH  15  17
HETATM   17  C   UNL     1     -11.414  12.638  67.266  1.00  0.00    -0.402 C  
HETATM   18  C   UNL     1     -11.507  12.610  65.926  1.00  0.00    -0.407 C  
BRANCH  18  19
HETATM   19  C   UNL     1     -11.632  13.831  65.134  1.00  0.00    -0.341 C  
HETATM   20  C   UNL     1     -12.340  13.684  63.814  1.00  0.00    -0.357 C  
HETATM   21  C   UNL     1     -11.127  14.991  65.604  1.00  0.00    -0.349 C  
HETATM   22  C   UNL     1     -11.160  16.280  64.878  1.00  0.00    -0.290 C  
HETATM   23  O   UNL     1     -10.548  17.261  65.574  1.00  0.00    -0.580 OA 
HETATM   24  O   UNL     1     -11.657  16.467  63.781  1.00  0.00    -1.109 OA 
ENDBRANCH  18  19
ENDBRANCH  15  17
ENDBRANCH  13  14
ENDBRANCH   7  12
ENDBRANCH   2   3
TORSDOF 5
ENDMDL
MODEL       14
REMARK 921   NORMALIZED FREE ENERGY PREDICTED BY IDOCK:   -5.90 KCAL/MOL
REMARK 922        TOTAL FREE ENERGY PREDICTED BY IDOCK:   -8.41 KCAL/MOL
REMARK 923 INTER-LIGAND FREE ENERGY PREDICTED BY IDOCK:   -7.77 KCAL/MOL
REMARK 924 INTRA-LIGAND FREE ENERGY PREDICTED BY IDOCK:   -0.64 KCAL/MOL
REMARK 927      BINDING AFFINITY PREDICTED BY RF-SCORE:    0.00 PKD
ROOT
HETATM    1  C   UNL     1      -9.272   3.227  71.934  1.00  0.00    -0.117 C  
HETATM    2  O   UNL     1      -9.272   3.024  70.523  1.00  0.00    -0.112 OA 
ENDROOT
BRANCH   2   3
HETATM    3  C   UNL     1      -9.688   4.094  69.771  1.00  0.00    -0.208 A  
HETATM    4  C   UNL     1      -9.523   4.016  68.375  1.00  0.00    -0.211 A  
HETATM    5  C   UNL     1      -8.922   2.776  67.759  1.00  0.00    -0.197 C  
HETATM    6  C   UNL     1      -9.920   5.117  67.562  1.00  0.00    -0.211 A  
HETATM    7  C   UNL     1     -10.460   6.291  68.163  1.00  0.00    -0.278 A  
HETATM    8  C   UNL     1      -9.743   5.074  66.059  1.00  0.00    -0.194 C  
HETATM    9  C   UNL     1     -10.196   5.258  70.344  1.00  0.00    -0.338 A  
HETATM   10  C   UNL     1     -10.588   6.359  69.564  1.00  0.00    -0.308 A  
HETATM   11  C   UNL     1     -11.093   7.557  70.323  1.00  0.00    -0.263 C  
BRANCH   7  12
HETATM   12  C   UNL     1     -10.781   7.465  67.321  1.00  0.00    -0.379 C  
HETATM   13  C   UNL     1      -9.984   8.538  67.172  1.00  0.00    -0.304 C  
BRANCH  13  14
HETATM   14  C   UNL     1     -10.284   9.760  66.413  1.00  0.00    -0.288 C  
HETATM   15  C   UNL     1     -11.015  10.747  66.984  1.00  0.00    -0.292 C  
HETATM   16  C   UNL     1      -9.801   9.891  64.985  1.00  0.00    -0.323 C  
BRANCH  15  17
HETATM   17  C   UNL     1     -11.369  11.995  66.325  1.00  0.00    -0.415 C  
HETATM   18  C   UNL     1     -10.516  12.982  66.007  1.00  0.00    -0.289 C  
BRANCH  18  19
HETATM   19  C   UNL     1     -10.953  14.186  65.304  1.00  0.00    -0.339 C  
HETATM   20  C   UNL     1     -11.915  13.967  64.168  1.00  0.00    -0.439 C  
HETATM   21  C   UNL     1     -10.492  15.395  65.693  1.00  0.00    -0.391 C  
HETATM   22  C   UNL     1     -10.833  16.677  65.037  1.00  0.00    -0.176 C  
HETATM   23  O   UNL     1     -10.198  17.717  65.616  1.00  0.00    -0.590 OA 
HETATM   24  O   UNL     1     -11.579  16.813  64.083  1.00  0.00    -1.106 OA 
ENDBRANCH  18  19
ENDBRANCH  15  17
ENDBRANCH  13  14
ENDBRANCH   7  12
ENDBRANCH   2   3
TORSDOF 5
ENDMDL
MODEL       15
REMARK 921   NORMALIZED FREE ENERGY PREDICTED BY IDOCK:   -5.86 KCAL/MOL
REMARK 922        TOTAL FREE ENERGY PREDICTED BY IDOCK:   -8.36 KCAL/MOL
REMARK 923 INTER-LIGAND FREE ENERGY PREDICTED BY IDOCK:   -7.59 KCAL/MOL
REMARK 924 INTRA-LIGAND FREE ENERGY PREDICTED BY IDOCK:   -0.76 KCAL/MOL
REMARK 927      BINDING AFFINITY PREDICTED BY RF-SCORE:    0.00 PKD
ROOT
HETATM    1  C   UNL     1     -10.651  18.475  65.813  1.00  0.00    -0.231 C  
HETATM    2  O   UNL     1     -10.772  17.214  65.161  1.00  0.00    -0.680 OA 
ENDROOT
BRANCH   2   3
HETATM    3  C   UNL     1     -10.702  16.114  65.980  1.00  0.00    -0.241 A  
HETATM    4  C   UNL     1     -11.331  14.933  65.544  1.00  0.00    -0.339 A  
HETATM    5  C   UNL     1     -12.035  14.907  64.209  1.00  0.00    -0.355 C  
HETATM    6  C   UNL     1     -11.302  13.778  66.378  1.00  0.00    -0.327 A  
HETATM    7  C   UNL     1     -10.656  13.829  67.647  1.00  0.00    -0.244 A  
HETATM    8  C   UNL     1     -11.981  12.495  65.948  1.00  0.00    -0.472 C  
HETATM    9  C   UNL     1     -10.096  16.154  67.234  1.00  0.00    -0.265 A  
HETATM   10  C   UNL     1     -10.059  15.030  68.076  1.00  0.00    -0.223 A  
HETATM   11  C   UNL     1      -9.394  15.230  69.412  1.00  0.00    -0.228 C  
BRANCH   7  12
HETATM   12  C   UNL     1     -10.711  12.655  68.546  1.00  0.00    -0.271 C  
HETATM   13  C   UNL     1     -11.715  12.397  69.403  1.00  0.00    -0.384 C  
BRANCH  13  14
HETATM   14  C   UNL     1     -11.787  11.292  70.370  1.00  0.00    -0.443 C  
HETATM   15  C   UNL     1     -10.937  10.243  70.260  1.00  0.00    -0.375 C  
HETATM   16  C   UNL     1     -12.835  11.319  71.461  1.00  0.00    -0.519 C  
BRANCH  15  17
HETATM   17  C   UNL     1     -10.921   9.100  71.159  1.00  0.00    -0.390 C  
HETATM   18  C   UNL     1     -10.810   7.813  70.789  1.00  0.00    -0.245 C  
BRANCH  18  19
HETATM   19  C   UNL     1     -10.758   6.729  71.766  1.00  0.00    -0.250 C  
HETATM   20  C   UNL     1     -11.034   7.119  73.193  1.00  0.00    -0.344 C  
HETATM   21  C   UNL     1     -10.475   5.472  71.359  1.00  0.00    -0.305 C  
HETATM   22  C   UNL     1     -10.358   4.302  72.257  1.00  0.00    -0.143 C  
HETATM   23  O   UNL     1     -10.032   3.182  71.579  1.00  0.00    -0.160 OA 
HETATM   24  O   UNL     1     -10.517   4.313  73.466  1.00  0.00    -0.160 OA 
ENDBRANCH  18  19
ENDBRANCH  15  17
ENDBRANCH  13  14
ENDBRANCH   7  12
ENDBRANCH   2   3
TORSDOF 5
ENDMDL
MODEL       16
REMARK 921   NORMALIZED FREE ENERGY PREDICTED BY IDOCK:   -5.83 KCAL/MOL
REMARK 922        TOTAL FREE ENERGY PREDICTED BY IDOCK:   -8.32 KCAL/MOL
REMARK 923 INTER-LIGAND FREE ENERGY PREDICTED BY IDOCK:   -7.58 KCAL/MOL
REMARK 924 INTRA-LIGAND FREE ENERGY PREDICTED BY IDOCK:   -0.75 KCAL/MOL
REMARK 927      BINDING AFFINITY PREDICTED BY RF-SCORE:    0.00 PKD
ROOT
HETATM    1  C   UNL     1     -10.598  18.765  65.962  1.00  0.00    -0.386 C  
HETATM    2  O   UNL     1     -10.631  17.503  65.302  1.00  0.00    -0.664 OA 
ENDROOT
BRANCH   2   3
HETATM    3  C   UNL     1     -10.639  16.404  66.124  1.00  0.00    -0.255 A  
HETATM    4  C   UNL     1     -11.247  15.230  65.642  1.00  0.00    -0.256 A  
HETATM    5  C   UNL     1     -11.844  15.210  64.255  1.00  0.00    -0.263 C  
HETATM    6  C   UNL     1     -11.297  14.076  66.476  1.00  0.00    -0.343 A  
HETATM    7  C   UNL     1     -10.752  14.121  67.791  1.00  0.00    -0.251 A  
HETATM    8  C   UNL     1     -11.956  12.800  65.995  1.00  0.00    -0.491 C  
HETATM    9  C   UNL     1     -10.132  16.438  67.422  1.00  0.00    -0.262 A  
HETATM   10  C   UNL     1     -10.176  15.315  68.265  1.00  0.00    -0.226 A  
HETATM   11  C   UNL     1      -9.615  15.509  69.649  1.00  0.00    -0.264 C  
BRANCH   7  12
HETATM   12  C   UNL     1     -10.892  12.949  68.684  1.00  0.00    -0.288 C  
HETATM   13  C   UNL     1     -11.895  12.775  69.564  1.00  0.00    -0.379 C  
BRANCH  13  14
HETATM   14  C   UNL     1     -12.044  11.673  70.525  1.00  0.00    -0.458 C  
HETATM   15  C   UNL     1     -11.330  10.534  70.361  1.00  0.00    -0.411 C  
HETATM   16  C   UNL     1     -13.021  11.808  71.673  1.00  0.00    -0.467 C  
BRANCH  15  17
HETATM   17  C   UNL     1     -11.399   9.384  71.249  1.00  0.00    -0.436 C  
HETATM   18  C   UNL     1     -11.092   8.119  70.919  1.00  0.00    -0.280 C  
BRANCH  18  19
HETATM   19  C   UNL     1     -11.148   7.030  71.891  1.00  0.00    -0.274 C  
HETATM   20  C   UNL     1     -12.467   6.312  71.992  1.00  0.00    -0.127 C  
HETATM   21  C   UNL     1     -10.056   6.728  72.625  1.00  0.00    -0.193 C  
HETATM   22  C   UNL     1     -10.003   5.675  73.663  1.00  0.00    -0.184 C  
HETATM   23  O   UNL     1      -8.794   5.621  74.259  1.00  0.00    -0.121 OA 
HETATM   24  O   UNL     1     -10.921   4.937  73.976  1.00  0.00    -0.295 OA 
ENDBRANCH  18  19
ENDBRANCH  15  17
ENDBRANCH  13  14
ENDBRANCH   7  12
ENDBRANCH   2   3
TORSDOF 5
ENDMDL
MODEL       17
REMARK 921   NORMALIZED FREE ENERGY PREDICTED BY IDOCK:   -5.79 KCAL/MOL
REMARK 922        TOTAL FREE ENERGY PREDICTED BY IDOCK:   -8.27 KCAL/MOL
REMARK 923 INTER-LIGAND FREE ENERGY PREDICTED BY IDOCK:   -7.49 KCAL/MOL
REMARK 924 INTRA-LIGAND FREE ENERGY PREDICTED BY IDOCK:   -0.78 KCAL/MOL
REMARK 927      BINDING AFFINITY PREDICTED BY RF-SCORE:    0.00 PKD
ROOT
HETATM    1  C   UNL     1     -10.123   4.848  69.649  1.00  0.00    -0.230 C  
HETATM    2  O   UNL     1     -11.157   5.734  70.069  1.00  0.00    -0.348 OA 
ENDROOT
BRANCH   2   3
HETATM    3  C   UNL     1     -10.989   7.050  69.715  1.00  0.00    -0.250 A  
HETATM    4  C   UNL     1     -11.451   8.033  70.610  1.00  0.00    -0.237 A  
HETATM    5  C   UNL     1     -12.088   7.618  71.915  1.00  0.00    -0.333 C  
HETATM    6  C   UNL     1     -11.318   9.409  70.267  1.00  0.00    -0.261 A  
HETATM    7  C   UNL     1     -10.738   9.781  69.020  1.00  0.00    -0.238 A  
HETATM    8  C   UNL     1     -11.817  10.492  71.200  1.00  0.00    -0.391 C  
HETATM    9  C   UNL     1     -10.447   7.431  68.489  1.00  0.00    -0.215 A  
HETATM   10  C   UNL     1     -10.311   8.781  68.125  1.00  0.00    -0.266 A  
HETATM   11  C   UNL     1      -9.732   9.040  66.759  1.00  0.00    -0.279 C  
BRANCH   7  12
HETATM   12  C   UNL     1     -10.689  11.208  68.630  1.00  0.00    -0.234 C  
HETATM   13  C   UNL     1     -11.588  11.812  67.832  1.00  0.00    -0.377 C  
BRANCH  13  14
HETATM   14  C   UNL     1     -11.548  13.201  67.353  1.00  0.00    -0.403 C  
HETATM   15  C   UNL     1     -10.740  14.102  67.961  1.00  0.00    -0.248 C  
HETATM   16  C   UNL     1     -12.438  13.622  66.204  1.00  0.00    -0.449 C  
BRANCH  15  17
HETATM   17  C   UNL     1     -10.622  15.497  67.569  1.00  0.00    -0.297 C  
HETATM   18  C   UNL     1     -10.456  16.535  68.406  1.00  0.00    -0.307 C  
BRANCH  18  19
HETATM   19  C   UNL     1     -10.303  17.904  67.921  1.00  0.00    -0.396 C  
HETATM   20  C   UNL     1      -9.803  18.903  68.929  1.00  0.00    -0.447 C  
HETATM   21  C   UNL     1     -10.604  18.200  66.638  1.00  0.00    -0.296 C  
HETATM   22  C   UNL     1     -10.524  19.552  66.044  1.00  0.00    -0.516 C  
HETATM   23  O   UNL     1     -10.919  19.555  64.753  1.00  0.00    -0.119 OA 
HETATM   24  O   UNL     1     -10.164  20.564  66.621  1.00  0.00    -0.357 OA 
ENDBRANCH  18  19
ENDBRANCH  15  17
ENDBRANCH  13  14
ENDBRANCH   7  12
ENDBRANCH   2   3
TORSDOF 5
ENDMDL
MODEL       18
REMARK 921   NORMALIZED FREE ENERGY PREDICTED BY IDOCK:   -5.77 KCAL/MOL
REMARK 922        TOTAL FREE ENERGY PREDICTED BY IDOCK:   -8.24 KCAL/MOL
REMARK 923 INTER-LIGAND FREE ENERGY PREDICTED BY IDOCK:   -7.45 KCAL/MOL
REMARK 924 INTRA-LIGAND FREE ENERGY PREDICTED BY IDOCK:   -0.79 KCAL/MOL
REMARK 927      BINDING AFFINITY PREDICTED BY RF-SCORE:    0.00 PKD
ROOT
HETATM    1  C   UNL     1      -7.472   1.824  67.788  1.00  0.00    -0.054 C  
HETATM    2  O   UNL     1      -8.836   2.115  67.497  1.00  0.00    -0.110 OA 
ENDROOT
BRANCH   2   3
HETATM    3  C   UNL     1      -9.353   3.222  68.121  1.00  0.00    -0.187 A  
HETATM    4  C   UNL     1      -9.864   4.252  67.311  1.00  0.00    -0.193 A  
HETATM    5  C   UNL     1      -9.845   4.103  65.808  1.00  0.00    -0.207 C  
HETATM    6  C   UNL     1     -10.386   5.429  67.921  1.00  0.00    -0.222 A  
HETATM    7  C   UNL     1     -10.371   5.564  69.340  1.00  0.00    -0.348 A  
HETATM    8  C   UNL     1     -10.930   6.563  67.079  1.00  0.00    -0.466 C  
HETATM    9  C   UNL     1      -9.324   3.380  69.506  1.00  0.00    -0.240 A  
HETATM   10  C   UNL     1      -9.827   4.534  70.131  1.00  0.00    -0.296 A  
HETATM   11  C   UNL     1      -9.704   4.576  71.631  1.00  0.00    -0.241 C  
BRANCH   7  12
HETATM   12  C   UNL     1     -10.827   6.827  69.962  1.00  0.00    -0.311 C  
HETATM   13  C   UNL     1     -12.022   6.997  70.556  1.00  0.00    -0.315 C  
BRANCH  13  14
HETATM   14  C   UNL     1     -12.556   8.245  71.120  1.00  0.00    -0.152 C  
HETATM   15  C   UNL     1     -11.887   9.409  70.938  1.00  0.00    -0.365 C  
HETATM   16  C   UNL     1     -13.833   8.213  71.930  1.00  0.00    -0.424 C  
BRANCH  15  17
HETATM   17  C   UNL     1     -12.324  10.697  71.451  1.00  0.00    -0.455 C  
HETATM   18  C   UNL     1     -12.224  11.872  70.807  1.00  0.00    -0.401 C  
BRANCH  18  19
HETATM   19  C   UNL     1     -12.730  13.115  71.382  1.00  0.00    -0.390 C  
HETATM   20  C   UNL     1     -13.972  12.989  72.224  1.00  0.00    -0.421 C  
HETATM   21  C   UNL     1     -12.086  14.278  71.142  1.00  0.00    -0.409 C  
HETATM   22  C   UNL     1     -12.524  15.602  71.636  1.00  0.00    -0.438 C  
HETATM   23  O   UNL     1     -11.708  16.588  71.210  1.00  0.00    -0.326 OA 
HETATM   24  O   UNL     1     -13.501  15.814  72.333  1.00  0.00    -0.477 OA 
ENDBRANCH  18  19
ENDBRANCH  15  17
ENDBRANCH  13  14
ENDBRANCH   7  12
ENDBRANCH   2   3
TORSDOF 5
ENDMDL
MODEL       19
REMARK 921   NORMALIZED FREE ENERGY PREDICTED BY IDOCK:   -5.76 KCAL/MOL
REMARK 922        TOTAL FREE ENERGY PREDICTED BY IDOCK:   -8.24 KCAL/MOL
REMARK 923 INTER-LIGAND FREE ENERGY PREDICTED BY IDOCK:   -7.42 KCAL/MOL
REMARK 924 INTRA-LIGAND FREE ENERGY PREDICTED BY IDOCK:   -0.82 KCAL/MOL
REMARK 927      BINDING AFFINITY PREDICTED BY RF-SCORE:    0.00 PKD
ROOT
HETATM    1  C   UNL     1      -9.257   2.687  71.415  1.00  0.00    -0.119 C  
HETATM    2  O   UNL     1     -10.108   3.670  71.998  1.00  0.00    -0.173 OA 
ENDROOT
BRANCH   2   3
HETATM    3  C   UNL     1     -10.084   4.905  71.399  1.00  0.00    -0.198 A  
HETATM    4  C   UNL     1      -9.728   6.011  72.193  1.00  0.00    -0.171 A  
HETATM    5  C   UNL     1      -9.374   5.807  73.647  1.00  0.00    -0.137 C  
HETATM    6  C   UNL     1      -9.717   7.312  71.614  1.00  0.00    -0.166 A  
HETATM    7  C   UNL     1     -10.080   7.489  70.248  1.00  0.00    -0.194 A  
HETATM    8  C   UNL     1      -9.354   8.526  72.443  1.00  0.00    -0.349 C  
HETATM    9  C   UNL     1     -10.459   5.099  70.071  1.00  0.00    -0.305 A  
HETATM   10  C   UNL     1     -10.462   6.373  69.479  1.00  0.00    -0.279 A  
HETATM   11  C   UNL     1     -10.916   6.432  68.045  1.00  0.00    -0.400 C  
BRANCH   7  12
HETATM   12  C   UNL     1     -10.157   8.854  69.680  1.00  0.00    -0.202 C  
HETATM   13  C   UNL     1     -11.259   9.624  69.692  1.00  0.00    -0.176 C  
BRANCH  13  14
HETATM   14  C   UNL     1     -11.414  10.951  69.078  1.00  0.00    -0.371 C  
HETATM   15  C   UNL     1     -11.041  11.147  67.791  1.00  0.00    -0.344 C  
HETATM   16  C   UNL     1     -11.958  12.098  69.902  1.00  0.00    -0.380 C  
BRANCH  15  17
HETATM   17  C   UNL     1     -11.150  12.415  67.087  1.00  0.00    -0.328 C  
HETATM   18  C   UNL     1     -10.123  13.201  66.725  1.00  0.00    -0.253 C  
BRANCH  18  19
HETATM   19  C   UNL     1     -10.323  14.441  65.979  1.00  0.00    -0.319 C  
HETATM   20  C   UNL     1      -9.271  15.500  66.176  1.00  0.00    -0.379 C  
HETATM   21  C   UNL     1     -11.401  14.576  65.176  1.00  0.00    -0.366 C  
HETATM   22  C   UNL     1     -11.729  15.793  64.403  1.00  0.00    -0.201 C  
HETATM   23  O   UNL     1     -12.883  15.654  63.718  1.00  0.00    -0.536 OA 
HETATM   24  O   UNL     1     -11.068  16.818  64.373  1.00  0.00    -1.072 OA 
ENDBRANCH  18  19
ENDBRANCH  15  17
ENDBRANCH  13  14
ENDBRANCH   7  12
ENDBRANCH   2   3
TORSDOF 5
ENDMDL
MODEL       20
REMARK 921   NORMALIZED FREE ENERGY PREDICTED BY IDOCK:   -5.75 KCAL/MOL
REMARK 922        TOTAL FREE ENERGY PREDICTED BY IDOCK:   -8.21 KCAL/MOL
REMARK 923 INTER-LIGAND FREE ENERGY PREDICTED BY IDOCK:   -7.39 KCAL/MOL
REMARK 924 INTRA-LIGAND FREE ENERGY PREDICTED BY IDOCK:   -0.82 KCAL/MOL
REMARK 927      BINDING AFFINITY PREDICTED BY RF-SCORE:    0.00 PKD
ROOT
HETATM    1  C   UNL     1      -9.164   3.963  71.007  1.00  0.00    -0.130 C  
HETATM    2  O   UNL     1     -10.223   4.349  70.136  1.00  0.00    -0.180 OA 
ENDROOT
BRANCH   2   3
HETATM    3  C   UNL     1     -10.338   5.697  69.903  1.00  0.00    -0.277 A  
HETATM    4  C   UNL     1     -10.313   6.134  68.565  1.00  0.00    -0.248 A  
HETATM    5  C   UNL     1     -10.180   5.125  67.449  1.00  0.00    -0.224 C  
HETATM    6  C   UNL     1     -10.404   7.527  68.284  1.00  0.00    -0.233 A  
HETATM    7  C   UNL     1     -10.502   8.467  69.351  1.00  0.00    -0.222 A  
HETATM    8  C   UNL     1     -10.365   8.034  66.857  1.00  0.00    -0.408 C  
HETATM    9  C   UNL     1     -10.410   6.630  70.935  1.00  0.00    -0.237 A  
HETATM   10  C   UNL     1     -10.495   8.010  70.683  1.00  0.00    -0.219 A  
HETATM   11  C   UNL     1     -10.539   8.900  71.896  1.00  0.00    -0.419 C  
BRANCH   7  12
HETATM   12  C   UNL     1     -10.501   9.917  69.054  1.00  0.00    -0.227 C  
HETATM   13  C   UNL     1     -11.603  10.687  69.006  1.00  0.00    -0.332 C  
BRANCH  13  14
HETATM   14  C   UNL     1     -11.669  12.109  68.643  1.00  0.00    -0.382 C  
HETATM   15  C   UNL     1     -11.573  12.480  67.344  1.00  0.00    -0.434 C  
HETATM   16  C   UNL     1     -11.810  13.153  69.730  1.00  0.00    -0.386 C  
BRANCH  15  17
HETATM   17  C   UNL     1     -11.626  13.856  66.875  1.00  0.00    -0.400 C  
HETATM   18  C   UNL     1     -10.609  14.533  66.317  1.00  0.00    -0.304 C  
BRANCH  18  19
HETATM   19  C   UNL     1     -10.764  15.902  65.833  1.00  0.00    -0.303 C  
HETATM   20  C   UNL     1     -11.481  16.054  64.518  1.00  0.00    -0.274 C  
HETATM   21  C   UNL     1     -10.277  16.931  66.559  1.00  0.00    -0.320 C  
HETATM   22  C   UNL     1     -10.341  18.353  66.156  1.00  0.00    -0.407 C  
HETATM   23  O   UNL     1      -9.742  19.156  67.059  1.00  0.00    -0.306 OA 
HETATM   24  O   UNL     1     -10.851  18.781  65.135  1.00  0.00    -0.523 OA 
ENDBRANCH  18  19
ENDBRANCH  15  17
ENDBRANCH  13  14
ENDBRANCH   7  12
ENDBRANCH   2   3
TORSDOF 5
ENDMDL
MODEL       21
REMARK 921   NORMALIZED FREE ENERGY PREDICTED BY IDOCK:   -5.73 KCAL/MOL
REMARK 922        TOTAL FREE ENERGY PREDICTED BY IDOCK:   -8.19 KCAL/MOL
REMARK 923 INTER-LIGAND FREE ENERGY PREDICTED BY IDOCK:   -7.50 KCAL/MOL
REMARK 924 INTRA-LIGAND FREE ENERGY PREDICTED BY IDOCK:   -0.69 KCAL/MOL
REMARK 927      BINDING AFFINITY PREDICTED BY RF-SCORE:    0.00 PKD
ROOT
HETATM    1  C   UNL     1     -10.828   3.642  73.904  1.00  0.00    -0.221 C  
HETATM    2  O   UNL     1      -9.715   4.314  73.321  1.00  0.00    -0.123 OA 
ENDROOT
BRANCH   2   3
HETATM    3  C   UNL     1      -9.993   5.524  72.735  1.00  0.00    -0.170 A  
HETATM    4  C   UNL     1      -8.924   6.417  72.539  1.00  0.00    -0.136 A  
HETATM    5  C   UNL     1      -7.528   6.019  72.955  1.00  0.00    -0.094 C  
HETATM    6  C   UNL     1      -9.176   7.692  71.957  1.00  0.00    -0.176 A  
HETATM    7  C   UNL     1     -10.504   8.062  71.595  1.00  0.00    -0.272 A  
HETATM    8  C   UNL     1      -8.052   8.684  71.745  1.00  0.00    -0.170 C  
HETATM    9  C   UNL     1     -11.289   5.910  72.398  1.00  0.00    -0.358 A  
HETATM   10  C   UNL     1     -11.564   7.165  71.828  1.00  0.00    -0.314 A  
HETATM   11  C   UNL     1     -13.013   7.454  71.541  1.00  0.00    -0.421 C  
BRANCH   7  12
HETATM   12  C   UNL     1     -10.772   9.423  71.079  1.00  0.00    -0.407 C  
HETATM   13  C   UNL     1     -11.043   9.712  69.793  1.00  0.00    -0.247 C  
BRANCH  13  14
HETATM   14  C   UNL     1     -11.242  11.048  69.213  1.00  0.00    -0.321 C  
HETATM   15  C   UNL     1     -10.693  11.351  68.013  1.00  0.00    -0.240 C  
HETATM   16  C   UNL     1     -12.031  12.087  69.980  1.00  0.00    -0.400 C  
BRANCH  15  17
HETATM   17  C   UNL     1     -10.826  12.637  67.348  1.00  0.00    -0.272 C  
HETATM   18  C   UNL     1      -9.980  13.137  66.432  1.00  0.00    -0.282 C  
BRANCH  18  19
HETATM   19  C   UNL     1     -10.216  14.424  65.782  1.00  0.00    -0.355 C  
HETATM   20  C   UNL     1      -9.153  15.468  65.992  1.00  0.00    -0.316 C  
HETATM   21  C   UNL     1     -11.335  14.611  65.048  1.00  0.00    -0.390 C  
HETATM   22  C   UNL     1     -11.700  15.877  64.376  1.00  0.00    -0.179 C  
HETATM   23  O   UNL     1     -12.890  15.783  63.747  1.00  0.00    -0.506 OA 
HETATM   24  O   UNL     1     -11.039  16.901  64.379  1.00  0.00    -1.128 OA 
ENDBRANCH  18  19
ENDBRANCH  15  17
ENDBRANCH  13  14
ENDBRANCH   7  12
ENDBRANCH   2   3
TORSDOF 5
ENDMDL
MODEL       22
REMARK 921   NORMALIZED FREE ENERGY PREDICTED BY IDOCK:   -5.72 KCAL/MOL
REMARK 922        TOTAL FREE ENERGY PREDICTED BY IDOCK:   -8.18 KCAL/MOL
REMARK 923 INTER-LIGAND FREE ENERGY PREDICTED BY IDOCK:   -7.38 KCAL/MOL
REMARK 924 INTRA-LIGAND FREE ENERGY PREDICTED BY IDOCK:   -0.81 KCAL/MOL
REMARK 927      BINDING AFFINITY PREDICTED BY RF-SCORE:    0.00 PKD
ROOT
HETATM    1  C   UNL     1     -10.048   4.769  66.735  1.00  0.00    -0.229 C  
HETATM    2  O   UNL     1     -10.840   5.373  67.755  1.00  0.00    -0.115 OA 
ENDROOT
BRANCH   2   3
HETATM    3  C   UNL     1     -10.686   6.729  67.900  1.00  0.00    -0.256 A  
HETATM    4  C   UNL     1     -10.906   7.279  69.177  1.00  0.00    -0.156 A  
HETATM    5  C   UNL     1     -11.281   6.377  70.328  1.00  0.00    -0.445 C  
HETATM    6  C   UNL     1     -10.781   8.686  69.362  1.00  0.00    -0.169 A  
HETATM    7  C   UNL     1     -10.454   9.525  68.258  1.00  0.00    -0.265 A  
HETATM    8  C   UNL     1     -11.026   9.314  70.718  1.00  0.00    -0.349 C  
HETATM    9  C   UNL     1     -10.390   7.567  66.827  1.00  0.00    -0.332 A  
HETATM   10  C   UNL     1     -10.267   8.957  66.983  1.00  0.00    -0.345 A  
HETATM   11  C   UNL     1      -9.971   9.737  65.730  1.00  0.00    -0.349 C  
BRANCH   7  12
HETATM   12  C   UNL     1     -10.419  10.994  68.439  1.00  0.00    -0.203 C  
HETATM   13  C   UNL     1     -11.447  11.820  68.176  1.00  0.00    -0.382 C  
BRANCH  13  14
HETATM   14  C   UNL     1     -11.444  13.287  68.264  1.00  0.00    -0.351 C  
HETATM   15  C   UNL     1     -10.772  14.018  67.341  1.00  0.00    -0.285 C  
HETATM   16  C   UNL     1     -12.164  13.970  69.406  1.00  0.00    -0.336 C  
BRANCH  15  17
HETATM   17  C   UNL     1     -10.703  15.470  67.333  1.00  0.00    -0.301 C  
HETATM   18  C   UNL     1      -9.598  16.203  67.543  1.00  0.00    -0.229 C  
BRANCH  18  19
HETATM   19  C   UNL     1      -9.612  17.662  67.473  1.00  0.00    -0.267 C  
HETATM   20  C   UNL     1      -8.879  18.378  68.576  1.00  0.00    -0.336 C  
HETATM   21  C   UNL     1     -10.256  18.280  66.459  1.00  0.00    -0.409 C  
HETATM   22  C   UNL     1     -10.371  19.746  66.302  1.00  0.00    -0.519 C  
HETATM   23  O   UNL     1     -11.102  20.077  65.217  1.00  0.00    -0.301 OA 
HETATM   24  O   UNL     1      -9.890  20.582  67.047  1.00  0.00    -0.449 OA 
ENDBRANCH  18  19
ENDBRANCH  15  17
ENDBRANCH  13  14
ENDBRANCH   7  12
ENDBRANCH   2   3
TORSDOF 5
ENDMDL
MODEL       23
REMARK 921   NORMALIZED FREE ENERGY PREDICTED BY IDOCK:   -5.71 KCAL/MOL
REMARK 922        TOTAL FREE ENERGY PREDICTED BY IDOCK:   -8.17 KCAL/MOL
REMARK 923 INTER-LIGAND FREE ENERGY PREDICTED BY IDOCK:   -7.43 KCAL/MOL
REMARK 924 INTRA-LIGAND FREE ENERGY PREDICTED BY IDOCK:   -0.74 KCAL/MOL
REMARK 927      BINDING AFFINITY PREDICTED BY RF-SCORE:    0.00 PKD
ROOT
HETATM    1  C   UNL     1     -10.614   5.519  70.045  1.00  0.00    -0.314 C  
HETATM    2  O   UNL     1     -11.457   6.473  70.685  1.00  0.00    -0.328 OA 
ENDROOT
BRANCH   2   3
HETATM    3  C   UNL     1     -11.243   7.782  70.334  1.00  0.00    -0.237 A  
HETATM    4  C   UNL     1     -12.012   8.767  70.981  1.00  0.00    -0.291 A  
HETATM    5  C   UNL     1     -13.017   8.363  72.033  1.00  0.00    -0.388 C  
HETATM    6  C   UNL     1     -11.837  10.136  70.626  1.00  0.00    -0.431 A  
HETATM    7  C   UNL     1     -10.904  10.496  69.612  1.00  0.00    -0.320 A  
HETATM    8  C   UNL     1     -12.659  11.220  71.291  1.00  0.00    -0.487 C  
HETATM    9  C   UNL     1     -10.352   8.150  69.328  1.00  0.00    -0.222 A  
HETATM   10  C   UNL     1     -10.166   9.492  68.956  1.00  0.00    -0.211 A  
HETATM   11  C   UNL     1      -9.191   9.736  67.836  1.00  0.00    -0.133 C  
BRANCH   7  12
HETATM   12  C   UNL     1     -10.796  11.909  69.183  1.00  0.00    -0.196 C  
HETATM   13  C   UNL     1     -11.412  12.429  68.106  1.00  0.00    -0.370 C  
BRANCH  13  14
HETATM   14  C   UNL     1     -11.281  13.799  67.592  1.00  0.00    -0.316 C  
HETATM   15  C   UNL     1     -10.493  14.691  68.239  1.00  0.00    -0.236 C  
HETATM   16  C   UNL     1     -12.057  14.214  66.360  1.00  0.00    -0.475 C  
BRANCH  15  17
HETATM   17  C   UNL     1     -10.292  16.068  67.819  1.00  0.00    -0.279 C  
HETATM   18  C   UNL     1      -9.764  17.048  68.571  1.00  0.00    -0.282 C  
BRANCH  18  19
HETATM   19  C   UNL     1      -9.558  18.398  68.051  1.00  0.00    -0.316 C  
HETATM   20  C   UNL     1     -10.744  19.023  67.367  1.00  0.00    -0.559 C  
HETATM   21  C   UNL     1      -8.359  19.000  68.202  1.00  0.00    -0.347 C  
HETATM   22  C   UNL     1      -8.020  20.344  67.687  1.00  0.00    -0.253 C  
HETATM   23  O   UNL     1      -6.738  20.673  67.954  1.00  0.00    -0.292 OA 
HETATM   24  O   UNL     1      -8.774  21.086  67.081  1.00  0.00    -0.147 OA 
ENDBRANCH  18  19
ENDBRANCH  15  17
ENDBRANCH  13  14
ENDBRANCH   7  12
ENDBRANCH   2   3
TORSDOF 5
ENDMDL
MODEL       24
REMARK 921   NORMALIZED FREE ENERGY PREDICTED BY IDOCK:   -5.70 KCAL/MOL
REMARK 922        TOTAL FREE ENERGY PREDICTED BY IDOCK:   -8.16 KCAL/MOL
REMARK 923 INTER-LIGAND FREE ENERGY PREDICTED BY IDOCK:   -7.35 KCAL/MOL
REMARK 924 INTRA-LIGAND FREE ENERGY PREDICTED BY IDOCK:   -0.81 KCAL/MOL
REMARK 927      BINDING AFFINITY PREDICTED BY RF-SCORE:    0.00 PKD
ROOT
HETATM    1  C   UNL     1     -10.061   5.053  70.573  1.00  0.00    -0.253 C  
HETATM    2  O   UNL     1     -10.863   5.475  69.473  1.00  0.00    -0.311 OA 
ENDROOT
BRANCH   2   3
HETATM    3  C   UNL     1     -10.821   6.817  69.189  1.00  0.00    -0.258 A  
HETATM    4  C   UNL     1     -10.375   7.203  67.911  1.00  0.00    -0.248 A  
HETATM    5  C   UNL     1      -9.980   6.148  66.905  1.00  0.00    -0.211 C  
HETATM    6  C   UNL     1     -10.294   8.588  67.588  1.00  0.00    -0.317 A  
HETATM    7  C   UNL     1     -10.646   9.570  68.559  1.00  0.00    -0.247 A  
HETATM    8  C   UNL     1      -9.804   9.038  66.228  1.00  0.00    -0.361 C  
HETATM    9  C   UNL     1     -11.138   7.791  70.135  1.00  0.00    -0.216 A  
HETATM   10  C   UNL     1     -11.060   9.162  69.841  1.00  0.00    -0.175 A  
HETATM   11  C   UNL     1     -11.407  10.098  70.969  1.00  0.00    -0.385 C  
BRANCH   7  12
HETATM   12  C   UNL     1     -10.469  11.006  68.247  1.00  0.00    -0.212 C  
HETATM   13  C   UNL     1     -11.410  11.787  67.688  1.00  0.00    -0.370 C  
BRANCH  13  14
HETATM   14  C   UNL     1     -11.265  13.194  67.288  1.00  0.00    -0.319 C  
HETATM   15  C   UNL     1     -10.347  13.978  67.902  1.00  0.00    -0.239 C  
HETATM   16  C   UNL     1     -12.167  13.764  66.216  1.00  0.00    -0.489 C  
BRANCH  15  17
HETATM   17  C   UNL     1     -10.119  15.380  67.587  1.00  0.00    -0.236 C  
HETATM   18  C   UNL     1     -10.599  16.426  68.278  1.00  0.00    -0.318 C  
BRANCH  18  19
HETATM   19  C   UNL     1     -10.282  17.805  67.913  1.00  0.00    -0.362 C  
HETATM   20  C   UNL     1      -9.427  18.561  68.894  1.00  0.00    -0.277 C  
HETATM   21  C   UNL     1     -10.753  18.319  66.756  1.00  0.00    -0.247 C  
HETATM   22  C   UNL     1     -10.531  19.708  66.299  1.00  0.00    -0.519 C  
HETATM   23  O   UNL     1     -11.149  19.952  65.125  1.00  0.00    -0.329 OA 
HETATM   24  O   UNL     1      -9.887  20.558  66.890  1.00  0.00    -0.450 OA 
ENDBRANCH  18  19
ENDBRANCH  15  17
ENDBRANCH  13  14
ENDBRANCH   7  12
ENDBRANCH   2   3
TORSDOF 5
ENDMDL
MODEL       25
REMARK 921   NORMALIZED FREE ENERGY PREDICTED BY IDOCK:   -5.69 KCAL/MOL
REMARK 922        TOTAL FREE ENERGY PREDICTED BY IDOCK:   -8.14 KCAL/MOL
REMARK 923 INTER-LIGAND FREE ENERGY PREDICTED BY IDOCK:   -7.42 KCAL/MOL
REMARK 924 INTRA-LIGAND FREE ENERGY PREDICTED BY IDOCK:   -0.72 KCAL/MOL
REMARK 927      BINDING AFFINITY PREDICTED BY RF-SCORE:    0.00 PKD
ROOT
HETATM    1  C   UNL     1     -10.766  16.649  68.727  1.00  0.00    -0.342 C  
HETATM    2  O   UNL     1     -11.822  15.818  68.252  1.00  0.00    -0.301 OA 
ENDROOT
BRANCH   2   3
HETATM    3  C   UNL     1     -11.934  14.594  68.864  1.00  0.00    -0.274 A  
HETATM    4  C   UNL     1     -11.508  13.462  68.145  1.00  0.00    -0.339 A  
HETATM    5  C   UNL     1     -10.935  13.627  66.757  1.00  0.00    -0.297 C  
HETATM    6  C   UNL     1     -11.632  12.172  68.736  1.00  0.00    -0.380 A  
HETATM    7  C   UNL     1     -12.199  12.033  70.035  1.00  0.00    -0.280 A  
HETATM    8  C   UNL     1     -11.197  10.931  67.985  1.00  0.00    -0.378 C  
HETATM    9  C   UNL     1     -12.509  14.438  70.124  1.00  0.00    -0.395 A  
HETATM   10  C   UNL     1     -12.648  13.176  70.724  1.00  0.00    -0.338 A  
HETATM   11  C   UNL     1     -13.311  13.159  72.076  1.00  0.00    -0.587 C  
BRANCH   7  12
HETATM   12  C   UNL     1     -12.411  10.682  70.603  1.00  0.00    -0.462 C  
HETATM   13  C   UNL     1     -11.548  10.054  71.421  1.00  0.00    -0.383 C  
BRANCH  13  14
HETATM   14  C   UNL     1     -11.670   8.689  71.952  1.00  0.00    -0.422 C  
HETATM   15  C   UNL     1     -10.614   8.107  72.569  1.00  0.00    -0.411 C  
HETATM   16  C   UNL     1     -12.967   7.931  71.773  1.00  0.00    -0.351 C  
BRANCH  15  17
HETATM   17  C   UNL     1     -10.625   6.766  73.129  1.00  0.00    -0.315 C  
HETATM   18  C   UNL     1      -9.767   5.780  72.820  1.00  0.00    -0.169 C  
BRANCH  18  19
HETATM   19  C   UNL     1      -9.826   4.471  73.467  1.00  0.00    -0.166 C  
HETATM   20  C   UNL     1      -8.649   4.119  74.337  1.00  0.00    -0.095 C  
HETATM   21  C   UNL     1     -10.892   3.669  73.263  1.00  0.00    -0.290 C  
HETATM   22  C   UNL     1     -11.047   2.312  73.832  1.00  0.00    -0.182 C  
HETATM   23  O   UNL     1     -12.196   1.729  73.430  1.00  0.00    -0.157 OA 
HETATM   24  O   UNL     1     -10.250   1.752  74.565  1.00  0.00    -0.103 OA 
ENDBRANCH  18  19
ENDBRANCH  15  17
ENDBRANCH  13  14
ENDBRANCH   7  12
ENDBRANCH   2   3
TORSDOF 5
ENDMDL
MODEL       26
REMARK 921   NORMALIZED FREE ENERGY PREDICTED BY IDOCK:   -5.66 KCAL/MOL
REMARK 922        TOTAL FREE ENERGY PREDICTED BY IDOCK:   -8.10 KCAL/MOL
REMARK 923 INTER-LIGAND FREE ENERGY PREDICTED BY IDOCK:   -7.38 KCAL/MOL
REMARK 924 INTRA-LIGAND FREE ENERGY PREDICTED BY IDOCK:   -0.72 KCAL/MOL
REMARK 927      BINDING AFFINITY PREDICTED BY RF-SCORE:    0.00 PKD
ROOT
HETATM    1  C   UNL     1     -14.149   8.756  72.450  1.00  0.00    -0.413 C  
HETATM    2  O   UNL     1     -12.807   9.233  72.407  1.00  0.00    -0.387 OA 
ENDROOT
BRANCH   2   3
HETATM    3  C   UNL     1     -12.570  10.257  71.524  1.00  0.00    -0.440 A  
HETATM    4  C   UNL     1     -11.792   9.973  70.386  1.00  0.00    -0.343 A  
HETATM    5  C   UNL     1     -11.267   8.574  70.167  1.00  0.00    -0.139 C  
HETATM    6  C   UNL     1     -11.503  11.015  69.459  1.00  0.00    -0.370 A  
HETATM    7  C   UNL     1     -11.983  12.335  69.696  1.00  0.00    -0.347 A  
HETATM    8  C   UNL     1     -10.656  10.749  68.232  1.00  0.00    -0.233 C  
HETATM    9  C   UNL     1     -13.012  11.559  71.753  1.00  0.00    -0.500 A  
HETATM   10  C   UNL     1     -12.734  12.605  70.857  1.00  0.00    -0.274 A  
HETATM   11  C   UNL     1     -13.253  13.962  71.249  1.00  0.00    -0.352 C  
BRANCH   7  12
HETATM   12  C   UNL     1     -11.599  13.432  68.779  1.00  0.00    -0.363 C  
HETATM   13  C   UNL     1     -10.489  14.180  68.907  1.00  0.00    -0.229 C  
BRANCH  13  14
HETATM   14  C   UNL     1     -10.097  15.326  68.074  1.00  0.00    -0.229 C  
HETATM   15  C   UNL     1      -9.256  16.265  68.569  1.00  0.00    -0.211 C  
HETATM   16  C   UNL     1     -10.665  15.465  66.678  1.00  0.00    -0.309 C  
BRANCH  15  17
HETATM   17  C   UNL     1      -8.805  17.436  67.834  1.00  0.00    -0.237 C  
HETATM   18  C   UNL     1      -7.526  17.750  67.571  1.00  0.00    -0.213 C  
BRANCH  18  19
HETATM   19  C   UNL     1      -7.165  18.927  66.784  1.00  0.00    -0.221 C  
HETATM   20  C   UNL     1      -7.424  20.257  67.440  1.00  0.00    -0.343 C  
HETATM   21  C   UNL     1      -6.633  18.775  65.552  1.00  0.00    -0.307 C  
HETATM   22  C   UNL     1      -6.264  19.887  64.650  1.00  0.00    -0.270 C  
HETATM   23  O   UNL     1      -5.791  19.436  63.469  1.00  0.00    -0.400 OA 
HETATM   24  O   UNL     1      -6.371  21.075  64.902  1.00  0.00    -0.252 OA 
ENDBRANCH  18  19
ENDBRANCH  15  17
ENDBRANCH  13  14
ENDBRANCH   7  12
ENDBRANCH   2   3
TORSDOF 5
ENDMDL
MODEL       27
REMARK 921   NORMALIZED FREE ENERGY PREDICTED BY IDOCK:   -5.64 KCAL/MOL
REMARK 922        TOTAL FREE ENERGY PREDICTED BY IDOCK:   -8.08 KCAL/MOL
REMARK 923 INTER-LIGAND FREE ENERGY PREDICTED BY IDOCK:   -7.31 KCAL/MOL
REMARK 924 INTRA-LIGAND FREE ENERGY PREDICTED BY IDOCK:   -0.76 KCAL/MOL
REMARK 927      BINDING AFFINITY PREDICTED BY RF-SCORE:    0.00 PKD
ROOT
HETATM    1  C   UNL     1     -13.602  15.621  72.897  1.00  0.00    -0.572 C  
HETATM    2  O   UNL     1     -13.456  15.521  71.483  1.00  0.00    -0.479 OA 
ENDROOT
BRANCH   2   3
HETATM    3  C   UNL     1     -12.951  14.330  71.022  1.00  0.00    -0.342 A  
HETATM    4  C   UNL     1     -12.174  14.359  69.849  1.00  0.00    -0.394 A  
HETATM    5  C   UNL     1     -11.910  15.674  69.157  1.00  0.00    -0.378 C  
HETATM    6  C   UNL     1     -11.655  13.140  69.326  1.00  0.00    -0.370 A  
HETATM    7  C   UNL     1     -11.937  11.905  69.978  1.00  0.00    -0.409 A  
HETATM    8  C   UNL     1     -10.827  13.132  68.057  1.00  0.00    -0.261 C  
HETATM    9  C   UNL     1     -13.237  13.111  71.634  1.00  0.00    -0.435 A  
HETATM   10  C   UNL     1     -12.742  11.896  71.133  1.00  0.00    -0.384 A  
HETATM   11  C   UNL     1     -13.155  10.657  71.882  1.00  0.00    -0.563 C  
BRANCH   7  12
HETATM   12  C   UNL     1     -11.473  10.635  69.375  1.00  0.00    -0.356 C  
HETATM   13  C   UNL     1     -10.513   9.849  69.896  1.00  0.00    -0.309 C  
BRANCH  13  14
HETATM   14  C   UNL     1      -9.962   8.621  69.305  1.00  0.00    -0.195 C  
HETATM   15  C   UNL     1     -10.766   7.551  69.099  1.00  0.00    -0.163 C  
HETATM   16  C   UNL     1      -8.490   8.552  68.962  1.00  0.00    -0.126 C  
BRANCH  15  17
HETATM   17  C   UNL     1     -10.327   6.290  68.522  1.00  0.00    -0.238 C  
HETATM   18  C   UNL     1     -10.584   5.868  67.274  1.00  0.00    -0.365 C  
BRANCH  18  19
HETATM   19  C   UNL     1     -10.064   4.603  66.762  1.00  0.00    -0.246 C  
HETATM   20  C   UNL     1     -10.428   4.274  65.339  1.00  0.00    -0.192 C  
HETATM   21  C   UNL     1      -9.308   3.816  67.558  1.00  0.00    -0.238 C  
HETATM   22  C   UNL     1      -8.758   2.500  67.165  1.00  0.00    -0.123 C  
HETATM   23  O   UNL     1      -8.073   1.923  68.174  1.00  0.00    -0.057 OA 
HETATM   24  O   UNL     1      -8.897   1.966  66.078  1.00  0.00    -0.121 OA 
ENDBRANCH  18  19
ENDBRANCH  15  17
ENDBRANCH  13  14
ENDBRANCH   7  12
ENDBRANCH   2   3
TORSDOF 5
ENDMDL
MODEL       28
REMARK 921   NORMALIZED FREE ENERGY PREDICTED BY IDOCK:   -5.63 KCAL/MOL
REMARK 922        TOTAL FREE ENERGY PREDICTED BY IDOCK:   -8.07 KCAL/MOL
REMARK 923 INTER-LIGAND FREE ENERGY PREDICTED BY IDOCK:   -7.33 KCAL/MOL
REMARK 924 INTRA-LIGAND FREE ENERGY PREDICTED BY IDOCK:   -0.74 KCAL/MOL
REMARK 927      BINDING AFFINITY PREDICTED BY RF-SCORE:    0.00 PKD
ROOT
HETATM    1  C   UNL     1     -11.466  16.045  64.447  1.00  0.00    -0.242 C  
HETATM    2  O   UNL     1     -12.079  14.758  64.413  1.00  0.00    -0.476 OA 
ENDROOT
BRANCH   2   3
HETATM    3  C   UNL     1     -11.754  13.919  65.449  1.00  0.00    -0.340 A  
HETATM    4  C   UNL     1     -11.240  12.649  65.127  1.00  0.00    -0.336 A  
HETATM    5  C   UNL     1     -11.049  12.263  63.680  1.00  0.00    -0.537 C  
HETATM    6  C   UNL     1     -10.915  11.741  66.175  1.00  0.00    -0.355 A  
HETATM    7  C   UNL     1     -11.127  12.113  67.534  1.00  0.00    -0.328 A  
HETATM    8  C   UNL     1     -10.374  10.361  65.865  1.00  0.00    -0.261 C  
HETATM    9  C   UNL     1     -11.977  14.258  66.783  1.00  0.00    -0.462 A  
HETATM   10  C   UNL     1     -11.670  13.377  67.833  1.00  0.00    -0.396 A  
HETATM   11  C   UNL     1     -11.990  13.869  69.220  1.00  0.00    -0.402 C  
BRANCH   7  12
HETATM   12  C   UNL     1     -10.875  11.129  68.612  1.00  0.00    -0.251 C  
HETATM   13  C   UNL     1     -11.837  10.528  69.335  1.00  0.00    -0.271 C  
BRANCH  13  14
HETATM   14  C   UNL     1     -11.644   9.605  70.463  1.00  0.00    -0.341 C  
HETATM   15  C   UNL     1     -10.801   8.552  70.337  1.00  0.00    -0.251 C  
HETATM   16  C   UNL     1     -12.416   9.820  71.747  1.00  0.00    -0.485 C  
BRANCH  15  17
HETATM   17  C   UNL     1     -10.536   7.580  71.386  1.00  0.00    -0.229 C  
HETATM   18  C   UNL     1     -10.893   6.286  71.362  1.00  0.00    -0.312 C  
BRANCH  18  19
HETATM   19  C   UNL     1     -10.546   5.367  72.444  1.00  0.00    -0.276 C  
HETATM   20  C   UNL     1     -10.550   5.957  73.829  1.00  0.00    -0.275 C  
HETATM   21  C   UNL     1     -10.250   4.080  72.164  1.00  0.00    -0.210 C  
HETATM   22  C   UNL     1      -9.848   3.069  73.167  1.00  0.00    -0.110 C  
HETATM   23  O   UNL     1      -9.578   1.878  72.594  1.00  0.00    -0.078 OA 
HETATM   24  O   UNL     1      -9.751   3.257  74.367  1.00  0.00    -0.101 OA 
ENDBRANCH  18  19
ENDBRANCH  15  17
ENDBRANCH  13  14
ENDBRANCH   7  12
ENDBRANCH   2   3
TORSDOF 5
ENDMDL
MODEL       29
REMARK 921   NORMALIZED FREE ENERGY PREDICTED BY IDOCK:   -5.60 KCAL/MOL
REMARK 922        TOTAL FREE ENERGY PREDICTED BY IDOCK:   -8.03 KCAL/MOL
REMARK 923 INTER-LIGAND FREE ENERGY PREDICTED BY IDOCK:   -7.28 KCAL/MOL
REMARK 924 INTRA-LIGAND FREE ENERGY PREDICTED BY IDOCK:   -0.75 KCAL/MOL
REMARK 927      BINDING AFFINITY PREDICTED BY RF-SCORE:    0.00 PKD
ROOT
HETATM    1  C   UNL     1     -10.373  19.484  65.852  1.00  0.00    -0.470 C  
HETATM    2  O   UNL     1      -9.439  18.408  65.851  1.00  0.00    -0.496 OA 
ENDROOT
BRANCH   2   3
HETATM    3  C   UNL     1      -9.830  17.282  66.531  1.00  0.00    -0.298 A  
HETATM    4  C   UNL     1      -9.182  16.993  67.746  1.00  0.00    -0.236 A  
HETATM    5  C   UNL     1      -8.110  17.922  68.263  1.00  0.00    -0.294 C  
HETATM    6  C   UNL     1      -9.543  15.820  68.469  1.00  0.00    -0.204 A  
HETATM    7  C   UNL     1     -10.538  14.941  67.952  1.00  0.00    -0.254 A  
HETATM    8  C   UNL     1      -8.856  15.471  69.772  1.00  0.00    -0.016 C  
HETATM    9  C   UNL     1     -10.784  16.400  66.028  1.00  0.00    -0.194 A  
HETATM   10  C   UNL     1     -11.152  15.233  66.719  1.00  0.00    -0.278 A  
HETATM   11  C   UNL     1     -12.176  14.362  66.041  1.00  0.00    -0.352 C  
BRANCH   7  12
HETATM   12  C   UNL     1     -10.840  13.677  68.660  1.00  0.00    -0.283 C  
HETATM   13  C   UNL     1     -11.852  13.512  69.531  1.00  0.00    -0.392 C  
BRANCH  13  14
HETATM   14  C   UNL     1     -12.152  12.307  70.317  1.00  0.00    -0.376 C  
HETATM   15  C   UNL     1     -11.726  11.096  69.885  1.00  0.00    -0.433 C  
HETATM   16  C   UNL     1     -12.964  12.426  71.588  1.00  0.00    -0.409 C  
BRANCH  15  17
HETATM   17  C   UNL     1     -11.966   9.843  70.582  1.00  0.00    -0.361 C  
HETATM   18  C   UNL     1     -11.084   8.838  70.714  1.00  0.00    -0.306 C  
BRANCH  18  19
HETATM   19  C   UNL     1     -11.396   7.629  71.471  1.00  0.00    -0.286 C  
HETATM   20  C   UNL     1     -12.818   7.144  71.374  1.00  0.00    -0.431 C  
HETATM   21  C   UNL     1     -10.431   7.023  72.196  1.00  0.00    -0.234 C  
HETATM   22  C   UNL     1     -10.634   5.818  73.031  1.00  0.00    -0.242 C  
HETATM   23  O   UNL     1      -9.502   5.457  73.670  1.00  0.00    -0.136 OA 
HETATM   24  O   UNL     1     -11.682   5.210  73.159  1.00  0.00    -0.298 OA 
ENDBRANCH  18  19
ENDBRANCH  15  17
ENDBRANCH  13  14
ENDBRANCH   7  12
ENDBRANCH   2   3
TORSDOF 5
ENDMDL
MODEL       30
REMARK 921   NORMALIZED FREE ENERGY PREDICTED BY IDOCK:   -5.60 KCAL/MOL
REMARK 922        TOTAL FREE ENERGY PREDICTED BY IDOCK:   -8.02 KCAL/MOL
REMARK 923 INTER-LIGAND FREE ENERGY PREDICTED BY IDOCK:   -7.20 KCAL/MOL
REMARK 924 INTRA-LIGAND FREE ENERGY PREDICTED BY IDOCK:   -0.82 KCAL/MOL
REMARK 927      BINDING AFFINITY PREDICTED BY RF-SCORE:    0.00 PKD
ROOT
HETATM    1  C   UNL     1     -10.680   2.980  74.107  1.00  0.00    -0.177 C  
HETATM    2  O   UNL     1      -9.718   3.240  73.088  1.00  0.00    -0.104 OA 
ENDROOT
BRANCH   2   3
HETATM    3  C   UNL     1     -10.092   4.158  72.139  1.00  0.00    -0.178 A  
HETATM    4  C   UNL     1      -9.739   3.899  70.802  1.00  0.00    -0.255 A  
HETATM    5  C   UNL     1      -8.989   2.635  70.456  1.00  0.00    -0.164 C  
HETATM    6  C   UNL     1     -10.088   4.841  69.792  1.00  0.00    -0.289 A  
HETATM    7  C   UNL     1     -10.772   6.041  70.140  1.00  0.00    -0.379 A  
HETATM    8  C   UNL     1      -9.710   4.601  68.345  1.00  0.00    -0.198 C  
HETATM    9  C   UNL     1     -10.740   5.348  72.466  1.00  0.00    -0.288 A  
HETATM   10  C   UNL     1     -11.089   6.295  71.489  1.00  0.00    -0.333 A  
HETATM   11  C   UNL     1     -11.760   7.545  71.993  1.00  0.00    -0.333 C  
BRANCH   7  12
HETATM   12  C   UNL     1     -11.047   7.058  69.100  1.00  0.00    -0.143 C  
HETATM   13  C   UNL     1     -10.306   8.162  68.898  1.00  0.00    -0.225 C  
BRANCH  13  14
HETATM   14  C   UNL     1     -10.575   9.239  67.934  1.00  0.00    -0.288 C  
HETATM   15  C   UNL     1     -11.215  10.362  68.338  1.00  0.00    -0.318 C  
HETATM   16  C   UNL     1     -10.163   9.069  66.488  1.00  0.00    -0.318 C  
BRANCH  15  17
HETATM   17  C   UNL     1     -11.530  11.487  67.471  1.00  0.00    -0.355 C  
HETATM   18  C   UNL     1     -10.831  12.630  67.385  1.00  0.00    -0.272 C  
BRANCH  18  19
HETATM   19  C   UNL     1     -11.197  13.692  66.451  1.00  0.00    -0.317 C  
HETATM   20  C   UNL     1     -11.004  15.099  66.952  1.00  0.00    -0.323 C  
HETATM   21  C   UNL     1     -11.672  13.377  65.228  1.00  0.00    -0.346 C  
HETATM   22  C   UNL     1     -12.109  14.361  64.213  1.00  0.00    -0.436 C  
HETATM   23  O   UNL     1     -12.571  13.758  63.098  1.00  0.00    -0.793 OA 
HETATM   24  O   UNL     1     -12.081  15.573  64.339  1.00  0.00    -0.370 OA 
ENDBRANCH  18  19
ENDBRANCH  15  17
ENDBRANCH  13  14
ENDBRANCH   7  12
ENDBRANCH   2   3
TORSDOF 5
ENDMDL
MODEL       31
REMARK 921   NORMALIZED FREE ENERGY PREDICTED BY IDOCK:   -5.58 KCAL/MOL
REMARK 922        TOTAL FREE ENERGY PREDICTED BY IDOCK:   -8.00 KCAL/MOL
REMARK 923 INTER-LIGAND FREE ENERGY PREDICTED BY IDOCK:   -7.29 KCAL/MOL
REMARK 924 INTRA-LIGAND FREE ENERGY PREDICTED BY IDOCK:   -0.71 KCAL/MOL
REMARK 927      BINDING AFFINITY PREDICTED BY RF-SCORE:    0.00 PKD
ROOT
HETATM    1  C   UNL     1     -11.016  15.936  64.967  1.00  0.00    -0.412 C  
HETATM    2  O   UNL     1     -10.668  15.852  66.346  1.00  0.00    -0.308 OA 
ENDROOT
BRANCH   2   3
HETATM    3  C   UNL     1     -11.019  14.684  66.976  1.00  0.00    -0.317 A  
HETATM    4  C   UNL     1     -11.503  14.772  68.295  1.00  0.00    -0.338 A  
HETATM    5  C   UNL     1     -11.635  16.122  68.957  1.00  0.00    -0.298 C  
HETATM    6  C   UNL     1     -11.854  13.579  68.991  1.00  0.00    -0.385 A  
HETATM    7  C   UNL     1     -11.697  12.311  68.359  1.00  0.00    -0.390 A  
HETATM    8  C   UNL     1     -12.363  13.635  70.416  1.00  0.00    -0.415 C  
HETATM    9  C   UNL     1     -10.850  13.435  66.382  1.00  0.00    -0.294 A  
HETATM   10  C   UNL     1     -11.183  12.245  67.050  1.00  0.00    -0.367 A  
HETATM   11  C   UNL     1     -10.921  10.970  66.294  1.00  0.00    -0.184 C  
BRANCH   7  12
HETATM   12  C   UNL     1     -11.974  11.073  69.122  1.00  0.00    -0.394 C  
HETATM   13  C   UNL     1     -11.062  10.406  69.851  1.00  0.00    -0.367 C  
BRANCH  13  14
HETATM   14  C   UNL     1     -11.261   9.136  70.564  1.00  0.00    -0.309 C  
HETATM   15  C   UNL     1     -10.851   7.974  70.000  1.00  0.00    -0.235 C  
HETATM   16  C   UNL     1     -11.955   9.133  71.908  1.00  0.00    -0.443 C  
BRANCH  15  17
HETATM   17  C   UNL     1     -10.997   6.665  70.615  1.00  0.00    -0.329 C  
HETATM   18  C   UNL     1     -10.233   6.173  71.604  1.00  0.00    -0.235 C  
BRANCH  18  19
HETATM   19  C   UNL     1     -10.480   4.860  72.194  1.00  0.00    -0.257 C  
HETATM   20  C   UNL     1     -11.409   4.839  73.378  1.00  0.00    -0.397 C  
HETATM   21  C   UNL     1      -9.887   3.766  71.670  1.00  0.00    -0.240 C  
HETATM   22  C   UNL     1     -10.031   2.393  72.202  1.00  0.00    -0.160 C  
HETATM   23  O   UNL     1      -9.296   1.506  71.499  1.00  0.00    -0.081 OA 
HETATM   24  O   UNL     1     -10.709   2.068  73.161  1.00  0.00    -0.130 OA 
ENDBRANCH  18  19
ENDBRANCH  15  17
ENDBRANCH  13  14
ENDBRANCH   7  12
ENDBRANCH   2   3
TORSDOF 5
ENDMDL
MODEL       32
REMARK 921   NORMALIZED FREE ENERGY PREDICTED BY IDOCK:   -5.49 KCAL/MOL
REMARK 922        TOTAL FREE ENERGY PREDICTED BY IDOCK:   -7.88 KCAL/MOL
REMARK 923 INTER-LIGAND FREE ENERGY PREDICTED BY IDOCK:   -7.20 KCAL/MOL
REMARK 924 INTRA-LIGAND FREE ENERGY PREDICTED BY IDOCK:   -0.69 KCAL/MOL
REMARK 927      BINDING AFFINITY PREDICTED BY RF-SCORE:    0.00 PKD
ROOT
HETATM    1  C   UNL     1      -9.860   4.184  69.926  1.00  0.00    -0.162 C  
HETATM    2  O   UNL     1     -10.865   5.110  70.331  1.00  0.00    -0.160 OA 
ENDROOT
BRANCH   2   3
HETATM    3  C   UNL     1     -10.732   6.383  69.834  1.00  0.00    -0.274 A  
HETATM    4  C   UNL     1     -11.111   7.452  70.667  1.00  0.00    -0.285 A  
HETATM    5  C   UNL     1     -11.624   7.174  72.059  1.00  0.00    -0.317 C  
HETATM    6  C   UNL     1     -11.012   8.787  70.178  1.00  0.00    -0.236 A  
HETATM    7  C   UNL     1     -10.551   9.029  68.852  1.00  0.00    -0.203 A  
HETATM    8  C   UNL     1     -11.424   9.961  71.041  1.00  0.00    -0.466 C  
HETATM    9  C   UNL     1     -10.306   6.636  68.532  1.00  0.00    -0.216 A  
HETATM   10  C   UNL     1     -10.206   7.943  68.025  1.00  0.00    -0.256 A  
HETATM   11  C   UNL     1      -9.757   8.061  66.593  1.00  0.00    -0.313 C  
BRANCH   7  12
HETATM   12  C   UNL     1     -10.540  10.411  68.319  1.00  0.00    -0.245 C  
HETATM   13  C   UNL     1     -11.381  10.871  67.375  1.00  0.00    -0.273 C  
BRANCH  13  14
HETATM   14  C   UNL     1     -11.367  12.204  66.758  1.00  0.00    -0.398 C  
HETATM   15  C   UNL     1     -10.796  13.245  67.410  1.00  0.00    -0.279 C  
HETATM   16  C   UNL     1     -12.023  12.411  65.410  1.00  0.00    -0.457 C  
BRANCH  15  17
HETATM   17  C   UNL     1     -10.727  14.602  66.893  1.00  0.00    -0.294 C  
HETATM   18  C   UNL     1     -10.501  15.708  67.622  1.00  0.00    -0.283 C  
BRANCH  18  19
HETATM   19  C   UNL     1     -10.403  17.031  67.011  1.00  0.00    -0.304 C  
HETATM   20  C   UNL     1     -10.359  17.055  65.507  1.00  0.00    -0.161 C  
HETATM   21  C   UNL     1     -10.360  18.131  67.794  1.00  0.00    -0.413 C  
HETATM   22  C   UNL     1     -10.225  19.516  67.294  1.00  0.00    -0.429 C  
HETATM   23  O   UNL     1     -10.172  20.409  68.304  1.00  0.00    -0.322 OA 
HETATM   24  O   UNL     1     -10.153  19.847  66.123  1.00  0.00    -0.448 OA 
ENDBRANCH  18  19
ENDBRANCH  15  17
ENDBRANCH  13  14
ENDBRANCH   7  12
ENDBRANCH   2   3
TORSDOF 5
ENDMDL
MODEL       33
REMARK 921   NORMALIZED FREE ENERGY PREDICTED BY IDOCK:   -5.49 KCAL/MOL
REMARK 922        TOTAL FREE ENERGY PREDICTED BY IDOCK:   -7.88 KCAL/MOL
REMARK 923 INTER-LIGAND FREE ENERGY PREDICTED BY IDOCK:   -7.17 KCAL/MOL
REMARK 924 INTRA-LIGAND FREE ENERGY PREDICTED BY IDOCK:   -0.71 KCAL/MOL
REMARK 927      BINDING AFFINITY PREDICTED BY RF-SCORE:    0.00 PKD
ROOT
HETATM    1  C   UNL     1     -10.593  18.063  67.119  1.00  0.00    -0.325 C  
HETATM    2  O   UNL     1     -10.613  16.828  66.409  1.00  0.00    -0.281 OA 
ENDROOT
BRANCH   2   3
HETATM    3  C   UNL     1     -10.919  15.719  67.157  1.00  0.00    -0.244 A  
HETATM    4  C   UNL     1     -11.001  14.482  66.491  1.00  0.00    -0.321 A  
HETATM    5  C   UNL     1     -10.738  14.411  65.006  1.00  0.00    -0.440 C  
HETATM    6  C   UNL     1     -11.341  13.312  67.230  1.00  0.00    -0.347 A  
HETATM    7  C   UNL     1     -11.612  13.402  68.626  1.00  0.00    -0.362 A  
HETATM    8  C   UNL     1     -11.453  11.967  66.542  1.00  0.00    -0.413 C  
HETATM    9  C   UNL     1     -11.210  15.793  68.518  1.00  0.00    -0.354 A  
HETATM   10  C   UNL     1     -11.554  14.654  69.266  1.00  0.00    -0.335 A  
HETATM   11  C   UNL     1     -11.868  14.891  70.720  1.00  0.00    -0.368 C  
BRANCH   7  12
HETATM   12  C   UNL     1     -12.056  12.199  69.366  1.00  0.00    -0.247 C  
HETATM   13  C   UNL     1     -11.228  11.308  69.941  1.00  0.00    -0.264 C  
BRANCH  13  14
HETATM   14  C   UNL     1     -11.610  10.062  70.620  1.00  0.00    -0.422 C  
HETATM   15  C   UNL     1     -10.782   8.990  70.580  1.00  0.00    -0.285 C  
HETATM   16  C   UNL     1     -12.942   9.975  71.331  1.00  0.00    -0.517 C  
BRANCH  15  17
HETATM   17  C   UNL     1     -11.059   7.712  71.215  1.00  0.00    -0.268 C  
HETATM   18  C   UNL     1     -10.253   6.638  71.199  1.00  0.00    -0.216 C  
BRANCH  18  19
HETATM   19  C   UNL     1     -10.593   5.404  71.904  1.00  0.00    -0.288 C  
HETATM   20  C   UNL     1     -11.748   5.497  72.865  1.00  0.00    -0.216 C  
HETATM   21  C   UNL     1      -9.884   4.279  71.669  1.00  0.00    -0.257 C  
HETATM   22  C   UNL     1     -10.109   2.984  72.347  1.00  0.00    -0.159 C  
HETATM   23  O   UNL     1      -9.228   2.047  71.940  1.00  0.00    -0.078 OA 
HETATM   24  O   UNL     1     -10.966   2.757  73.184  1.00  0.00    -0.162 OA 
ENDBRANCH  18  19
ENDBRANCH  15  17
ENDBRANCH  13  14
ENDBRANCH   7  12
ENDBRANCH   2   3
TORSDOF 5
ENDMDL
MODEL       34
REMARK 921   NORMALIZED FREE ENERGY PREDICTED BY IDOCK:   -5.43 KCAL/MOL
REMARK 922        TOTAL FREE ENERGY PREDICTED BY IDOCK:   -7.81 KCAL/MOL
REMARK 923 INTER-LIGAND FREE ENERGY PREDICTED BY IDOCK:   -7.07 KCAL/MOL
REMARK 924 INTRA-LIGAND FREE ENERGY PREDICTED BY IDOCK:   -0.73 KCAL/MOL
REMARK 927      BINDING AFFINITY PREDICTED BY RF-SCORE:    0.00 PKD
ROOT
HETATM    1  C   UNL     1      -9.576   4.317  70.458  1.00  0.00    -0.197 C  
HETATM    2  O   UNL     1     -10.751   4.967  69.982  1.00  0.00    -0.170 OA 
ENDROOT
BRANCH   2   3
HETATM    3  C   UNL     1     -10.718   6.339  69.999  1.00  0.00    -0.285 A  
HETATM    4  C   UNL     1     -11.470   7.000  70.988  1.00  0.00    -0.343 A  
HETATM    5  C   UNL     1     -12.262   6.196  71.991  1.00  0.00    -0.192 C  
HETATM    6  C   UNL     1     -11.481   8.424  71.022  1.00  0.00    -0.302 A  
HETATM    7  C   UNL     1     -10.749   9.168  70.051  1.00  0.00    -0.254 A  
HETATM    8  C   UNL     1     -12.291   9.168  72.063  1.00  0.00    -0.448 C  
HETATM    9  C   UNL     1     -10.027   7.082  69.043  1.00  0.00    -0.164 A  
HETATM   10  C   UNL     1     -10.028   8.486  69.052  1.00  0.00    -0.197 A  
HETATM   11  C   UNL     1      -9.260   9.153  67.941  1.00  0.00    -0.144 C  
BRANCH   7  12
HETATM   12  C   UNL     1     -10.841  10.645  70.036  1.00  0.00    -0.280 C  
HETATM   13  C   UNL     1     -11.668  11.350  69.243  1.00  0.00    -0.404 C  
BRANCH  13  14
HETATM   14  C   UNL     1     -11.748  12.813  69.132  1.00  0.00    -0.375 C  
HETATM   15  C   UNL     1     -11.217  13.438  68.054  1.00  0.00    -0.298 C  
HETATM   16  C   UNL     1     -12.393  13.614  70.242  1.00  0.00    -0.392 C  
BRANCH  15  17
HETATM   17  C   UNL     1     -11.239  14.877  67.843  1.00  0.00    -0.324 C  
HETATM   18  C   UNL     1     -10.189  15.633  67.482  1.00  0.00    -0.263 C  
BRANCH  18  19
HETATM   19  C   UNL     1     -10.314  17.070  67.249  1.00  0.00    -0.311 C  
HETATM   20  C   UNL     1     -10.551  17.482  65.821  1.00  0.00    -0.176 C  
HETATM   21  C   UNL     1     -10.215  17.929  68.286  1.00  0.00    -0.391 C  
HETATM   22  C   UNL     1     -10.286  19.402  68.169  1.00  0.00    -0.431 C  
HETATM   23  O   UNL     1     -10.119  20.007  69.364  1.00  0.00    -0.306 OA 
HETATM   24  O   UNL     1     -10.460  20.028  67.137  1.00  0.00    -0.427 OA 
ENDBRANCH  18  19
ENDBRANCH  15  17
ENDBRANCH  13  14
ENDBRANCH   7  12
ENDBRANCH   2   3
TORSDOF 5
ENDMDL
MODEL       35
REMARK 921   NORMALIZED FREE ENERGY PREDICTED BY IDOCK:   -5.42 KCAL/MOL
REMARK 922        TOTAL FREE ENERGY PREDICTED BY IDOCK:   -7.79 KCAL/MOL
REMARK 923 INTER-LIGAND FREE ENERGY PREDICTED BY IDOCK:   -6.98 KCAL/MOL
REMARK 924 INTRA-LIGAND FREE ENERGY PREDICTED BY IDOCK:   -0.81 KCAL/MOL
REMARK 927      BINDING AFFINITY PREDICTED BY RF-SCORE:    0.00 PKD
ROOT
HETATM    1  C   UNL     1      -5.904  19.347  64.567  1.00  0.00    -0.279 C  
HETATM    2  O   UNL     1      -6.908  19.733  65.501  1.00  0.00    -0.271 OA 
ENDROOT
BRANCH   2   3
HETATM    3  C   UNL     1      -7.546  18.702  66.146  1.00  0.00    -0.246 A  
HETATM    4  C   UNL     1      -8.837  18.946  66.651  1.00  0.00    -0.319 A  
HETATM    5  C   UNL     1      -9.475  20.300  66.457  1.00  0.00    -0.460 C  
HETATM    6  C   UNL     1      -9.522  17.909  67.348  1.00  0.00    -0.258 A  
HETATM    7  C   UNL     1      -8.893  16.645  67.545  1.00  0.00    -0.202 A  
HETATM    8  C   UNL     1     -10.905  18.140  67.917  1.00  0.00    -0.225 C  
HETATM    9  C   UNL     1      -6.937  17.469  66.368  1.00  0.00    -0.315 A  
HETATM   10  C   UNL     1      -7.589  16.433  67.058  1.00  0.00    -0.240 A  
HETATM   11  C   UNL     1      -6.797  15.167  67.246  1.00  0.00    -0.075 C  
BRANCH   7  12
HETATM   12  C   UNL     1      -9.572  15.606  68.351  1.00  0.00    -0.199 C  
HETATM   13  C   UNL     1     -10.374  14.652  67.847  1.00  0.00    -0.237 C  
BRANCH  13  14
HETATM   14  C   UNL     1     -11.131  13.645  68.604  1.00  0.00    -0.299 C  
HETATM   15  C   UNL     1     -10.913  12.327  68.381  1.00  0.00    -0.270 C  
HETATM   16  C   UNL     1     -12.175  14.091  69.605  1.00  0.00    -0.383 C  
BRANCH  15  17
HETATM   17  C   UNL     1     -11.604  11.250  69.073  1.00  0.00    -0.386 C  
HETATM   18  C   UNL     1     -11.106  10.524  70.087  1.00  0.00    -0.369 C  
BRANCH  18  19
HETATM   19  C   UNL     1     -11.890   9.487  70.754  1.00  0.00    -0.350 C  
HETATM   20  C   UNL     1     -13.153   9.953  71.427  1.00  0.00    -0.500 C  
HETATM   21  C   UNL     1     -11.462   8.206  70.736  1.00  0.00    -0.272 C  
HETATM   22  C   UNL     1     -12.148   7.079  71.405  1.00  0.00    -0.355 C  
HETATM   23  O   UNL     1     -11.474   5.921  71.249  1.00  0.00    -0.235 OA 
HETATM   24  O   UNL     1     -13.187   7.152  72.038  1.00  0.00    -0.236 OA 
ENDBRANCH  18  19
ENDBRANCH  15  17
ENDBRANCH  13  14
ENDBRANCH   7  12
ENDBRANCH   2   3
TORSDOF 5
ENDMDL
MODEL       36
REMARK 921   NORMALIZED FREE ENERGY PREDICTED BY IDOCK:   -5.35 KCAL/MOL
REMARK 922        TOTAL FREE ENERGY PREDICTED BY IDOCK:   -7.71 KCAL/MOL
REMARK 923 INTER-LIGAND FREE ENERGY PREDICTED BY IDOCK:   -7.09 KCAL/MOL
REMARK 924 INTRA-LIGAND FREE ENERGY PREDICTED BY IDOCK:   -0.61 KCAL/MOL
REMARK 927      BINDING AFFINITY PREDICTED BY RF-SCORE:    0.00 PKD
ROOT
HETATM    1  C   UNL     1      -7.375  20.076  65.681  1.00  0.00    -0.291 C  
HETATM    2  O   UNL     1      -8.353  19.925  66.706  1.00  0.00    -0.297 OA 
ENDROOT
BRANCH   2   3
HETATM    3  C   UNL     1      -8.793  18.643  66.921  1.00  0.00    -0.287 A  
HETATM    4  C   UNL     1      -8.242  17.934  68.004  1.00  0.00    -0.257 A  
HETATM    5  C   UNL     1      -7.215  18.598  68.891  1.00  0.00    -0.311 C  
HETATM    6  C   UNL     1      -8.655  16.592  68.244  1.00  0.00    -0.212 A  
HETATM    7  C   UNL     1      -9.605  15.972  67.382  1.00  0.00    -0.225 A  
HETATM    8  C   UNL     1      -8.071  15.795  69.392  1.00  0.00    -0.209 C  
HETATM    9  C   UNL     1      -9.703  18.014  66.073  1.00  0.00    -0.130 A  
HETATM   10  C   UNL     1     -10.121  16.689  66.286  1.00  0.00    -0.342 A  
HETATM   11  C   UNL     1     -11.087  16.133  65.273  1.00  0.00    -0.187 C  
BRANCH   7  12
HETATM   12  C   UNL     1      -9.958  14.549  67.582  1.00  0.00    -0.224 C  
HETATM   13  C   UNL     1     -11.163  14.111  67.988  1.00  0.00    -0.302 C  
BRANCH  13  14
HETATM   14  C   UNL     1     -11.545  12.721  68.275  1.00  0.00    -0.375 C  
HETATM   15  C   UNL     1     -11.782  12.335  69.552  1.00  0.00    -0.398 C  
HETATM   16  C   UNL     1     -11.638  11.722  67.142  1.00  0.00    -0.342 C  
BRANCH  15  17
HETATM   17  C   UNL     1     -12.165  10.990  69.947  1.00  0.00    -0.408 C  
HETATM   18  C   UNL     1     -11.681  10.315  71.003  1.00  0.00    -0.461 C  
BRANCH  18  19
HETATM   19  C   UNL     1     -12.156   8.979  71.352  1.00  0.00    -0.392 C  
HETATM   20  C   UNL     1     -13.603   8.885  71.757  1.00  0.00    -0.461 C  
HETATM   21  C   UNL     1     -11.309   7.929  71.298  1.00  0.00    -0.289 C  
HETATM   22  C   UNL     1     -11.664   6.540  71.663  1.00  0.00    -0.324 C  
HETATM   23  O   UNL     1     -10.609   5.707  71.546  1.00  0.00    -0.230 OA 
HETATM   24  O   UNL     1     -12.760   6.160  72.040  1.00  0.00    -0.140 OA 
ENDBRANCH  18  19
ENDBRANCH  15  17
ENDBRANCH  13  14
ENDBRANCH   7  12
ENDBRANCH   2   3
TORSDOF 5
ENDMDL
MODEL       37
REMARK 921   NORMALIZED FREE ENERGY PREDICTED BY IDOCK:   -5.33 KCAL/MOL
REMARK 922        TOTAL FREE ENERGY PREDICTED BY IDOCK:   -7.67 KCAL/MOL
REMARK 923 INTER-LIGAND FREE ENERGY PREDICTED BY IDOCK:   -6.88 KCAL/MOL
REMARK 924 INTRA-LIGAND FREE ENERGY PREDICTED BY IDOCK:   -0.79 KCAL/MOL
REMARK 927      BINDING AFFINITY PREDICTED BY RF-SCORE:    0.00 PKD
ROOT
HETATM    1  C   UNL     1     -10.171  17.967  66.292  1.00  0.00    -0.381 C  
HETATM    2  O   UNL     1     -10.632  17.049  65.305  1.00  0.00    -0.647 OA 
ENDROOT
BRANCH   2   3
HETATM    3  C   UNL     1     -10.418  15.722  65.583  1.00  0.00    -0.383 A  
HETATM    4  C   UNL     1     -11.300  14.784  65.015  1.00  0.00    -0.391 A  
HETATM    5  C   UNL     1     -12.422  15.255  64.121  1.00  0.00     0.062 C  
HETATM    6  C   UNL     1     -11.126  13.400  65.301  1.00  0.00    -0.305 A  
HETATM    7  C   UNL     1     -10.079  12.975  66.169  1.00  0.00    -0.287 A  
HETATM    8  C   UNL     1     -12.066  12.364  64.720  1.00  0.00    -0.483 C  
HETATM    9  C   UNL     1      -9.414  15.293  66.448  1.00  0.00    -0.326 A  
HETATM   10  C   UNL     1      -9.226  13.933  66.750  1.00  0.00    -0.267 A  
HETATM   11  C   UNL     1      -8.119  13.621  67.721  1.00  0.00    -0.173 C  
BRANCH   7  12
HETATM   12  C   UNL     1      -9.963  11.546  66.536  1.00  0.00    -0.240 C  
HETATM   13  C   UNL     1     -10.599  10.970  67.572  1.00  0.00    -0.266 C  
BRANCH  13  14
HETATM   14  C   UNL     1     -10.463   9.579  68.026  1.00  0.00    -0.279 C  
HETATM   15  C   UNL     1     -10.155   9.318  69.319  1.00  0.00    -0.201 C  
HETATM   16  C   UNL     1     -10.636   8.448  67.036  1.00  0.00    -0.316 C  
BRANCH  15  17
HETATM   17  C   UNL     1      -9.997   7.984  69.875  1.00  0.00    -0.189 C  
HETATM   18  C   UNL     1     -10.912   7.325  70.604  1.00  0.00    -0.278 C  
BRANCH  18  19
HETATM   19  C   UNL     1     -10.685   5.965  71.086  1.00  0.00    -0.328 C  
HETATM   20  C   UNL     1     -10.162   4.989  70.067  1.00  0.00    -0.339 C  
HETATM   21  C   UNL     1     -10.944   5.657  72.375  1.00  0.00    -0.311 C  
HETATM   22  C   UNL     1     -10.790   4.310  72.968  1.00  0.00    -0.183 C  
HETATM   23  O   UNL     1     -11.157   4.291  74.266  1.00  0.00    -0.214 OA 
HETATM   24  O   UNL     1     -10.396   3.316  72.383  1.00  0.00    -0.152 OA 
ENDBRANCH  18  19
ENDBRANCH  15  17
ENDBRANCH  13  14
ENDBRANCH   7  12
ENDBRANCH   2   3
TORSDOF 5
ENDMDL
MODEL       38
REMARK 921   NORMALIZED FREE ENERGY PREDICTED BY IDOCK:   -5.31 KCAL/MOL
REMARK 922        TOTAL FREE ENERGY PREDICTED BY IDOCK:   -7.65 KCAL/MOL
REMARK 923 INTER-LIGAND FREE ENERGY PREDICTED BY IDOCK:   -6.87 KCAL/MOL
REMARK 924 INTRA-LIGAND FREE ENERGY PREDICTED BY IDOCK:   -0.78 KCAL/MOL
REMARK 927      BINDING AFFINITY PREDICTED BY RF-SCORE:    0.00 PKD
ROOT
HETATM    1  C   UNL     1     -11.929   6.607  70.727  1.00  0.00    -0.353 C  
HETATM    2  O   UNL     1     -12.008   7.886  71.351  1.00  0.00    -0.291 OA 
ENDROOT
BRANCH   2   3
HETATM    3  C   UNL     1     -11.595   8.946  70.584  1.00  0.00    -0.215 A  
HETATM    4  C   UNL     1     -12.108  10.219  70.896  1.00  0.00    -0.468 A  
HETATM    5  C   UNL     1     -13.065  10.379  72.053  1.00  0.00    -0.521 C  
HETATM    6  C   UNL     1     -11.722  11.340  70.107  1.00  0.00    -0.429 A  
HETATM    7  C   UNL     1     -10.839  11.167  69.002  1.00  0.00    -0.276 A  
HETATM    8  C   UNL     1     -12.267  12.722  70.405  1.00  0.00    -0.371 C  
HETATM    9  C   UNL     1     -10.752   8.790  69.486  1.00  0.00    -0.196 A  
HETATM   10  C   UNL     1     -10.362   9.880  68.689  1.00  0.00    -0.217 A  
HETATM   11  C   UNL     1      -9.469   9.555  67.521  1.00  0.00    -0.155 C  
BRANCH   7  12
HETATM   12  C   UNL     1     -10.519  12.320  68.131  1.00  0.00    -0.228 C  
HETATM   13  C   UNL     1      -9.387  13.042  68.207  1.00  0.00    -0.199 C  
BRANCH  13  14
HETATM   14  C   UNL     1      -9.050  14.238  67.422  1.00  0.00    -0.199 C  
HETATM   15  C   UNL     1      -8.037  15.045  67.821  1.00  0.00    -0.160 C  
HETATM   16  C   UNL     1      -9.861  14.578  66.190  1.00  0.00    -0.339 C  
BRANCH  15  17
HETATM   17  C   UNL     1      -7.621  16.249  67.121  1.00  0.00    -0.230 C  
HETATM   18  C   UNL     1      -7.790  17.508  67.558  1.00  0.00    -0.210 C  
BRANCH  18  19
HETATM   19  C   UNL     1      -7.299  18.661  66.808  1.00  0.00    -0.234 C  
HETATM   20  C   UNL     1      -7.439  19.994  67.492  1.00  0.00    -0.322 C  
HETATM   21  C   UNL     1      -6.761  18.484  65.582  1.00  0.00    -0.300 C  
HETATM   22  C   UNL     1      -6.266  19.575  64.714  1.00  0.00    -0.270 C  
HETATM   23  O   UNL     1      -5.816  19.107  63.531  1.00  0.00    -0.430 OA 
HETATM   24  O   UNL     1      -6.260  20.762  64.994  1.00  0.00    -0.258 OA 
ENDBRANCH  18  19
ENDBRANCH  15  17
ENDBRANCH  13  14
ENDBRANCH   7  12
ENDBRANCH   2   3
TORSDOF 5
ENDMDL
MODEL       39
REMARK 921   NORMALIZED FREE ENERGY PREDICTED BY IDOCK:   -5.19 KCAL/MOL
REMARK 922        TOTAL FREE ENERGY PREDICTED BY IDOCK:   -7.50 KCAL/MOL
REMARK 923 INTER-LIGAND FREE ENERGY PREDICTED BY IDOCK:   -6.80 KCAL/MOL
REMARK 924 INTRA-LIGAND FREE ENERGY PREDICTED BY IDOCK:   -0.70 KCAL/MOL
REMARK 927      BINDING AFFINITY PREDICTED BY RF-SCORE:    0.00 PKD
ROOT
HETATM    1  C   UNL     1     -14.350  15.181  71.902  1.00  0.00    -0.596 C  
HETATM    2  O   UNL     1     -12.960  15.145  71.591  1.00  0.00    -0.322 OA 
ENDROOT
BRANCH   2   3
HETATM    3  C   UNL     1     -12.557  14.101  70.796  1.00  0.00    -0.362 A  
HETATM    4  C   UNL     1     -12.078  14.406  69.509  1.00  0.00    -0.366 A  
HETATM    5  C   UNL     1     -12.008  15.845  69.056  1.00  0.00    -0.243 C  
HETATM    6  C   UNL     1     -11.674  13.348  68.645  1.00  0.00    -0.384 A  
HETATM    7  C   UNL     1     -11.773  11.994  69.079  1.00  0.00    -0.382 A  
HETATM    8  C   UNL     1     -11.168  13.638  67.248  1.00  0.00    -0.329 C  
HETATM    9  C   UNL     1     -12.669  12.771  71.196  1.00  0.00    -0.355 A  
HETATM   10  C   UNL     1     -12.283  11.710  70.360  1.00  0.00    -0.434 A  
HETATM   11  C   UNL     1     -12.487  10.326  70.916  1.00  0.00    -0.466 C  
BRANCH   7  12
HETATM   12  C   UNL     1     -11.441  10.897  68.142  1.00  0.00    -0.368 C  
HETATM   13  C   UNL     1     -10.351  10.115  68.239  1.00  0.00    -0.215 C  
BRANCH  13  14
HETATM   14  C   UNL     1      -9.933   9.065  67.299  1.00  0.00    -0.275 C  
HETATM   15  C   UNL     1     -10.447   7.817  67.409  1.00  0.00    -0.362 C  
HETATM   16  C   UNL     1      -8.903   9.380  66.236  1.00  0.00    -0.172 C  
BRANCH  15  17
HETATM   17  C   UNL     1     -10.105   6.706  66.535  1.00  0.00    -0.140 C  
HETATM   18  C   UNL     1     -10.282   5.405  66.816  1.00  0.00    -0.282 C  
BRANCH  18  19
HETATM   19  C   UNL     1      -9.949   4.354  65.857  1.00  0.00    -0.255 C  
HETATM   20  C   UNL     1     -10.910   4.185  64.712  1.00  0.00    -0.118 C  
HETATM   21  C   UNL     1      -8.836   3.611  66.035  1.00  0.00    -0.126 C  
HETATM   22  C   UNL     1      -8.416   2.498  65.156  1.00  0.00    -0.099 C  
HETATM   23  O   UNL     1      -7.283   1.912  65.598  1.00  0.00    -0.053 OA 
HETATM   24  O   UNL     1      -9.001   2.120  64.156  1.00  0.00    -0.096 OA 
ENDBRANCH  18  19
ENDBRANCH  15  17
ENDBRANCH  13  14
ENDBRANCH   7  12
ENDBRANCH   2   3
TORSDOF 5
ENDMDL
MODEL       40
REMARK 921   NORMALIZED FREE ENERGY PREDICTED BY IDOCK:   -5.17 KCAL/MOL
REMARK 922        TOTAL FREE ENERGY PREDICTED BY IDOCK:   -7.47 KCAL/MOL
REMARK 923 INTER-LIGAND FREE ENERGY PREDICTED BY IDOCK:   -6.66 KCAL/MOL
REMARK 924 INTRA-LIGAND FREE ENERGY PREDICTED BY IDOCK:   -0.80 KCAL/MOL
REMARK 927      BINDING AFFINITY PREDICTED BY RF-SCORE:    0.00 PKD
ROOT
HETATM    1  C   UNL     1      -6.169   6.059  64.665  1.00  0.00    -0.030 C  
HETATM    2  O   UNL     1      -6.947   6.869  63.788  1.00  0.00    -0.051 OA 
ENDROOT
BRANCH   2   3
HETATM    3  C   UNL     1      -7.879   7.673  64.394  1.00  0.00    -0.137 A  
HETATM    4  C   UNL     1      -8.225   8.876  63.749  1.00  0.00    -0.172 A  
HETATM    5  C   UNL     1      -7.584   9.229  62.428  1.00  0.00    -0.109 C  
HETATM    6  C   UNL     1      -9.170   9.749  64.359  1.00  0.00    -0.301 A  
HETATM    7  C   UNL     1      -9.744   9.413  65.619  1.00  0.00    -0.336 A  
HETATM    8  C   UNL     1      -9.553  11.058  63.701  1.00  0.00    -0.324 C  
HETATM    9  C   UNL     1      -8.432   7.371  65.637  1.00  0.00    -0.137 A  
HETATM   10  C   UNL     1      -9.361   8.219  66.262  1.00  0.00    -0.267 A  
HETATM   11  C   UNL     1      -9.852   7.776  67.614  1.00  0.00    -0.208 C  
BRANCH   7  12
HETATM   12  C   UNL     1     -10.653  10.369  66.291  1.00  0.00    -0.180 C  
HETATM   13  C   UNL     1     -10.255  11.326  67.148  1.00  0.00    -0.235 C  
BRANCH  13  14
HETATM   14  C   UNL     1     -11.117  12.251  67.898  1.00  0.00    -0.290 C  
HETATM   15  C   UNL     1     -11.290  12.080  69.231  1.00  0.00    -0.330 C  
HETATM   16  C   UNL     1     -11.832  13.367  67.168  1.00  0.00    -0.429 C  
BRANCH  15  17
HETATM   17  C   UNL     1     -12.118  12.933  70.069  1.00  0.00    -0.357 C  
HETATM   18  C   UNL     1     -11.667  13.844  70.947  1.00  0.00    -0.067 C  
BRANCH  18  19
HETATM   19  C   UNL     1     -12.574  14.691  71.718  1.00  0.00    -0.407 C  
HETATM   20  C   UNL     1     -14.012  14.681  71.276  1.00  0.00    -0.400 C  
HETATM   21  C   UNL     1     -12.098  15.416  72.753  1.00  0.00    -0.539 C  
HETATM   22  C   UNL     1     -12.909  16.336  73.581  1.00  0.00    -0.478 C  
HETATM   23  O   UNL     1     -12.162  16.953  74.519  1.00  0.00    -0.644 OA 
HETATM   24  O   UNL     1     -14.103  16.545  73.452  1.00  0.00    -0.237 OA 
ENDBRANCH  18  19
ENDBRANCH  15  17
ENDBRANCH  13  14
ENDBRANCH   7  12
ENDBRANCH   2   3
TORSDOF 5
ENDMDL
MODEL       41
REMARK 921   NORMALIZED FREE ENERGY PREDICTED BY IDOCK:   -5.16 KCAL/MOL
REMARK 922        TOTAL FREE ENERGY PREDICTED BY IDOCK:   -7.46 KCAL/MOL
REMARK 923 INTER-LIGAND FREE ENERGY PREDICTED BY IDOCK:   -7.01 KCAL/MOL
REMARK 924 INTRA-LIGAND FREE ENERGY PREDICTED BY IDOCK:   -0.44 KCAL/MOL
REMARK 927      BINDING AFFINITY PREDICTED BY RF-SCORE:    0.00 PKD
ROOT
HETATM    1  C   UNL     1     -10.376   1.538  72.177  1.00  0.00    -0.154 C  
HETATM    2  O   UNL     1     -10.020   2.714  72.897  1.00  0.00    -0.114 OA 
ENDROOT
BRANCH   2   3
HETATM    3  C   UNL     1     -10.045   3.882  72.175  1.00  0.00    -0.155 A  
HETATM    4  C   UNL     1     -10.303   5.077  72.871  1.00  0.00    -0.238 A  
HETATM    5  C   UNL     1     -10.524   5.042  74.364  1.00  0.00    -0.313 C  
HETATM    6  C   UNL     1     -10.362   6.305  72.153  1.00  0.00    -0.218 A  
HETATM    7  C   UNL     1     -10.178   6.316  70.740  1.00  0.00    -0.238 A  
HETATM    8  C   UNL     1     -10.653   7.608  72.867  1.00  0.00    -0.411 C  
HETATM    9  C   UNL     1      -9.891   3.907  70.790  1.00  0.00    -0.211 A  
HETATM   10  C   UNL     1      -9.951   5.105  70.059  1.00  0.00    -0.326 A  
HETATM   11  C   UNL     1      -9.793   4.974  68.567  1.00  0.00    -0.216 C  
BRANCH   7  12
HETATM   12  C   UNL     1     -10.334   7.582  69.989  1.00  0.00    -0.222 C  
HETATM   13  C   UNL     1      -9.481   8.021  69.046  1.00  0.00    -0.151 C  
BRANCH  13  14
HETATM   14  C   UNL     1      -9.545   9.300  68.326  1.00  0.00    -0.160 C  
HETATM   15  C   UNL     1     -10.691   9.668  67.704  1.00  0.00    -0.324 C  
HETATM   16  C   UNL     1      -8.318  10.182  68.256  1.00  0.00    -0.115 C  
BRANCH  15  17
HETATM   17  C   UNL     1     -10.865  10.908  66.965  1.00  0.00    -0.323 C  
HETATM   18  C   UNL     1     -11.643  11.938  67.335  1.00  0.00    -0.367 C  
BRANCH  18  19
HETATM   19  C   UNL     1     -11.723  13.168  66.550  1.00  0.00    -0.433 C  
HETATM   20  C   UNL     1     -11.460  14.444  67.305  1.00  0.00    -0.377 C  
HETATM   21  C   UNL     1     -12.018  13.107  65.234  1.00  0.00    -0.437 C  
HETATM   22  C   UNL     1     -12.164  14.282  64.347  1.00  0.00    -0.447 C  
HETATM   23  O   UNL     1     -12.497  13.921  63.090  1.00  0.00    -0.766 OA 
HETATM   24  O   UNL     1     -12.021  15.447  64.679  1.00  0.00    -0.298 OA 
ENDBRANCH  18  19
ENDBRANCH  15  17
ENDBRANCH  13  14
ENDBRANCH   7  12
ENDBRANCH   2   3
TORSDOF 5
ENDMDL
MODEL       42
REMARK 921   NORMALIZED FREE ENERGY PREDICTED BY IDOCK:   -4.99 KCAL/MOL
REMARK 922        TOTAL FREE ENERGY PREDICTED BY IDOCK:   -7.24 KCAL/MOL
REMARK 923 INTER-LIGAND FREE ENERGY PREDICTED BY IDOCK:   -6.41 KCAL/MOL
REMARK 924 INTRA-LIGAND FREE ENERGY PREDICTED BY IDOCK:   -0.83 KCAL/MOL
REMARK 927      BINDING AFFINITY PREDICTED BY RF-SCORE:    0.00 PKD
ROOT
HETATM    1  C   UNL     1     -10.641  19.724  65.740  1.00  0.00    -0.419 C  
HETATM    2  O   UNL     1      -9.451  19.041  66.126  1.00  0.00    -0.403 OA 
ENDROOT
BRANCH   2   3
HETATM    3  C   UNL     1      -9.610  17.725  66.479  1.00  0.00    -0.308 A  
HETATM    4  C   UNL     1      -8.968  17.278  67.649  1.00  0.00    -0.224 A  
HETATM    5  C   UNL     1      -8.153  18.246  68.473  1.00  0.00    -0.330 C  
HETATM    6  C   UNL     1      -9.089  15.912  68.034  1.00  0.00    -0.184 A  
HETATM    7  C   UNL     1      -9.840  15.007  67.230  1.00  0.00    -0.228 A  
HETATM    8  C   UNL     1      -8.399  15.394  69.279  1.00  0.00    -0.254 C  
HETATM    9  C   UNL     1     -10.321  16.821  65.691  1.00  0.00    -0.284 A  
HETATM   10  C   UNL     1     -10.449  15.468  66.048  1.00  0.00    -0.335 A  
HETATM   11  C   UNL     1     -11.223  14.604  65.087  1.00  0.00    -0.374 C  
BRANCH   7  12
HETATM   12  C   UNL     1      -9.882  13.571  67.587  1.00  0.00    -0.228 C  
HETATM   13  C   UNL     1     -10.896  12.977  68.242  1.00  0.00    -0.267 C  
BRANCH  13  14
HETATM   14  C   UNL     1     -10.958  11.577  68.687  1.00  0.00    -0.270 C  
HETATM   15  C   UNL     1     -10.085  10.670  68.186  1.00  0.00    -0.179 C  
HETATM   16  C   UNL     1     -12.020  11.153  69.677  1.00  0.00    -0.429 C  
BRANCH  15  17
HETATM   17  C   UNL     1     -10.057   9.264  68.556  1.00  0.00    -0.211 C  
HETATM   18  C   UNL     1     -10.507   8.247  67.804  1.00  0.00    -0.280 C  
BRANCH  18  19
HETATM   19  C   UNL     1     -10.399   6.856  68.237  1.00  0.00    -0.220 C  
HETATM   20  C   UNL     1     -10.290   5.835  67.137  1.00  0.00    -0.293 C  
HETATM   21  C   UNL     1     -10.400   6.561  69.555  1.00  0.00    -0.237 C  
HETATM   22  C   UNL     1     -10.334   5.193  70.112  1.00  0.00    -0.270 C  
HETATM   23  O   UNL     1     -10.389   5.199  71.461  1.00  0.00    -0.210 OA 
HETATM   24  O   UNL     1     -10.251   4.163  69.465  1.00  0.00     0.031 OA 
ENDBRANCH  18  19
ENDBRANCH  15  17
ENDBRANCH  13  14
ENDBRANCH   7  12
ENDBRANCH   2   3
TORSDOF 5
ENDMDL
MODEL       43
REMARK 921   NORMALIZED FREE ENERGY PREDICTED BY IDOCK:   -4.99 KCAL/MOL
REMARK 922        TOTAL FREE ENERGY PREDICTED BY IDOCK:   -7.24 KCAL/MOL
REMARK 923 INTER-LIGAND FREE ENERGY PREDICTED BY IDOCK:   -6.44 KCAL/MOL
REMARK 924 INTRA-LIGAND FREE ENERGY PREDICTED BY IDOCK:   -0.80 KCAL/MOL
REMARK 927      BINDING AFFINITY PREDICTED BY RF-SCORE:    0.00 PKD
ROOT
HETATM    1  C   UNL     1     -10.500  19.116  66.313  1.00  0.00    -0.467 C  
HETATM    2  O   UNL     1     -10.263  17.992  65.470  1.00  0.00    -0.556 OA 
ENDROOT
BRANCH   2   3
HETATM    3  C   UNL     1     -10.201  16.777  66.104  1.00  0.00    -0.351 A  
HETATM    4  C   UNL     1     -10.892  15.698  65.522  1.00  0.00    -0.356 A  
HETATM    5  C   UNL     1     -11.651  15.902  64.233  1.00  0.00    -0.179 C  
HETATM    6  C   UNL     1     -10.872  14.427  66.164  1.00  0.00    -0.309 A  
HETATM    7  C   UNL     1     -10.173  14.259  67.395  1.00  0.00    -0.247 A  
HETATM    8  C   UNL     1     -11.617  13.248  65.574  1.00  0.00    -0.351 C  
HETATM    9  C   UNL     1      -9.542  16.602  67.320  1.00  0.00    -0.243 A  
HETATM   10  C   UNL     1      -9.514  15.359  67.976  1.00  0.00    -0.201 A  
HETATM   11  C   UNL     1      -8.786  15.327  69.293  1.00  0.00    -0.242 C  
BRANCH   7  12
HETATM   12  C   UNL     1     -10.236  12.961  68.103  1.00  0.00    -0.239 C  
HETATM   13  C   UNL     1      -9.320  11.983  67.986  1.00  0.00    -0.196 C  
BRANCH  13  14
HETATM   14  C   UNL     1      -9.371  10.650  68.604  1.00  0.00    -0.177 C  
HETATM   15  C   UNL     1     -10.177  10.430  69.670  1.00  0.00    -0.245 C  
HETATM   16  C   UNL     1      -8.494   9.541  68.064  1.00  0.00    -0.119 C  
BRANCH  15  17
HETATM   17  C   UNL     1     -10.304   9.155  70.357  1.00  0.00    -0.269 C  
HETATM   18  C   UNL     1     -11.432   8.663  70.894  1.00  0.00    -0.315 C  
BRANCH  18  19
HETATM   19  C   UNL     1     -11.478   7.348  71.529  1.00  0.00    -0.292 C  
HETATM   20  C   UNL     1     -12.853   6.783  71.765  1.00  0.00    -0.307 C  
HETATM   21  C   UNL     1     -10.329   6.722  71.861  1.00  0.00    -0.217 C  
HETATM   22  C   UNL     1     -10.249   5.410  72.540  1.00  0.00    -0.195 C  
HETATM   23  O   UNL     1      -8.972   5.048  72.779  1.00  0.00    -0.121 OA 
HETATM   24  O   UNL     1     -11.198   4.719  72.868  1.00  0.00    -0.243 OA 
ENDBRANCH  18  19
ENDBRANCH  15  17
ENDBRANCH  13  14
ENDBRANCH   7  12
ENDBRANCH   2   3
TORSDOF 5
ENDMDL
MODEL       44
REMARK 921   NORMALIZED FREE ENERGY PREDICTED BY IDOCK:   -4.99 KCAL/MOL
REMARK 922        TOTAL FREE ENERGY PREDICTED BY IDOCK:   -7.23 KCAL/MOL
REMARK 923 INTER-LIGAND FREE ENERGY PREDICTED BY IDOCK:   -6.50 KCAL/MOL
REMARK 924 INTRA-LIGAND FREE ENERGY PREDICTED BY IDOCK:   -0.74 KCAL/MOL
REMARK 927      BINDING AFFINITY PREDICTED BY RF-SCORE:    0.00 PKD
ROOT
HETATM    1  C   UNL     1     -10.625  18.468  66.020  1.00  0.00    -0.331 C  
HETATM    2  O   UNL     1      -9.825  17.395  65.531  1.00  0.00    -0.536 OA 
ENDROOT
BRANCH   2   3
HETATM    3  C   UNL     1     -10.064  16.169  66.099  1.00  0.00    -0.338 A  
HETATM    4  C   UNL     1      -9.144  15.699  67.054  1.00  0.00    -0.239 A  
HETATM    5  C   UNL     1      -7.954  16.550  67.431  1.00  0.00    -0.175 C  
HETATM    6  C   UNL     1      -9.345  14.420  67.648  1.00  0.00    -0.200 A  
HETATM    7  C   UNL     1     -10.459  13.620  67.261  1.00  0.00    -0.260 A  
HETATM    8  C   UNL     1      -8.367  13.877  68.668  1.00  0.00    -0.088 C  
HETATM    9  C   UNL     1     -11.135  15.364  65.714  1.00  0.00    -0.260 A  
HETATM   10  C   UNL     1     -11.350  14.096  66.281  1.00  0.00    -0.340 A  
HETATM   11  C   UNL     1     -12.531  13.329  65.748  1.00  0.00    -0.480 C  
BRANCH   7  12
HETATM   12  C   UNL     1     -10.608  12.254  67.812  1.00  0.00    -0.241 C  
HETATM   13  C   UNL     1     -11.248  11.959  68.958  1.00  0.00    -0.316 C  
BRANCH  13  14
HETATM   14  C   UNL     1     -11.361  10.637  69.589  1.00  0.00    -0.360 C  
HETATM   15  C   UNL     1     -10.696   9.579  69.065  1.00  0.00    -0.224 C  
HETATM   16  C   UNL     1     -12.249  10.460  70.801  1.00  0.00    -0.457 C  
BRANCH  15  17
HETATM   17  C   UNL     1     -10.736   8.231  69.607  1.00  0.00    -0.196 C  
HETATM   18  C   UNL     1      -9.668   7.489  69.943  1.00  0.00    -0.171 C  
BRANCH  18  19
HETATM   19  C   UNL     1      -9.804   6.156  70.524  1.00  0.00    -0.214 C  
HETATM   20  C   UNL     1      -9.317   5.017  69.669  1.00  0.00    -0.184 C  
HETATM   21  C   UNL     1     -10.339   6.011  71.755  1.00  0.00    -0.259 C  
HETATM   22  C   UNL     1     -10.561   4.713  72.431  1.00  0.00    -0.157 C  
HETATM   23  O   UNL     1     -11.144   4.872  73.637  1.00  0.00    -0.311 OA 
HETATM   24  O   UNL     1     -10.278   3.617  71.979  1.00  0.00    -0.161 OA 
ENDBRANCH  18  19
ENDBRANCH  15  17
ENDBRANCH  13  14
ENDBRANCH   7  12
ENDBRANCH   2   3
TORSDOF 5
ENDMDL
MODEL       45
REMARK 921   NORMALIZED FREE ENERGY PREDICTED BY IDOCK:   -4.98 KCAL/MOL
REMARK 922        TOTAL FREE ENERGY PREDICTED BY IDOCK:   -7.22 KCAL/MOL
REMARK 923 INTER-LIGAND FREE ENERGY PREDICTED BY IDOCK:   -6.61 KCAL/MOL
REMARK 924 INTRA-LIGAND FREE ENERGY PREDICTED BY IDOCK:   -0.61 KCAL/MOL
REMARK 927      BINDING AFFINITY PREDICTED BY RF-SCORE:    0.00 PKD
ROOT
HETATM    1  C   UNL     1     -11.693   5.908  72.439  1.00  0.00    -0.253 C  
HETATM    2  O   UNL     1     -10.964   6.141  71.237  1.00  0.00    -0.260 OA 
ENDROOT
BRANCH   2   3
HETATM    3  C   UNL     1     -11.159   7.367  70.653  1.00  0.00    -0.266 A  
HETATM    4  C   UNL     1     -10.617   7.576  69.371  1.00  0.00    -0.225 A  
HETATM    5  C   UNL     1      -9.868   6.459  68.683  1.00  0.00    -0.152 C  
HETATM    6  C   UNL     1     -10.776   8.844  68.742  1.00  0.00    -0.123 A  
HETATM    7  C   UNL     1     -11.463   9.894  69.417  1.00  0.00    -0.079 A  
HETATM    8  C   UNL     1     -10.193   9.107  67.370  1.00  0.00    -0.310 C  
HETATM    9  C   UNL     1     -11.806   8.413  71.309  1.00  0.00    -0.327 A  
HETATM   10  C   UNL     1     -11.970   9.674  70.712  1.00  0.00    -0.356 A  
HETATM   11  C   UNL     1     -12.666  10.713  71.550  1.00  0.00    -0.549 C  
BRANCH   7  12
HETATM   12  C   UNL     1     -11.542  11.236  68.798  1.00  0.00    -0.383 C  
HETATM   13  C   UNL     1     -10.520  12.109  68.734  1.00  0.00    -0.201 C  
BRANCH  13  14
HETATM   14  C   UNL     1     -10.561  13.478  68.201  1.00  0.00    -0.253 C  
HETATM   15  C   UNL     1      -9.513  14.312  68.400  1.00  0.00    -0.213 C  
HETATM   16  C   UNL     1     -11.792  13.955  67.461  1.00  0.00    -0.431 C  
BRANCH  15  17
HETATM   17  C   UNL     1      -9.449  15.682  67.918  1.00  0.00    -0.204 C  
HETATM   18  C   UNL     1      -9.031  16.744  68.626  1.00  0.00    -0.251 C  
BRANCH  18  19
HETATM   19  C   UNL     1      -8.958  18.082  68.046  1.00  0.00    -0.274 C  
HETATM   20  C   UNL     1      -9.742  19.150  68.761  1.00  0.00    -0.491 C  
HETATM   21  C   UNL     1      -8.218  18.293  66.936  1.00  0.00    -0.260 C  
HETATM   22  C   UNL     1      -8.098  19.592  66.238  1.00  0.00    -0.334 C  
HETATM   23  O   UNL     1      -7.322  19.498  65.138  1.00  0.00    -0.363 OA 
HETATM   24  O   UNL     1      -8.629  20.635  66.577  1.00  0.00    -0.057 OA 
ENDBRANCH  18  19
ENDBRANCH  15  17
ENDBRANCH  13  14
ENDBRANCH   7  12
ENDBRANCH   2   3
TORSDOF 5
ENDMDL
MODEL       46
REMARK 921   NORMALIZED FREE ENERGY PREDICTED BY IDOCK:   -4.97 KCAL/MOL
REMARK 922        TOTAL FREE ENERGY PREDICTED BY IDOCK:   -7.21 KCAL/MOL
REMARK 923 INTER-LIGAND FREE ENERGY PREDICTED BY IDOCK:   -6.87 KCAL/MOL
REMARK 924 INTRA-LIGAND FREE ENERGY PREDICTED BY IDOCK:   -0.34 KCAL/MOL
REMARK 927      BINDING AFFINITY PREDICTED BY RF-SCORE:    0.00 PKD
ROOT
HETATM    1  C   UNL     1     -12.685  15.498  73.714  1.00  0.00    -0.597 C  
HETATM    2  O   UNL     1     -13.669  14.796  72.959  1.00  0.00    -0.524 OA 
ENDROOT
BRANCH   2   3
HETATM    3  C   UNL     1     -13.185  13.854  72.086  1.00  0.00    -0.444 A  
HETATM    4  C   UNL     1     -12.607  14.308  70.886  1.00  0.00    -0.426 A  
HETATM    5  C   UNL     1     -12.523  15.790  70.609  1.00  0.00    -0.397 C  
HETATM    6  C   UNL     1     -12.116  13.360  69.943  1.00  0.00    -0.389 A  
HETATM    7  C   UNL     1     -12.229  11.965  70.209  1.00  0.00    -0.353 A  
HETATM    8  C   UNL     1     -11.502  13.814  68.636  1.00  0.00    -0.336 C  
HETATM    9  C   UNL     1     -13.309  12.485  72.319  1.00  0.00    -0.475 A  
HETATM   10  C   UNL     1     -12.838  11.531  71.402  1.00  0.00    -0.489 A  
HETATM   11  C   UNL     1     -13.065  10.090  71.776  1.00  0.00    -0.562 C  
BRANCH   7  12
HETATM   12  C   UNL     1     -11.803  10.986  69.184  1.00  0.00    -0.407 C  
HETATM   13  C   UNL     1     -10.601  10.383  69.157  1.00  0.00    -0.255 C  
BRANCH  13  14
HETATM   14  C   UNL     1     -10.099   9.464  68.125  1.00  0.00    -0.215 C  
HETATM   15  C   UNL     1      -9.292   9.929  67.142  1.00  0.00    -0.170 C  
HETATM   16  C   UNL     1     -10.516   8.010  68.151  1.00  0.00    -0.222 C  
BRANCH  15  17
HETATM   17  C   UNL     1      -8.739   9.111  66.075  1.00  0.00    -0.176 C  
HETATM   18  C   UNL     1      -7.813   9.504  65.185  1.00  0.00    -0.113 C  
BRANCH  18  19
HETATM   19  C   UNL     1      -7.281   8.598  64.170  1.00  0.00    -0.092 C  
HETATM   20  C   UNL     1      -7.585   8.965  62.742  1.00  0.00    -0.109 C  
HETATM   21  C   UNL     1      -6.568   7.514  64.544  1.00  0.00    -0.044 C  
HETATM   22  C   UNL     1      -6.012   6.508  63.613  1.00  0.00    -0.030 C  
HETATM   23  O   UNL     1      -5.377   5.516  64.271  1.00  0.00    -0.012 OA 
HETATM   24  O   UNL     1      -6.107   6.533  62.398  1.00  0.00    -0.030 OA 
ENDBRANCH  18  19
ENDBRANCH  15  17
ENDBRANCH  13  14
ENDBRANCH   7  12
ENDBRANCH   2   3
TORSDOF 5
ENDMDL
MODEL       47
REMARK 921   NORMALIZED FREE ENERGY PREDICTED BY IDOCK:   -4.95 KCAL/MOL
REMARK 922        TOTAL FREE ENERGY PREDICTED BY IDOCK:   -7.18 KCAL/MOL
REMARK 923 INTER-LIGAND FREE ENERGY PREDICTED BY IDOCK:   -6.36 KCAL/MOL
REMARK 924 INTRA-LIGAND FREE ENERGY PREDICTED BY IDOCK:   -0.82 KCAL/MOL
REMARK 927      BINDING AFFINITY PREDICTED BY RF-SCORE:    0.00 PKD
ROOT
HETATM    1  C   UNL     1     -10.573  17.486  67.641  1.00  0.00    -0.355 C  
HETATM    2  O   UNL     1     -11.490  16.875  68.544  1.00  0.00    -0.130 OA 
ENDROOT
BRANCH   2   3
HETATM    3  C   UNL     1     -11.546  15.505  68.496  1.00  0.00    -0.368 A  
HETATM    4  C   UNL     1     -11.950  14.825  69.660  1.00  0.00    -0.360 A  
HETATM    5  C   UNL     1     -12.320  15.609  70.897  1.00  0.00    -0.479 C  
HETATM    6  C   UNL     1     -11.996  13.401  69.658  1.00  0.00    -0.386 A  
HETATM    7  C   UNL     1     -11.619  12.676  68.491  1.00  0.00    -0.363 A  
HETATM    8  C   UNL     1     -12.412  12.637  70.897  1.00  0.00    -0.368 C  
HETATM    9  C   UNL     1     -11.157  14.780  67.371  1.00  0.00    -0.327 A  
HETATM   10  C   UNL     1     -11.188  13.375  67.347  1.00  0.00    -0.311 A  
HETATM   11  C   UNL     1     -10.714  12.729  66.072  1.00  0.00    -0.295 C  
BRANCH   7  12
HETATM   12  C   UNL     1     -11.579  11.197  68.526  1.00  0.00    -0.385 C  
HETATM   13  C   UNL     1     -10.503  10.471  68.879  1.00  0.00    -0.226 C  
BRANCH  13  14
HETATM   14  C   UNL     1     -10.383   9.006  68.859  1.00  0.00    -0.232 C  
HETATM   15  C   UNL     1      -9.858   8.386  67.776  1.00  0.00    -0.218 C  
HETATM   16  C   UNL     1     -10.881   8.199  70.039  1.00  0.00    -0.233 C  
BRANCH  15  17
HETATM   17  C   UNL     1      -9.693   6.946  67.651  1.00  0.00    -0.151 C  
HETATM   18  C   UNL     1     -10.284   6.167  66.731  1.00  0.00    -0.264 C  
BRANCH  18  19
HETATM   19  C   UNL     1     -10.026   4.731  66.652  1.00  0.00    -0.259 C  
HETATM   20  C   UNL     1     -10.273   4.095  65.310  1.00  0.00    -0.204 C  
HETATM   21  C   UNL     1      -9.593   4.065  67.744  1.00  0.00    -0.204 C  
HETATM   22  C   UNL     1      -9.335   2.609  67.796  1.00  0.00    -0.181 C  
HETATM   23  O   UNL     1      -8.947   2.215  69.027  1.00  0.00    -0.085 OA 
HETATM   24  O   UNL     1      -9.459   1.830  66.867  1.00  0.00     0.021 OA 
ENDBRANCH  18  19
ENDBRANCH  15  17
ENDBRANCH  13  14
ENDBRANCH   7  12
ENDBRANCH   2   3
TORSDOF 5
ENDMDL
MODEL       48
REMARK 921   NORMALIZED FREE ENERGY PREDICTED BY IDOCK:   -4.94 KCAL/MOL
REMARK 922        TOTAL FREE ENERGY PREDICTED BY IDOCK:   -7.17 KCAL/MOL
REMARK 923 INTER-LIGAND FREE ENERGY PREDICTED BY IDOCK:   -6.33 KCAL/MOL
REMARK 924 INTRA-LIGAND FREE ENERGY PREDICTED BY IDOCK:   -0.84 KCAL/MOL
REMARK 927      BINDING AFFINITY PREDICTED BY RF-SCORE:    0.00 PKD
ROOT
HETATM    1  C   UNL     1      -9.972   4.544  65.996  1.00  0.00    -0.248 C  
HETATM    2  O   UNL     1      -8.815   5.374  66.048  1.00  0.00    -0.134 OA 
ENDROOT
BRANCH   2   3
HETATM    3  C   UNL     1      -9.055   6.723  66.127  1.00  0.00    -0.109 A  
HETATM    4  C   UNL     1      -8.496   7.547  65.132  1.00  0.00    -0.043 A  
HETATM    5  C   UNL     1      -7.680   6.932  64.021  1.00  0.00    -0.116 C  
HETATM    6  C   UNL     1      -8.703   8.955  65.194  1.00  0.00    -0.213 A  
HETATM    7  C   UNL     1      -9.453   9.520  66.265  1.00  0.00    -0.267 A  
HETATM    8  C   UNL     1      -8.103   9.873  64.150  1.00  0.00    -0.152 C  
HETATM    9  C   UNL     1      -9.767   7.295  67.180  1.00  0.00    -0.218 A  
HETATM   10  C   UNL     1      -9.978   8.681  67.266  1.00  0.00    -0.282 A  
HETATM   11  C   UNL     1     -10.741   9.157  68.474  1.00  0.00    -0.160 C  
BRANCH   7  12
HETATM   12  C   UNL     1      -9.583  10.991  66.374  1.00  0.00    -0.227 C  
HETATM   13  C   UNL     1     -10.646  11.697  65.950  1.00  0.00    -0.318 C  
BRANCH  13  14
HETATM   14  C   UNL     1     -10.796  13.159  65.963  1.00  0.00    -0.287 C  
HETATM   15  C   UNL     1      -9.722  13.945  66.212  1.00  0.00    -0.304 C  
HETATM   16  C   UNL     1     -12.159  13.774  65.732  1.00  0.00    -0.458 C  
BRANCH  15  17
HETATM   17  C   UNL     1      -9.757  15.399  66.249  1.00  0.00    -0.325 C  
HETATM   18  C   UNL     1      -9.864  16.152  67.356  1.00  0.00    -0.238 C  
BRANCH  18  19
HETATM   19  C   UNL     1      -9.847  17.612  67.303  1.00  0.00    -0.303 C  
HETATM   20  C   UNL     1      -9.183  18.301  68.465  1.00  0.00    -0.335 C  
HETATM   21  C   UNL     1     -10.404  18.252  66.253  1.00  0.00    -0.422 C  
HETATM   22  C   UNL     1     -10.481  19.723  66.107  1.00  0.00    -0.509 C  
HETATM   23  O   UNL     1     -11.125  20.079  64.976  1.00  0.00    -0.238 OA 
HETATM   24  O   UNL     1     -10.041  20.541  66.896  1.00  0.00    -0.427 OA 
ENDBRANCH  18  19
ENDBRANCH  15  17
ENDBRANCH  13  14
ENDBRANCH   7  12
ENDBRANCH   2   3
TORSDOF 5
ENDMDL
MODEL       49
REMARK 921   NORMALIZED FREE ENERGY PREDICTED BY IDOCK:   -4.93 KCAL/MOL
REMARK 922        TOTAL FREE ENERGY PREDICTED BY IDOCK:   -7.16 KCAL/MOL
REMARK 923 INTER-LIGAND FREE ENERGY PREDICTED BY IDOCK:   -6.39 KCAL/MOL
REMARK 924 INTRA-LIGAND FREE ENERGY PREDICTED BY IDOCK:   -0.77 KCAL/MOL
REMARK 927      BINDING AFFINITY PREDICTED BY RF-SCORE:    0.00 PKD
ROOT
HETATM    1  C   UNL     1     -10.477  18.255  66.100  1.00  0.00    -0.383 C  
HETATM    2  O   UNL     1     -10.746  17.188  65.194  1.00  0.00    -0.680 OA 
ENDROOT
BRANCH   2   3
HETATM    3  C   UNL     1     -10.581  15.923  65.701  1.00  0.00    -0.378 A  
HETATM    4  C   UNL     1     -11.376  14.894  65.166  1.00  0.00    -0.379 A  
HETATM    5  C   UNL     1     -12.357  15.202  64.059  1.00  0.00     0.001 C  
HETATM    6  C   UNL     1     -11.251  13.573  65.683  1.00  0.00    -0.304 A  
HETATM    7  C   UNL     1     -10.340  13.305  66.746  1.00  0.00    -0.257 A  
HETATM    8  C   UNL     1     -12.102  12.444  65.141  1.00  0.00    -0.464 C  
HETATM    9  C   UNL     1      -9.712  15.649  66.756  1.00  0.00    -0.255 A  
HETATM   10  C   UNL     1      -9.576  14.356  67.288  1.00  0.00    -0.227 A  
HETATM   11  C   UNL     1      -8.620  14.216  68.443  1.00  0.00    -0.176 C  
BRANCH   7  12
HETATM   12  C   UNL     1     -10.285  11.951  67.341  1.00  0.00    -0.214 C  
HETATM   13  C   UNL     1     -11.053  11.535  68.363  1.00  0.00    -0.288 C  
BRANCH  13  14
HETATM   14  C   UNL     1     -10.989  10.232  69.041  1.00  0.00    -0.274 C  
HETATM   15  C   UNL     1     -10.634   9.125  68.345  1.00  0.00    -0.217 C  
HETATM   16  C   UNL     1     -11.352  10.132  70.506  1.00  0.00    -0.416 C  
BRANCH  15  17
HETATM   17  C   UNL     1     -10.538   7.791  68.914  1.00  0.00    -0.168 C  
HETATM   18  C   UNL     1      -9.861   6.760  68.383  1.00  0.00    -0.136 C  
BRANCH  18  19
HETATM   19  C   UNL     1      -9.782   5.461  69.048  1.00  0.00    -0.208 C  
HETATM   20  C   UNL     1      -9.568   4.276  68.146  1.00  0.00    -0.196 C  
HETATM   21  C   UNL     1      -9.898   5.387  70.391  1.00  0.00    -0.270 C  
HETATM   22  C   UNL     1      -9.872   4.130  71.171  1.00  0.00    -0.174 C  
HETATM   23  O   UNL     1     -10.048   4.356  72.490  1.00  0.00    -0.165 OA 
HETATM   24  O   UNL     1      -9.725   3.010  70.713  1.00  0.00    -0.162 OA 
ENDBRANCH  18  19
ENDBRANCH  15  17
ENDBRANCH  13  14
ENDBRANCH   7  12
ENDBRANCH   2   3
TORSDOF 5
ENDMDL
MODEL       50
REMARK 921   NORMALIZED FREE ENERGY PREDICTED BY IDOCK:   -4.91 KCAL/MOL
REMARK 922        TOTAL FREE ENERGY PREDICTED BY IDOCK:   -7.13 KCAL/MOL
REMARK 923 INTER-LIGAND FREE ENERGY PREDICTED BY IDOCK:   -6.33 KCAL/MOL
REMARK 924 INTRA-LIGAND FREE ENERGY PREDICTED BY IDOCK:   -0.80 KCAL/MOL
REMARK 927      BINDING AFFINITY PREDICTED BY RF-SCORE:    0.00 PKD
ROOT
HETATM    1  C   UNL     1      -5.596  21.097  67.856  1.00  0.00    -0.330 C  
HETATM    2  O   UNL     1      -6.976  20.913  67.552  1.00  0.00    -0.338 OA 
ENDROOT
BRANCH   2   3
HETATM    3  C   UNL     1      -7.425  19.617  67.596  1.00  0.00    -0.269 A  
HETATM    4  C   UNL     1      -8.814  19.403  67.538  1.00  0.00    -0.352 A  
HETATM    5  C   UNL     1      -9.750  20.582  67.414  1.00  0.00    -0.587 C  
HETATM    6  C   UNL     1      -9.320  18.073  67.607  1.00  0.00    -0.259 A  
HETATM    7  C   UNL     1      -8.424  16.975  67.751  1.00  0.00    -0.199 A  
HETATM    8  C   UNL     1     -10.810  17.807  67.563  1.00  0.00    -0.221 C  
HETATM    9  C   UNL     1      -6.564  18.533  67.761  1.00  0.00    -0.214 A  
HETATM   10  C   UNL     1      -7.039  17.213  67.837  1.00  0.00    -0.170 A  
HETATM   11  C   UNL     1      -5.995  16.148  68.042  1.00  0.00    -0.129 C  
BRANCH   7  12
HETATM   12  C   UNL     1      -8.962  15.605  67.916  1.00  0.00    -0.180 C  
HETATM   13  C   UNL     1      -9.073  14.704  66.924  1.00  0.00    -0.272 C  
BRANCH  13  14
HETATM   14  C   UNL     1      -9.667  13.363  67.014  1.00  0.00    -0.239 C  
HETATM   15  C   UNL     1      -9.711  12.723  68.207  1.00  0.00    -0.216 C  
HETATM   16  C   UNL     1     -10.195  12.693  65.764  1.00  0.00    -0.288 C  
BRANCH  15  17
HETATM   17  C   UNL     1     -10.274  11.398  68.410  1.00  0.00    -0.206 C  
HETATM   18  C   UNL     1      -9.573  10.266  68.582  1.00  0.00    -0.169 C  
BRANCH  18  19
HETATM   19  C   UNL     1     -10.224   8.980  68.824  1.00  0.00    -0.226 C  
HETATM   20  C   UNL     1     -10.663   8.726  70.241  1.00  0.00    -0.249 C  
HETATM   21  C   UNL     1     -10.396   8.113  67.804  1.00  0.00    -0.295 C  
HETATM   22  C   UNL     1     -11.006   6.771  67.933  1.00  0.00    -0.227 C  
HETATM   23  O   UNL     1     -11.015   6.111  66.756  1.00  0.00    -0.333 OA 
HETATM   24  O   UNL     1     -11.444   6.283  68.961  1.00  0.00    -0.363 OA 
ENDBRANCH  18  19
ENDBRANCH  15  17
ENDBRANCH  13  14
ENDBRANCH   7  12
ENDBRANCH   2   3
TORSDOF 5
ENDMDL
MODEL       51
REMARK 921   NORMALIZED FREE ENERGY PREDICTED BY IDOCK:   -4.84 KCAL/MOL
REMARK 922        TOTAL FREE ENERGY PREDICTED BY IDOCK:   -7.04 KCAL/MOL
REMARK 923 INTER-LIGAND FREE ENERGY PREDICTED BY IDOCK:   -6.32 KCAL/MOL
REMARK 924 INTRA-LIGAND FREE ENERGY PREDICTED BY IDOCK:   -0.72 KCAL/MOL
REMARK 927      BINDING AFFINITY PREDICTED BY RF-SCORE:    0.00 PKD
ROOT
HETATM    1  C   UNL     1      -9.225   2.973  64.061  1.00  0.00    -0.112 C  
HETATM    2  O   UNL     1      -8.875   2.766  65.427  1.00  0.00    -0.120 OA 
ENDROOT
BRANCH   2   3
HETATM    3  C   UNL     1      -8.969   3.870  66.237  1.00  0.00    -0.132 A  
HETATM    4  C   UNL     1      -9.212   3.658  67.607  1.00  0.00    -0.225 A  
HETATM    5  C   UNL     1      -9.343   2.249  68.136  1.00  0.00    -0.263 C  
HETATM    6  C   UNL     1      -9.342   4.779  68.475  1.00  0.00    -0.181 A  
HETATM    7  C   UNL     1      -9.243   6.102  67.954  1.00  0.00    -0.115 A  
HETATM    8  C   UNL     1      -9.619   4.588  69.952  1.00  0.00    -0.269 C  
HETATM    9  C   UNL     1      -8.899   5.170  65.740  1.00  0.00    -0.143 A  
HETATM   10  C   UNL     1      -9.029   6.292  66.575  1.00  0.00    -0.150 A  
HETATM   11  C   UNL     1      -8.959   7.632  65.894  1.00  0.00    -0.144 C  
BRANCH   7  12
HETATM   12  C   UNL     1      -9.472   7.261  68.845  1.00  0.00    -0.143 C  
HETATM   13  C   UNL     1     -10.592   8.006  68.856  1.00  0.00    -0.160 C  
BRANCH  13  14
HETATM   14  C   UNL     1     -10.843   9.209  69.662  1.00  0.00    -0.210 C  
HETATM   15  C   UNL     1     -11.408  10.299  69.091  1.00  0.00    -0.244 C  
HETATM   16  C   UNL     1     -10.436   9.231  71.120  1.00  0.00    -0.401 C  
BRANCH  15  17
HETATM   17  C   UNL     1     -11.701  11.538  69.794  1.00  0.00    -0.426 C  
HETATM   18  C   UNL     1     -11.646  12.771  69.264  1.00  0.00    -0.372 C  
BRANCH  18  19
HETATM   19  C   UNL     1     -12.000  13.961  70.034  1.00  0.00    -0.404 C  
HETATM   20  C   UNL     1     -11.666  15.280  69.391  1.00  0.00    -0.361 C  
HETATM   21  C   UNL     1     -12.590  13.828  71.241  1.00  0.00    -0.444 C  
HETATM   22  C   UNL     1     -12.960  14.954  72.127  1.00  0.00    -0.334 C  
HETATM   23  O   UNL     1     -13.500  14.522  73.286  1.00  0.00    -0.581 OA 
HETATM   24  O   UNL     1     -12.800  16.137  71.880  1.00  0.00    -0.390 OA 
ENDBRANCH  18  19
ENDBRANCH  15  17
ENDBRANCH  13  14
ENDBRANCH   7  12
ENDBRANCH   2   3
TORSDOF 5
ENDMDL
MODEL       52
REMARK 921   NORMALIZED FREE ENERGY PREDICTED BY IDOCK:   -4.83 KCAL/MOL
REMARK 922        TOTAL FREE ENERGY PREDICTED BY IDOCK:   -7.04 KCAL/MOL
REMARK 923 INTER-LIGAND FREE ENERGY PREDICTED BY IDOCK:   -6.25 KCAL/MOL
REMARK 924 INTRA-LIGAND FREE ENERGY PREDICTED BY IDOCK:   -0.79 KCAL/MOL
REMARK 927      BINDING AFFINITY PREDICTED BY RF-SCORE:    0.00 PKD
ROOT
HETATM    1  C   UNL     1     -10.690  19.510  66.242  1.00  0.00    -0.429 C  
HETATM    2  O   UNL     1      -9.573  18.688  65.915  1.00  0.00    -0.479 OA 
ENDROOT
BRANCH   2   3
HETATM    3  C   UNL     1      -9.729  17.348  66.170  1.00  0.00    -0.217 A  
HETATM    4  C   UNL     1      -8.970  16.787  67.213  1.00  0.00    -0.222 A  
HETATM    5  C   UNL     1      -8.038  17.663  68.017  1.00  0.00    -0.243 C  
HETATM    6  C   UNL     1      -9.085  15.395  67.491  1.00  0.00    -0.199 A  
HETATM    7  C   UNL     1      -9.948  14.579  66.705  1.00  0.00    -0.267 A  
HETATM    8  C   UNL     1      -8.272  14.756  68.597  1.00  0.00    -0.159 C  
HETATM    9  C   UNL     1     -10.550  16.531  65.395  1.00  0.00    -0.293 A  
HETATM   10  C   UNL     1     -10.676  15.154  65.646  1.00  0.00    -0.374 A  
HETATM   11  C   UNL     1     -11.578  14.394  64.711  1.00  0.00    -0.410 C  
BRANCH   7  12
HETATM   12  C   UNL     1      -9.991  13.117  66.939  1.00  0.00    -0.245 C  
HETATM   13  C   UNL     1     -10.954  12.483  67.630  1.00  0.00    -0.279 C  
BRANCH  13  14
HETATM   14  C   UNL     1     -11.007  11.051  67.956  1.00  0.00    -0.312 C  
HETATM   15  C   UNL     1     -10.514  10.140  67.083  1.00  0.00    -0.305 C  
HETATM   16  C   UNL     1     -11.644  10.602  69.253  1.00  0.00    -0.346 C  
BRANCH  15  17
HETATM   17  C   UNL     1     -10.515   8.703  67.304  1.00  0.00    -0.360 C  
HETATM   18  C   UNL     1      -9.505   7.990  67.827  1.00  0.00    -0.166 C  
BRANCH  18  19
HETATM   19  C   UNL     1      -9.609   6.551  68.055  1.00  0.00    -0.119 C  
HETATM   20  C   UNL     1      -9.815   6.129  69.485  1.00  0.00    -0.193 C  
HETATM   21  C   UNL     1      -9.521   5.698  67.012  1.00  0.00    -0.132 C  
HETATM   22  C   UNL     1      -9.575   4.224  67.123  1.00  0.00    -0.194 C  
HETATM   23  O   UNL     1      -9.425   3.627  65.922  1.00  0.00    -0.168 OA 
HETATM   24  O   UNL     1      -9.722   3.591  68.155  1.00  0.00    -0.138 OA 
ENDBRANCH  18  19
ENDBRANCH  15  17
ENDBRANCH  13  14
ENDBRANCH   7  12
ENDBRANCH   2   3
TORSDOF 5
ENDMDL
MODEL       53
REMARK 921   NORMALIZED FREE ENERGY PREDICTED BY IDOCK:   -4.82 KCAL/MOL
REMARK 922        TOTAL FREE ENERGY PREDICTED BY IDOCK:   -7.02 KCAL/MOL
REMARK 923 INTER-LIGAND FREE ENERGY PREDICTED BY IDOCK:   -6.28 KCAL/MOL
REMARK 924 INTRA-LIGAND FREE ENERGY PREDICTED BY IDOCK:   -0.74 KCAL/MOL
REMARK 927      BINDING AFFINITY PREDICTED BY RF-SCORE:    0.00 PKD
ROOT
HETATM    1  C   UNL     1      -9.059   4.333  62.987  1.00  0.00    -0.127 C  
HETATM    2  O   UNL     1      -8.000   4.943  63.720  1.00  0.00    -0.083 OA 
ENDROOT
BRANCH   2   3
HETATM    3  C   UNL     1      -8.384   5.699  64.799  1.00  0.00    -0.128 A  
HETATM    4  C   UNL     1      -8.130   7.082  64.753  1.00  0.00    -0.096 A  
HETATM    5  C   UNL     1      -7.471   7.683  63.534  1.00  0.00    -0.108 C  
HETATM    6  C   UNL     1      -8.491   7.896  65.864  1.00  0.00    -0.147 A  
HETATM    7  C   UNL     1      -9.088   7.308  67.017  1.00  0.00    -0.152 A  
HETATM    8  C   UNL     1      -8.219   9.386  65.855  1.00  0.00    -0.115 C  
HETATM    9  C   UNL     1      -8.947   5.136  65.943  1.00  0.00    -0.145 A  
HETATM   10  C   UNL     1      -9.306   5.917  67.054  1.00  0.00    -0.125 A  
HETATM   11  C   UNL     1      -9.877   5.169  68.229  1.00  0.00    -0.212 C  
BRANCH   7  12
HETATM   12  C   UNL     1      -9.373   8.145  68.204  1.00  0.00    -0.139 C  
HETATM   13  C   UNL     1     -10.575   8.677  68.491  1.00  0.00    -0.162 C  
BRANCH  13  14
HETATM   14  C   UNL     1     -10.897   9.574  69.610  1.00  0.00    -0.255 C  
HETATM   15  C   UNL     1     -11.723  10.629  69.413  1.00  0.00    -0.344 C  
HETATM   16  C   UNL     1     -10.273   9.331  70.967  1.00  0.00    -0.384 C  
BRANCH  15  17
HETATM   17  C   UNL     1     -12.108  11.577  70.447  1.00  0.00    -0.471 C  
HETATM   18  C   UNL     1     -12.145  12.913  70.310  1.00  0.00    -0.377 C  
BRANCH  18  19
HETATM   19  C   UNL     1     -12.587  13.789  71.392  1.00  0.00    -0.433 C  
HETATM   20  C   UNL     1     -13.749  13.288  72.207  1.00  0.00    -0.686 C  
HETATM   21  C   UNL     1     -11.957  14.965  71.604  1.00  0.00    -0.427 C  
HETATM   22  C   UNL     1     -12.337  15.950  72.640  1.00  0.00    -0.485 C  
HETATM   23  O   UNL     1     -11.554  17.048  72.597  1.00  0.00    -0.143 OA 
HETATM   24  O   UNL     1     -13.246  15.825  73.443  1.00  0.00    -0.537 OA 
ENDBRANCH  18  19
ENDBRANCH  15  17
ENDBRANCH  13  14
ENDBRANCH   7  12
ENDBRANCH   2   3
TORSDOF 5
ENDMDL
MODEL       54
REMARK 921   NORMALIZED FREE ENERGY PREDICTED BY IDOCK:   -4.80 KCAL/MOL
REMARK 922        TOTAL FREE ENERGY PREDICTED BY IDOCK:   -6.99 KCAL/MOL
REMARK 923 INTER-LIGAND FREE ENERGY PREDICTED BY IDOCK:   -6.76 KCAL/MOL
REMARK 924 INTRA-LIGAND FREE ENERGY PREDICTED BY IDOCK:   -0.23 KCAL/MOL
REMARK 927      BINDING AFFINITY PREDICTED BY RF-SCORE:    0.00 PKD
ROOT
HETATM    1  C   UNL     1     -10.719   3.719  73.734  1.00  0.00    -0.227 C  
HETATM    2  O   UNL     1      -9.959   3.775  72.530  1.00  0.00    -0.149 OA 
ENDROOT
BRANCH   2   3
HETATM    3  C   UNL     1     -10.134   4.904  71.769  1.00  0.00    -0.202 A  
HETATM    4  C   UNL     1      -9.921   4.799  70.382  1.00  0.00    -0.315 A  
HETATM    5  C   UNL     1      -9.531   3.469  69.783  1.00  0.00    -0.241 C  
HETATM    6  C   UNL     1     -10.069   5.955  69.563  1.00  0.00    -0.262 A  
HETATM    7  C   UNL     1     -10.411   7.207  70.150  1.00  0.00    -0.218 A  
HETATM    8  C   UNL     1      -9.833   5.881  68.069  1.00  0.00    -0.144 C  
HETATM    9  C   UNL     1     -10.445   6.142  72.330  1.00  0.00    -0.228 A  
HETATM   10  C   UNL     1     -10.589   7.297  71.544  1.00  0.00    -0.223 A  
HETATM   11  C   UNL     1     -10.900   8.567  72.290  1.00  0.00    -0.418 C  
BRANCH   7  12
HETATM   12  C   UNL     1     -10.469   8.422  69.306  1.00  0.00    -0.223 C  
HETATM   13  C   UNL     1      -9.414   9.207  69.024  1.00  0.00    -0.152 C  
BRANCH  13  14
HETATM   14  C   UNL     1      -9.428  10.461  68.257  1.00  0.00    -0.153 C  
HETATM   15  C   UNL     1     -10.533  10.811  67.555  1.00  0.00    -0.260 C  
HETATM   16  C   UNL     1      -8.194  11.335  68.231  1.00  0.00    -0.143 C  
BRANCH  15  17
HETATM   17  C   UNL     1     -10.655  12.025  66.765  1.00  0.00    -0.260 C  
HETATM   18  C   UNL     1     -10.151  13.226  67.092  1.00  0.00    -0.239 C  
BRANCH  18  19
HETATM   19  C   UNL     1     -10.285  14.386  66.214  1.00  0.00    -0.307 C  
HETATM   20  C   UNL     1      -9.169  15.394  66.286  1.00  0.00    -0.354 C  
HETATM   21  C   UNL     1     -11.362  14.498  65.407  1.00  0.00    -0.341 C  
HETATM   22  C   UNL     1     -11.625  15.640  64.505  1.00  0.00    -0.262 C  
HETATM   23  O   UNL     1     -12.794  15.498  63.847  1.00  0.00    -0.605 OA 
HETATM   24  O   UNL     1     -10.904  16.613  64.358  1.00  0.00    -0.833 OA 
ENDBRANCH  18  19
ENDBRANCH  15  17
ENDBRANCH  13  14
ENDBRANCH   7  12
ENDBRANCH   2   3
TORSDOF 5
ENDMDL
MODEL       55
REMARK 921   NORMALIZED FREE ENERGY PREDICTED BY IDOCK:   -4.78 KCAL/MOL
REMARK 922        TOTAL FREE ENERGY PREDICTED BY IDOCK:   -6.97 KCAL/MOL
REMARK 923 INTER-LIGAND FREE ENERGY PREDICTED BY IDOCK:   -6.89 KCAL/MOL
REMARK 924 INTRA-LIGAND FREE ENERGY PREDICTED BY IDOCK:   -0.07 KCAL/MOL
REMARK 927      BINDING AFFINITY PREDICTED BY RF-SCORE:    0.00 PKD
ROOT
HETATM    1  C   UNL     1     -14.405  15.175  71.591  1.00  0.00    -0.585 C  
HETATM    2  O   UNL     1     -12.998  15.009  71.739  1.00  0.00    -0.309 OA 
ENDROOT
BRANCH   2   3
HETATM    3  C   UNL     1     -12.408  14.132  70.864  1.00  0.00    -0.368 A  
HETATM    4  C   UNL     1     -12.562  12.755  71.113  1.00  0.00    -0.365 A  
HETATM    5  C   UNL     1     -13.370  12.295  72.303  1.00  0.00    -0.375 C  
HETATM    6  C   UNL     1     -11.944  11.814  70.241  1.00  0.00    -0.429 A  
HETATM    7  C   UNL     1     -11.163  12.267  69.138  1.00  0.00    -0.300 A  
HETATM    8  C   UNL     1     -12.076  10.326  70.488  1.00  0.00    -0.401 C  
HETATM    9  C   UNL     1     -11.622  14.558  69.795  1.00  0.00    -0.345 A  
HETATM   10  C   UNL     1     -10.997  13.649  68.925  1.00  0.00    -0.281 A  
HETATM   11  C   UNL     1     -10.157  14.255  67.832  1.00  0.00    -0.233 C  
BRANCH   7  12
HETATM   12  C   UNL     1     -10.447  11.285  68.293  1.00  0.00    -0.220 C  
HETATM   13  C   UNL     1     -11.047  10.351  67.534  1.00  0.00    -0.336 C  
BRANCH  13  14
HETATM   14  C   UNL     1     -10.388   9.306  66.738  1.00  0.00    -0.296 C  
HETATM   15  C   UNL     1     -10.405   8.020  67.164  1.00  0.00    -0.395 C  
HETATM   16  C   UNL     1      -9.665   9.681  65.462  1.00  0.00    -0.372 C  
BRANCH  15  17
HETATM   17  C   UNL     1      -9.787   6.910  66.457  1.00  0.00    -0.168 C  
HETATM   18  C   UNL     1     -10.301   5.676  66.333  1.00  0.00    -0.241 C  
BRANCH  18  19
HETATM   19  C   UNL     1      -9.630   4.631  65.565  1.00  0.00    -0.187 C  
HETATM   20  C   UNL     1      -8.149   4.496  65.798  1.00  0.00    -0.102 C  
HETATM   21  C   UNL     1     -10.341   3.862  64.713  1.00  0.00    -0.184 C  
HETATM   22  C   UNL     1      -9.768   2.801  63.856  1.00  0.00    -0.142 C  
HETATM   23  O   UNL     1     -10.708   2.222  63.081  1.00  0.00    -0.174 OA 
HETATM   24  O   UNL     1      -8.594   2.471  63.819  1.00  0.00    -0.085 OA 
ENDBRANCH  18  19
ENDBRANCH  15  17
ENDBRANCH  13  14
ENDBRANCH   7  12
ENDBRANCH   2   3
TORSDOF 5
ENDMDL
MODEL       56
REMARK 921   NORMALIZED FREE ENERGY PREDICTED BY IDOCK:   -4.78 KCAL/MOL
REMARK 922        TOTAL FREE ENERGY PREDICTED BY IDOCK:   -6.97 KCAL/MOL
REMARK 923 INTER-LIGAND FREE ENERGY PREDICTED BY IDOCK:   -6.42 KCAL/MOL
REMARK 924 INTRA-LIGAND FREE ENERGY PREDICTED BY IDOCK:   -0.54 KCAL/MOL
REMARK 927      BINDING AFFINITY PREDICTED BY RF-SCORE:    0.00 PKD
ROOT
HETATM    1  C   UNL     1     -10.820  19.653  66.641  1.00  0.00    -0.362 C  
HETATM    2  O   UNL     1      -9.678  18.971  66.129  1.00  0.00    -0.381 OA 
ENDROOT
BRANCH   2   3
HETATM    3  C   UNL     1      -9.583  17.642  66.459  1.00  0.00    -0.292 A  
HETATM    4  C   UNL     1      -8.917  17.311  67.653  1.00  0.00    -0.224 A  
HETATM    5  C   UNL     1      -8.353  18.406  68.527  1.00  0.00    -0.344 C  
HETATM    6  C   UNL     1      -8.775  15.941  68.018  1.00  0.00    -0.169 A  
HETATM    7  C   UNL     1      -9.290  14.919  67.168  1.00  0.00    -0.227 A  
HETATM    8  C   UNL     1      -8.051  15.547  69.288  1.00  0.00    -0.248 C  
HETATM    9  C   UNL     1     -10.059  16.630  65.628  1.00  0.00    -0.244 A  
HETATM   10  C   UNL     1      -9.926  15.272  65.962  1.00  0.00    -0.344 A  
HETATM   11  C   UNL     1     -10.464  14.290  64.956  1.00  0.00    -0.458 C  
BRANCH   7  12
HETATM   12  C   UNL     1      -9.056  13.497  67.506  1.00  0.00    -0.214 C  
HETATM   13  C   UNL     1      -9.929  12.717  68.168  1.00  0.00    -0.225 C  
BRANCH  13  14
HETATM   14  C   UNL     1      -9.720  11.326  68.595  1.00  0.00    -0.200 C  
HETATM   15  C   UNL     1     -10.564  10.760  69.491  1.00  0.00    -0.235 C  
HETATM   16  C   UNL     1      -8.540  10.547  68.056  1.00  0.00    -0.121 C  
BRANCH  15  17
HETATM   17  C   UNL     1     -10.451   9.396  69.981  1.00  0.00    -0.266 C  
HETATM   18  C   UNL     1     -11.016   8.916  71.100  1.00  0.00    -0.356 C  
BRANCH  18  19
HETATM   19  C   UNL     1     -10.885   7.515  71.494  1.00  0.00    -0.253 C  
HETATM   20  C   UNL     1     -11.105   7.224  72.954  1.00  0.00    -0.369 C  
HETATM   21  C   UNL     1     -10.585   6.582  70.566  1.00  0.00    -0.282 C  
HETATM   22  C   UNL     1     -10.390   5.143  70.850  1.00  0.00    -0.212 C  
HETATM   23  O   UNL     1     -10.064   4.454  69.737  1.00  0.00    -0.214 OA 
HETATM   24  O   UNL     1     -10.492   4.612  71.943  1.00  0.00    -0.181 OA 
ENDBRANCH  18  19
ENDBRANCH  15  17
ENDBRANCH  13  14
ENDBRANCH   7  12
ENDBRANCH   2   3
TORSDOF 5
ENDMDL
MODEL       57
REMARK 921   NORMALIZED FREE ENERGY PREDICTED BY IDOCK:   -4.78 KCAL/MOL
REMARK 922        TOTAL FREE ENERGY PREDICTED BY IDOCK:   -6.96 KCAL/MOL
REMARK 923 INTER-LIGAND FREE ENERGY PREDICTED BY IDOCK:   -6.16 KCAL/MOL
REMARK 924 INTRA-LIGAND FREE ENERGY PREDICTED BY IDOCK:   -0.80 KCAL/MOL
REMARK 927      BINDING AFFINITY PREDICTED BY RF-SCORE:    0.00 PKD
ROOT
HETATM    1  C   UNL     1      -7.259  19.741  68.378  1.00  0.00    -0.317 C  
HETATM    2  O   UNL     1      -8.518  19.392  67.811  1.00  0.00    -0.295 OA 
ENDROOT
BRANCH   2   3
HETATM    3  C   UNL     1      -8.699  18.058  67.543  1.00  0.00    -0.248 A  
HETATM    4  C   UNL     1      -9.688  17.706  66.605  1.00  0.00    -0.304 A  
HETATM    5  C   UNL     1     -10.491  18.787  65.922  1.00  0.00    -0.424 C  
HETATM    6  C   UNL     1      -9.923  16.331  66.320  1.00  0.00    -0.335 A  
HETATM    7  C   UNL     1      -9.173  15.323  66.994  1.00  0.00    -0.235 A  
HETATM    8  C   UNL     1     -10.989  15.916  65.328  1.00  0.00    -0.334 C  
HETATM    9  C   UNL     1      -7.992  17.059  68.211  1.00  0.00    -0.222 A  
HETATM   10  C   UNL     1      -8.210  15.696  67.951  1.00  0.00    -0.155 A  
HETATM   11  C   UNL     1      -7.392  14.731  68.767  1.00  0.00    -0.129 C  
BRANCH   7  12
HETATM   12  C   UNL     1      -9.488  13.896  66.762  1.00  0.00    -0.287 C  
HETATM   13  C   UNL     1     -10.300  13.157  67.539  1.00  0.00    -0.225 C  
BRANCH  13  14
HETATM   14  C   UNL     1     -10.588  11.722  67.401  1.00  0.00    -0.258 C  
HETATM   15  C   UNL     1      -9.904  10.981  66.496  1.00  0.00    -0.241 C  
HETATM   16  C   UNL     1     -11.671  11.091  68.248  1.00  0.00    -0.301 C  
BRANCH  15  17
HETATM   17  C   UNL     1     -10.107   9.558  66.277  1.00  0.00    -0.327 C  
HETATM   18  C   UNL     1      -9.409   8.568  66.857  1.00  0.00    -0.219 C  
BRANCH  18  19
HETATM   19  C   UNL     1      -9.711   7.160  66.611  1.00  0.00    -0.233 C  
HETATM   20  C   UNL     1     -11.026   6.669  67.155  1.00  0.00    -0.478 C  
HETATM   21  C   UNL     1      -8.832   6.393  65.932  1.00  0.00    -0.142 C  
HETATM   22  C   UNL     1      -9.009   4.951  65.655  1.00  0.00    -0.146 C  
HETATM   23  O   UNL     1      -7.954   4.437  64.989  1.00  0.00    -0.094 OA 
HETATM   24  O   UNL     1      -9.970   4.276  65.982  1.00  0.00    -0.213 OA 
ENDBRANCH  18  19
ENDBRANCH  15  17
ENDBRANCH  13  14
ENDBRANCH   7  12
ENDBRANCH   2   3
TORSDOF 5
ENDMDL
MODEL       58
REMARK 921   NORMALIZED FREE ENERGY PREDICTED BY IDOCK:   -4.73 KCAL/MOL
REMARK 922        TOTAL FREE ENERGY PREDICTED BY IDOCK:   -6.90 KCAL/MOL
REMARK 923 INTER-LIGAND FREE ENERGY PREDICTED BY IDOCK:   -6.24 KCAL/MOL
REMARK 924 INTRA-LIGAND FREE ENERGY PREDICTED BY IDOCK:   -0.66 KCAL/MOL
REMARK 927      BINDING AFFINITY PREDICTED BY RF-SCORE:    0.00 PKD
ROOT
HETATM    1  C   UNL     1      -6.253  20.847  67.350  1.00  0.00    -0.299 C  
HETATM    2  O   UNL     1      -7.603  20.418  67.503  1.00  0.00    -0.298 OA 
ENDROOT
BRANCH   2   3
HETATM    3  C   UNL     1      -7.833  19.087  67.258  1.00  0.00    -0.245 A  
HETATM    4  C   UNL     1      -9.035  18.739  66.613  1.00  0.00    -0.315 A  
HETATM    5  C   UNL     1     -10.006  19.820  66.202  1.00  0.00    -0.573 C  
HETATM    6  C   UNL     1      -9.322  17.366  66.365  1.00  0.00    -0.272 A  
HETATM    7  C   UNL     1      -8.406  16.358  66.783  1.00  0.00    -0.285 A  
HETATM    8  C   UNL     1     -10.611  16.954  65.687  1.00  0.00    -0.231 C  
HETATM    9  C   UNL     1      -6.960  18.087  67.682  1.00  0.00    -0.205 A  
HETATM   10  C   UNL     1      -7.224  16.726  67.454  1.00  0.00    -0.187 A  
HETATM   11  C   UNL     1      -6.204  15.759  67.993  1.00  0.00    -0.148 C  
BRANCH   7  12
HETATM   12  C   UNL     1      -8.755  14.930  66.606  1.00  0.00    -0.262 C  
HETATM   13  C   UNL     1      -9.675  14.273  67.335  1.00  0.00    -0.235 C  
BRANCH  13  14
HETATM   14  C   UNL     1     -10.007  12.844  67.255  1.00  0.00    -0.224 C  
HETATM   15  C   UNL     1      -9.151  11.922  67.757  1.00  0.00    -0.180 C  
HETATM   16  C   UNL     1     -11.290  12.411  66.578  1.00  0.00    -0.392 C  
BRANCH  15  17
HETATM   17  C   UNL     1      -9.379  10.486  67.731  1.00  0.00    -0.158 C  
HETATM   18  C   UNL     1     -10.051   9.783  68.657  1.00  0.00    -0.186 C  
BRANCH  18  19
HETATM   19  C   UNL     1     -10.271   8.344  68.527  1.00  0.00    -0.228 C  
HETATM   20  C   UNL     1     -10.445   7.833  67.122  1.00  0.00    -0.413 C  
HETATM   21  C   UNL     1     -10.305   7.568  69.632  1.00  0.00    -0.225 C  
HETATM   22  C   UNL     1     -10.556   6.110  69.630  1.00  0.00    -0.284 C  
HETATM   23  O   UNL     1     -10.569   5.604  70.880  1.00  0.00    -0.244 OA 
HETATM   24  O   UNL     1     -10.745   5.421  68.642  1.00  0.00    -0.154 OA 
ENDBRANCH  18  19
ENDBRANCH  15  17
ENDBRANCH  13  14
ENDBRANCH   7  12
ENDBRANCH   2   3
TORSDOF 5
ENDMDL
MODEL       59
REMARK 921   NORMALIZED FREE ENERGY PREDICTED BY IDOCK:   -4.68 KCAL/MOL
REMARK 922        TOTAL FREE ENERGY PREDICTED BY IDOCK:   -6.84 KCAL/MOL
REMARK 923 INTER-LIGAND FREE ENERGY PREDICTED BY IDOCK:   -6.07 KCAL/MOL
REMARK 924 INTRA-LIGAND FREE ENERGY PREDICTED BY IDOCK:   -0.76 KCAL/MOL
REMARK 927      BINDING AFFINITY PREDICTED BY RF-SCORE:    0.00 PKD
ROOT
HETATM    1  C   UNL     1      -6.471   2.542  69.358  1.00  0.00    -0.029 C  
HETATM    2  O   UNL     1      -7.816   2.994  69.234  1.00  0.00    -0.047 OA 
ENDROOT
BRANCH   2   3
HETATM    3  C   UNL     1      -7.970   4.279  68.778  1.00  0.00    -0.072 A  
HETATM    4  C   UNL     1      -8.871   5.114  69.466  1.00  0.00    -0.120 A  
HETATM    5  C   UNL     1      -9.613   4.585  70.670  1.00  0.00    -0.260 C  
HETATM    6  C   UNL     1      -9.077   6.447  69.008  1.00  0.00    -0.130 A  
HETATM    7  C   UNL     1      -8.389   6.920  67.854  1.00  0.00    -0.121 A  
HETATM    8  C   UNL     1     -10.050   7.367  69.715  1.00  0.00    -0.193 C  
HETATM    9  C   UNL     1      -7.323   4.750  67.637  1.00  0.00    -0.074 A  
HETATM   10  C   UNL     1      -7.515   6.059  67.163  1.00  0.00    -0.084 A  
HETATM   11  C   UNL     1      -6.771   6.419  65.905  1.00  0.00    -0.048 C  
BRANCH   7  12
HETATM   12  C   UNL     1      -8.679   8.274  67.330  1.00  0.00    -0.126 C  
HETATM   13  C   UNL     1      -9.626   8.551  66.415  1.00  0.00    -0.314 C  
BRANCH  13  14
HETATM   14  C   UNL     1      -9.906   9.859  65.805  1.00  0.00    -0.356 C  
HETATM   15  C   UNL     1     -10.685  10.755  66.457  1.00  0.00    -0.245 C  
HETATM   16  C   UNL     1      -9.348  10.180  64.435  1.00  0.00    -0.348 C  
BRANCH  15  17
HETATM   17  C   UNL     1     -11.025  12.074  65.948  1.00  0.00    -0.342 C  
HETATM   18  C   UNL     1     -10.252  13.169  66.031  1.00  0.00    -0.287 C  
BRANCH  18  19
HETATM   19  C   UNL     1     -10.656  14.447  65.451  1.00  0.00    -0.380 C  
HETATM   20  C   UNL     1     -11.719  14.376  64.388  1.00  0.00    -0.390 C  
HETATM   21  C   UNL     1     -10.080  15.591  65.879  1.00  0.00    -0.374 C  
HETATM   22  C   UNL     1     -10.379  16.937  65.343  1.00  0.00    -0.104 C  
HETATM   23  O   UNL     1      -9.627  17.889  65.935  1.00  0.00    -0.525 OA 
HETATM   24  O   UNL     1     -11.187  17.192  64.467  1.00  0.00    -1.104 OA 
ENDBRANCH  18  19
ENDBRANCH  15  17
ENDBRANCH  13  14
ENDBRANCH   7  12
ENDBRANCH   2   3
TORSDOF 5
ENDMDL
MODEL       60
REMARK 921   NORMALIZED FREE ENERGY PREDICTED BY IDOCK:   -4.67 KCAL/MOL
REMARK 922        TOTAL FREE ENERGY PREDICTED BY IDOCK:   -6.82 KCAL/MOL
REMARK 923 INTER-LIGAND FREE ENERGY PREDICTED BY IDOCK:   -6.05 KCAL/MOL
REMARK 924 INTRA-LIGAND FREE ENERGY PREDICTED BY IDOCK:   -0.77 KCAL/MOL
REMARK 927      BINDING AFFINITY PREDICTED BY RF-SCORE:    0.00 PKD
ROOT
HETATM    1  C   UNL     1      -6.254  21.273  66.669  1.00  0.00    -0.306 C  
HETATM    2  O   UNL     1      -6.900  20.971  67.902  1.00  0.00    -0.301 OA 
ENDROOT
BRANCH   2   3
HETATM    3  C   UNL     1      -7.519  19.747  67.963  1.00  0.00    -0.294 A  
HETATM    4  C   UNL     1      -6.871  18.721  68.675  1.00  0.00    -0.294 A  
HETATM    5  C   UNL     1      -5.550  18.996  69.351  1.00  0.00    -0.222 C  
HETATM    6  C   UNL     1      -7.470  17.430  68.740  1.00  0.00    -0.258 A  
HETATM    7  C   UNL     1      -8.704  17.181  68.073  1.00  0.00    -0.221 A  
HETATM    8  C   UNL     1      -6.793  16.298  69.484  1.00  0.00    -0.188 C  
HETATM    9  C   UNL     1      -8.714  19.480  67.297  1.00  0.00    -0.348 A  
HETATM   10  C   UNL     1      -9.320  18.214  67.341  1.00  0.00    -0.254 A  
HETATM   11  C   UNL     1     -10.594  18.066  66.551  1.00  0.00    -0.263 C  
BRANCH   7  12
HETATM   12  C   UNL     1      -9.271  15.813  68.065  1.00  0.00    -0.188 C  
HETATM   13  C   UNL     1     -10.179  15.359  68.948  1.00  0.00    -0.219 C  
BRANCH  13  14
HETATM   14  C   UNL     1     -10.718  13.995  69.034  1.00  0.00    -0.232 C  
HETATM   15  C   UNL     1     -10.001  12.953  68.549  1.00  0.00    -0.168 C  
HETATM   16  C   UNL     1     -12.088  13.768  69.636  1.00  0.00    -0.392 C  
BRANCH  15  17
HETATM   17  C   UNL     1     -10.437  11.566  68.582  1.00  0.00    -0.224 C  
HETATM   18  C   UNL     1      -9.866  10.583  69.296  1.00  0.00    -0.225 C  
BRANCH  18  19
HETATM   19  C   UNL     1     -10.400   9.223  69.305  1.00  0.00    -0.222 C  
HETATM   20  C   UNL     1     -10.851   8.705  70.644  1.00  0.00    -0.265 C  
HETATM   21  C   UNL     1     -10.462   8.519  68.154  1.00  0.00    -0.236 C  
HETATM   22  C   UNL     1     -10.946   7.125  68.044  1.00  0.00    -0.058 C  
HETATM   23  O   UNL     1     -10.861   6.665  66.778  1.00  0.00    -0.320 OA 
HETATM   24  O   UNL     1     -11.365   6.441  68.963  1.00  0.00    -0.355 OA 
ENDBRANCH  18  19
ENDBRANCH  15  17
ENDBRANCH  13  14
ENDBRANCH   7  12
ENDBRANCH   2   3
TORSDOF 5
ENDMDL
MODEL       61
REMARK 921   NORMALIZED FREE ENERGY PREDICTED BY IDOCK:   -4.65 KCAL/MOL
REMARK 922        TOTAL FREE ENERGY PREDICTED BY IDOCK:   -6.79 KCAL/MOL
REMARK 923 INTER-LIGAND FREE ENERGY PREDICTED BY IDOCK:   -6.09 KCAL/MOL
REMARK 924 INTRA-LIGAND FREE ENERGY PREDICTED BY IDOCK:   -0.70 KCAL/MOL
REMARK 927      BINDING AFFINITY PREDICTED BY RF-SCORE:    0.00 PKD
ROOT
HETATM    1  C   UNL     1     -10.531  19.594  66.224  1.00  0.00    -0.519 C  
HETATM    2  O   UNL     1      -9.719  19.262  67.346  1.00  0.00    -0.307 OA 
ENDROOT
BRANCH   2   3
HETATM    3  C   UNL     1      -9.745  17.944  67.728  1.00  0.00    -0.283 A  
HETATM    4  C   UNL     1      -8.659  17.132  67.352  1.00  0.00    -0.212 A  
HETATM    5  C   UNL     1      -7.512  17.728  66.572  1.00  0.00    -0.284 C  
HETATM    6  C   UNL     1      -8.662  15.752  67.708  1.00  0.00    -0.173 A  
HETATM    7  C   UNL     1      -9.766  15.201  68.420  1.00  0.00    -0.212 A  
HETATM    8  C   UNL     1      -7.517  14.846  67.307  1.00  0.00    -0.193 C  
HETATM    9  C   UNL     1     -10.828  17.383  68.404  1.00  0.00    -0.234 A  
HETATM   10  C   UNL     1     -10.857  16.024  68.759  1.00  0.00    -0.302 A  
HETATM   11  C   UNL     1     -12.102  15.554  69.463  1.00  0.00    -0.326 C  
BRANCH   7  12
HETATM   12  C   UNL     1      -9.805  13.748  68.703  1.00  0.00    -0.158 C  
HETATM   13  C   UNL     1     -10.584  12.865  68.052  1.00  0.00    -0.238 C  
BRANCH  13  14
HETATM   14  C   UNL     1     -10.719  11.430  68.340  1.00  0.00    -0.237 C  
HETATM   15  C   UNL     1      -9.940  10.534  67.687  1.00  0.00    -0.202 C  
HETATM   16  C   UNL     1     -11.753  10.962  69.340  1.00  0.00    -0.397 C  
BRANCH  15  17
HETATM   17  C   UNL     1      -9.990   9.096  67.893  1.00  0.00    -0.228 C  
HETATM   18  C   UNL     1     -10.386   8.187  66.987  1.00  0.00    -0.403 C  
BRANCH  18  19
HETATM   19  C   UNL     1     -10.363   6.754  67.266  1.00  0.00    -0.311 C  
HETATM   20  C   UNL     1     -10.972   6.333  68.576  1.00  0.00    -0.421 C  
HETATM   21  C   UNL     1      -9.817   5.903  66.370  1.00  0.00    -0.161 C  
HETATM   22  C   UNL     1      -9.702   4.440  66.558  1.00  0.00    -0.215 C  
HETATM   23  O   UNL     1      -9.080   3.850  65.516  1.00  0.00    -0.130 OA 
HETATM   24  O   UNL     1     -10.096   3.813  67.526  1.00  0.00     0.054 OA 
ENDBRANCH  18  19
ENDBRANCH  15  17
ENDBRANCH  13  14
ENDBRANCH   7  12
ENDBRANCH   2   3
TORSDOF 5
ENDMDL
MODEL       62
REMARK 921   NORMALIZED FREE ENERGY PREDICTED BY IDOCK:   -4.64 KCAL/MOL
REMARK 922        TOTAL FREE ENERGY PREDICTED BY IDOCK:   -6.78 KCAL/MOL
REMARK 923 INTER-LIGAND FREE ENERGY PREDICTED BY IDOCK:   -6.08 KCAL/MOL
REMARK 924 INTRA-LIGAND FREE ENERGY PREDICTED BY IDOCK:   -0.70 KCAL/MOL
REMARK 927      BINDING AFFINITY PREDICTED BY RF-SCORE:    0.00 PKD
ROOT
HETATM    1  C   UNL     1      -9.387   3.378  73.085  1.00  0.00    -0.097 C  
HETATM    2  O   UNL     1      -8.533   3.631  71.973  1.00  0.00    -0.084 OA 
ENDROOT
BRANCH   2   3
HETATM    3  C   UNL     1      -8.739   4.823  71.325  1.00  0.00    -0.123 A  
HETATM    4  C   UNL     1      -7.731   5.800  71.415  1.00  0.00    -0.107 A  
HETATM    5  C   UNL     1      -6.469   5.507  72.192  1.00  0.00    -0.056 C  
HETATM    6  C   UNL     1      -7.920   7.060  70.777  1.00  0.00    -0.101 A  
HETATM    7  C   UNL     1      -9.128   7.329  70.071  1.00  0.00    -0.148 A  
HETATM    8  C   UNL     1      -6.862   8.140  70.866  1.00  0.00    -0.042 C  
HETATM    9  C   UNL     1      -9.925   5.111  70.651  1.00  0.00    -0.296 A  
HETATM   10  C   UNL     1     -10.136   6.348  70.019  1.00  0.00    -0.208 A  
HETATM   11  C   UNL     1     -11.475   6.526  69.353  1.00  0.00    -0.346 C  
BRANCH   7  12
HETATM   12  C   UNL     1      -9.356   8.672  69.492  1.00  0.00    -0.153 C  
HETATM   13  C   UNL     1      -9.452   8.929  68.175  1.00  0.00    -0.155 C  
BRANCH  13  14
HETATM   14  C   UNL     1      -9.601  10.247  67.543  1.00  0.00    -0.180 C  
HETATM   15  C   UNL     1     -10.143  10.345  66.305  1.00  0.00    -0.292 C  
HETATM   16  C   UNL     1      -9.115  11.484  68.267  1.00  0.00    -0.185 C  
BRANCH  15  17
HETATM   17  C   UNL     1     -10.338  11.596  65.589  1.00  0.00    -0.306 C  
HETATM   18  C   UNL     1     -11.504  12.249  65.454  1.00  0.00    -0.402 C  
BRANCH  18  19
HETATM   19  C   UNL     1     -11.599  13.526  64.752  1.00  0.00    -0.372 C  
HETATM   20  C   UNL     1     -12.270  13.484  63.405  1.00  0.00    -0.338 C  
HETATM   21  C   UNL     1     -11.101  14.645  65.322  1.00  0.00    -0.363 C  
HETATM   22  C   UNL     1     -11.105  15.984  64.694  1.00  0.00    -0.332 C  
HETATM   23  O   UNL     1     -10.508  16.906  65.479  1.00  0.00    -0.560 OA 
HETATM   24  O   UNL     1     -11.569  16.257  63.600  1.00  0.00    -0.836 OA 
ENDBRANCH  18  19
ENDBRANCH  15  17
ENDBRANCH  13  14
ENDBRANCH   7  12
ENDBRANCH   2   3
TORSDOF 5
ENDMDL
MODEL       63
REMARK 921   NORMALIZED FREE ENERGY PREDICTED BY IDOCK:   -4.63 KCAL/MOL
REMARK 922        TOTAL FREE ENERGY PREDICTED BY IDOCK:   -6.77 KCAL/MOL
REMARK 923 INTER-LIGAND FREE ENERGY PREDICTED BY IDOCK:   -6.11 KCAL/MOL
REMARK 924 INTRA-LIGAND FREE ENERGY PREDICTED BY IDOCK:   -0.66 KCAL/MOL
REMARK 927      BINDING AFFINITY PREDICTED BY RF-SCORE:    0.00 PKD
ROOT
HETATM    1  C   UNL     1     -12.365  15.143  64.369  1.00  0.00    -0.209 C  
HETATM    2  O   UNL     1     -11.374  15.005  65.384  1.00  0.00    -0.347 OA 
ENDROOT
BRANCH   2   3
HETATM    3  C   UNL     1     -11.255  13.751  65.930  1.00  0.00    -0.302 A  
HETATM    4  C   UNL     1     -11.568  13.599  67.293  1.00  0.00    -0.387 A  
HETATM    5  C   UNL     1     -12.033  14.792  68.094  1.00  0.00    -0.265 C  
HETATM    6  C   UNL     1     -11.433  12.319  67.903  1.00  0.00    -0.390 A  
HETATM    7  C   UNL     1     -10.967  11.210  67.139  1.00  0.00    -0.350 A  
HETATM    8  C   UNL     1     -11.746  12.122  69.371  1.00  0.00    -0.391 C  
HETATM    9  C   UNL     1     -10.778  12.662  65.203  1.00  0.00    -0.321 A  
HETATM   10  C   UNL     1     -10.630  11.391  65.783  1.00  0.00    -0.315 A  
HETATM   11  C   UNL     1     -10.079  10.317  64.884  1.00  0.00    -0.346 C  
BRANCH   7  12
HETATM   12  C   UNL     1     -10.739   9.906  67.801  1.00  0.00    -0.332 C  
HETATM   13  C   UNL     1      -9.685   9.623  68.587  1.00  0.00    -0.162 C  
BRANCH  13  14
HETATM   14  C   UNL     1      -9.370   8.328  69.207  1.00  0.00    -0.155 C  
HETATM   15  C   UNL     1     -10.236   7.773  70.088  1.00  0.00    -0.205 C  
HETATM   16  C   UNL     1      -8.061   7.641  68.881  1.00  0.00    -0.127 C  
BRANCH  15  17
HETATM   17  C   UNL     1     -10.025   6.499  70.758  1.00  0.00    -0.205 C  
HETATM   18  C   UNL     1     -10.307   5.289  70.248  1.00  0.00    -0.350 C  
BRANCH  18  19
HETATM   19  C   UNL     1     -10.021   4.056  70.976  1.00  0.00    -0.176 C  
HETATM   20  C   UNL     1      -9.314   2.983  70.193  1.00  0.00    -0.229 C  
HETATM   21  C   UNL     1     -10.387   3.940  72.271  1.00  0.00    -0.170 C  
HETATM   22  C   UNL     1     -10.185   2.731  73.099  1.00  0.00    -0.136 C  
HETATM   23  O   UNL     1     -10.684   2.888  74.343  1.00  0.00    -0.171 OA 
HETATM   24  O   UNL     1      -9.651   1.698  72.733  1.00  0.00    -0.073 OA 
ENDBRANCH  18  19
ENDBRANCH  15  17
ENDBRANCH  13  14
ENDBRANCH   7  12
ENDBRANCH   2   3
TORSDOF 5
ENDMDL
MODEL       64
REMARK 921   NORMALIZED FREE ENERGY PREDICTED BY IDOCK:   -4.58 KCAL/MOL
REMARK 922        TOTAL FREE ENERGY PREDICTED BY IDOCK:   -6.70 KCAL/MOL
REMARK 923 INTER-LIGAND FREE ENERGY PREDICTED BY IDOCK:   -5.89 KCAL/MOL
REMARK 924 INTRA-LIGAND FREE ENERGY PREDICTED BY IDOCK:   -0.81 KCAL/MOL
REMARK 927      BINDING AFFINITY PREDICTED BY RF-SCORE:    0.00 PKD
ROOT
HETATM    1  C   UNL     1      -5.701   2.727  69.162  1.00  0.00    -0.022 C  
HETATM    2  O   UNL     1      -6.159   2.633  67.816  1.00  0.00    -0.023 OA 
ENDROOT
BRANCH   2   3
HETATM    3  C   UNL     1      -6.857   3.720  67.350  1.00  0.00    -0.054 A  
HETATM    4  C   UNL     1      -7.307   3.686  66.017  1.00  0.00    -0.076 A  
HETATM    5  C   UNL     1      -7.030   2.473  65.162  1.00  0.00    -0.048 C  
HETATM    6  C   UNL     1      -8.013   4.806  65.489  1.00  0.00    -0.095 A  
HETATM    7  C   UNL     1      -8.241   5.953  66.302  1.00  0.00    -0.114 A  
HETATM    8  C   UNL     1      -8.498   4.810  64.055  1.00  0.00    -0.132 C  
HETATM    9  C   UNL     1      -7.068   4.860  68.123  1.00  0.00    -0.062 A  
HETATM   10  C   UNL     1      -7.755   5.978  67.624  1.00  0.00    -0.097 A  
HETATM   11  C   UNL     1      -7.885   7.146  68.565  1.00  0.00    -0.122 C  
BRANCH   7  12
HETATM   12  C   UNL     1      -8.891   7.148  65.718  1.00  0.00    -0.090 C  
HETATM   13  C   UNL     1      -8.233   8.173  65.147  1.00  0.00    -0.156 C  
BRANCH  13  14
HETATM   14  C   UNL     1      -8.819   9.414  64.621  1.00  0.00    -0.238 C  
HETATM   15  C   UNL     1      -9.846  10.006  65.277  1.00  0.00    -0.388 C  
HETATM   16  C   UNL     1      -8.292  10.002  63.330  1.00  0.00    -0.170 C  
BRANCH  15  17
HETATM   17  C   UNL     1     -10.498  11.233  64.847  1.00  0.00    -0.375 C  
HETATM   18  C   UNL     1     -10.252  12.462  65.329  1.00  0.00    -0.306 C  
BRANCH  18  19
HETATM   19  C   UNL     1     -10.925  13.648  64.806  1.00  0.00    -0.384 C  
HETATM   20  C   UNL     1     -12.018  13.390  63.803  1.00  0.00    -0.517 C  
HETATM   21  C   UNL     1     -10.552  14.874  65.230  1.00  0.00    -0.421 C  
HETATM   22  C   UNL     1     -11.133  16.146  64.746  1.00  0.00    -0.333 C  
HETATM   23  O   UNL     1     -10.541  17.215  65.319  1.00  0.00    -0.662 OA 
HETATM   24  O   UNL     1     -12.027  16.254  63.925  1.00  0.00    -1.003 OA 
ENDBRANCH  18  19
ENDBRANCH  15  17
ENDBRANCH  13  14
ENDBRANCH   7  12
ENDBRANCH   2   3
TORSDOF 5
ENDMDL
MODEL       65
REMARK 921   NORMALIZED FREE ENERGY PREDICTED BY IDOCK:   -4.56 KCAL/MOL
REMARK 922        TOTAL FREE ENERGY PREDICTED BY IDOCK:   -6.69 KCAL/MOL
REMARK 923 INTER-LIGAND FREE ENERGY PREDICTED BY IDOCK:   -6.02 KCAL/MOL
REMARK 924 INTRA-LIGAND FREE ENERGY PREDICTED BY IDOCK:   -0.67 KCAL/MOL
REMARK 927      BINDING AFFINITY PREDICTED BY RF-SCORE:    0.00 PKD
ROOT
HETATM    1  C   UNL     1     -11.715   1.713  73.592  1.00  0.00    -0.199 C  
HETATM    2  O   UNL     1     -10.422   1.999  73.067  1.00  0.00    -0.121 OA 
ENDROOT
BRANCH   2   3
HETATM    3  C   UNL     1     -10.262   3.256  72.538  1.00  0.00    -0.146 A  
HETATM    4  C   UNL     1      -9.853   3.354  71.196  1.00  0.00    -0.159 A  
HETATM    5  C   UNL     1      -9.624   2.099  70.388  1.00  0.00    -0.106 C  
HETATM    6  C   UNL     1      -9.652   4.641  70.619  1.00  0.00    -0.261 A  
HETATM    7  C   UNL     1      -9.846   5.814  71.404  1.00  0.00    -0.213 A  
HETATM    8  C   UNL     1      -9.197   4.783  69.181  1.00  0.00    -0.175 C  
HETATM    9  C   UNL     1     -10.425   4.413  73.299  1.00  0.00    -0.254 A  
HETATM   10  C   UNL     1     -10.226   5.692  72.754  1.00  0.00    -0.213 A  
HETATM   11  C   UNL     1     -10.412   6.847  73.702  1.00  0.00    -0.400 C  
BRANCH   7  12
HETATM   12  C   UNL     1      -9.544   7.143  70.825  1.00  0.00    -0.168 C  
HETATM   13  C   UNL     1     -10.466   8.080  70.544  1.00  0.00    -0.217 C  
BRANCH  13  14
HETATM   14  C   UNL     1     -10.232   9.382  69.902  1.00  0.00    -0.247 C  
HETATM   15  C   UNL     1     -11.278  10.093  69.417  1.00  0.00    -0.265 C  
HETATM   16  C   UNL     1      -8.819   9.902  69.758  1.00  0.00    -0.229 C  
BRANCH  15  17
HETATM   17  C   UNL     1     -11.162  11.387  68.765  1.00  0.00    -0.308 C  
HETATM   18  C   UNL     1     -11.781  12.516  69.148  1.00  0.00    -0.375 C  
BRANCH  18  19
HETATM   19  C   UNL     1     -11.571  13.786  68.458  1.00  0.00    -0.373 C  
HETATM   20  C   UNL     1     -11.922  13.802  66.995  1.00  0.00    -0.452 C  
HETATM   21  C   UNL     1     -11.090  14.849  69.139  1.00  0.00    -0.279 C  
HETATM   22  C   UNL     1     -10.802  16.172  68.543  1.00  0.00    -0.313 C  
HETATM   23  O   UNL     1     -10.296  17.030  69.453  1.00  0.00    -0.299 OA 
HETATM   24  O   UNL     1     -10.975  16.480  67.376  1.00  0.00    -0.248 OA 
ENDBRANCH  18  19
ENDBRANCH  15  17
ENDBRANCH  13  14
ENDBRANCH   7  12
ENDBRANCH   2   3
TORSDOF 5
ENDMDL
MODEL       66
REMARK 921   NORMALIZED FREE ENERGY PREDICTED BY IDOCK:   -4.55 KCAL/MOL
REMARK 922        TOTAL FREE ENERGY PREDICTED BY IDOCK:   -6.67 KCAL/MOL
REMARK 923 INTER-LIGAND FREE ENERGY PREDICTED BY IDOCK:   -6.24 KCAL/MOL
REMARK 924 INTRA-LIGAND FREE ENERGY PREDICTED BY IDOCK:   -0.43 KCAL/MOL
REMARK 927      BINDING AFFINITY PREDICTED BY RF-SCORE:    0.00 PKD
ROOT
HETATM    1  C   UNL     1      -6.606  20.995  67.002  1.00  0.00    -0.343 C  
HETATM    2  O   UNL     1      -7.789  20.732  67.752  1.00  0.00    -0.196 OA 
ENDROOT
BRANCH   2   3
HETATM    3  C   UNL     1      -8.263  19.446  67.681  1.00  0.00    -0.294 A  
HETATM    4  C   UNL     1      -7.660  18.480  68.508  1.00  0.00    -0.328 A  
HETATM    5  C   UNL     1      -6.544  18.883  69.441  1.00  0.00    -0.293 C  
HETATM    6  C   UNL     1      -8.107  17.129  68.444  1.00  0.00    -0.255 A  
HETATM    7  C   UNL     1      -9.144  16.762  67.538  1.00  0.00    -0.211 A  
HETATM    8  C   UNL     1      -7.471  16.061  69.308  1.00  0.00    -0.228 C  
HETATM    9  C   UNL     1      -9.259  19.065  66.784  1.00  0.00    -0.345 A  
HETATM   10  C   UNL     1      -9.712  17.739  66.698  1.00  0.00    -0.314 A  
HETATM   11  C   UNL     1     -10.773  17.471  65.664  1.00  0.00    -0.089 C  
BRANCH   7  12
HETATM   12  C   UNL     1      -9.537  15.340  67.410  1.00  0.00    -0.207 C  
HETATM   13  C   UNL     1     -10.422  14.719  68.210  1.00  0.00    -0.241 C  
BRANCH  13  14
HETATM   14  C   UNL     1     -10.793  13.297  68.178  1.00  0.00    -0.270 C  
HETATM   15  C   UNL     1     -10.019  12.383  68.812  1.00  0.00    -0.040 C  
HETATM   16  C   UNL     1     -12.019  12.861  67.406  1.00  0.00    -0.360 C  
BRANCH  15  17
HETATM   17  C   UNL     1     -10.292  10.955  68.844  1.00  0.00    -0.222 C  
HETATM   18  C   UNL     1     -10.061  10.137  69.883  1.00  0.00    -0.268 C  
BRANCH  18  19
HETATM   19  C   UNL     1     -10.408   8.718  69.843  1.00  0.00    -0.212 C  
HETATM   20  C   UNL     1      -9.937   7.964  68.629  1.00  0.00    -0.201 C  
HETATM   21  C   UNL     1     -11.108   8.169  70.859  1.00  0.00    -0.280 C  
HETATM   22  C   UNL     1     -11.548   6.758  70.914  1.00  0.00    -0.353 C  
HETATM   23  O   UNL     1     -12.260   6.499  72.030  1.00  0.00    -0.338 OA 
HETATM   24  O   UNL     1     -11.325   5.909  70.068  1.00  0.00    -0.352 OA 
ENDBRANCH  18  19
ENDBRANCH  15  17
ENDBRANCH  13  14
ENDBRANCH   7  12
ENDBRANCH   2   3
TORSDOF 5
ENDMDL
MODEL       67
REMARK 921   NORMALIZED FREE ENERGY PREDICTED BY IDOCK:   -4.47 KCAL/MOL
REMARK 922        TOTAL FREE ENERGY PREDICTED BY IDOCK:   -6.56 KCAL/MOL
REMARK 923 INTER-LIGAND FREE ENERGY PREDICTED BY IDOCK:   -5.80 KCAL/MOL
REMARK 924 INTRA-LIGAND FREE ENERGY PREDICTED BY IDOCK:   -0.76 KCAL/MOL
REMARK 927      BINDING AFFINITY PREDICTED BY RF-SCORE:    0.00 PKD
ROOT
HETATM    1  C   UNL     1      -9.864   4.626  67.271  1.00  0.00    -0.180 C  
HETATM    2  O   UNL     1     -10.729   5.558  67.914  1.00  0.00    -0.190 OA 
ENDROOT
BRANCH   2   3
HETATM    3  C   UNL     1     -10.383   6.879  67.780  1.00  0.00    -0.203 A  
HETATM    4  C   UNL     1     -10.585   7.724  68.887  1.00  0.00    -0.168 A  
HETATM    5  C   UNL     1     -11.149   7.160  70.169  1.00  0.00    -0.301 C  
HETATM    6  C   UNL     1     -10.262   9.107  68.778  1.00  0.00    -0.228 A  
HETATM    7  C   UNL     1      -9.757   9.628  67.551  1.00  0.00    -0.195 A  
HETATM    8  C   UNL     1     -10.480  10.049  69.944  1.00  0.00    -0.317 C  
HETATM    9  C   UNL     1      -9.911   7.409  66.581  1.00  0.00    -0.263 A  
HETATM   10  C   UNL     1      -9.591   8.771  66.447  1.00  0.00    -0.316 A  
HETATM   11  C   UNL     1      -9.117   9.205  65.085  1.00  0.00    -0.234 C  
BRANCH   7  12
HETATM   12  C   UNL     1      -9.513  11.082  67.417  1.00  0.00    -0.173 C  
HETATM   13  C   UNL     1      -8.297  11.657  67.439  1.00  0.00    -0.152 C  
BRANCH  13  14
HETATM   14  C   UNL     1      -8.002  13.096  67.386  1.00  0.00    -0.174 C  
HETATM   15  C   UNL     1      -8.980  13.975  67.060  1.00  0.00    -0.248 C  
HETATM   16  C   UNL     1      -6.596  13.582  67.664  1.00  0.00    -0.177 C  
BRANCH  15  17
HETATM   17  C   UNL     1      -8.798  15.415  66.979  1.00  0.00    -0.252 C  
HETATM   18  C   UNL     1      -9.782  16.326  66.912  1.00  0.00    -0.247 C  
BRANCH  18  19
HETATM   19  C   UNL     1      -9.508  17.761  66.877  1.00  0.00    -0.271 C  
HETATM   20  C   UNL     1     -10.615  18.651  67.376  1.00  0.00    -0.490 C  
HETATM   21  C   UNL     1      -8.320  18.206  66.417  1.00  0.00    -0.272 C  
HETATM   22  C   UNL     1      -7.942  19.632  66.298  1.00  0.00    -0.328 C  
HETATM   23  O   UNL     1      -6.708  19.780  65.773  1.00  0.00    -0.226 OA 
HETATM   24  O   UNL     1      -8.638  20.582  66.614  1.00  0.00    -0.191 OA 
ENDBRANCH  18  19
ENDBRANCH  15  17
ENDBRANCH  13  14
ENDBRANCH   7  12
ENDBRANCH   2   3
TORSDOF 5
ENDMDL
MODEL       68
REMARK 921   NORMALIZED FREE ENERGY PREDICTED BY IDOCK:   -4.43 KCAL/MOL
REMARK 922        TOTAL FREE ENERGY PREDICTED BY IDOCK:   -6.52 KCAL/MOL
REMARK 923 INTER-LIGAND FREE ENERGY PREDICTED BY IDOCK:   -5.89 KCAL/MOL
REMARK 924 INTRA-LIGAND FREE ENERGY PREDICTED BY IDOCK:   -0.63 KCAL/MOL
REMARK 927      BINDING AFFINITY PREDICTED BY RF-SCORE:    0.00 PKD
ROOT
HETATM    1  C   UNL     1     -10.515  19.525  66.760  1.00  0.00    -0.481 C  
HETATM    2  O   UNL     1      -9.741  18.784  65.821  1.00  0.00    -0.450 OA 
ENDROOT
BRANCH   2   3
HETATM    3  C   UNL     1      -9.670  17.432  66.046  1.00  0.00    -0.152 A  
HETATM    4  C   UNL     1      -8.495  16.927  66.632  1.00  0.00    -0.285 A  
HETATM    5  C   UNL     1      -7.377  17.871  67.005  1.00  0.00    -0.218 C  
HETATM    6  C   UNL     1      -8.373  15.526  66.858  1.00  0.00    -0.290 A  
HETATM    7  C   UNL     1      -9.427  14.646  66.475  1.00  0.00    -0.319 A  
HETATM    8  C   UNL     1      -7.117  14.946  67.473  1.00  0.00    -0.215 C  
HETATM    9  C   UNL     1     -10.681  16.556  65.656  1.00  0.00    -0.257 A  
HETATM   10  C   UNL     1     -10.582  15.170  65.862  1.00  0.00    -0.347 A  
HETATM   11  C   UNL     1     -11.739  14.346  65.365  1.00  0.00    -0.362 C  
BRANCH   7  12
HETATM   12  C   UNL     1      -9.254  13.184  66.626  1.00  0.00    -0.220 C  
HETATM   13  C   UNL     1      -9.763  12.456  67.636  1.00  0.00    -0.195 C  
BRANCH  13  14
HETATM   14  C   UNL     1      -9.561  11.020  67.876  1.00  0.00    -0.180 C  
HETATM   15  C   UNL     1      -9.799  10.501  69.105  1.00  0.00    -0.233 C  
HETATM   16  C   UNL     1      -9.053  10.138  66.756  1.00  0.00    -0.159 C  
BRANCH  15  17
HETATM   17  C   UNL     1      -9.633   9.098  69.452  1.00  0.00    -0.165 C  
HETATM   18  C   UNL     1     -10.494   8.111  69.157  1.00  0.00    -0.217 C  
BRANCH  18  19
HETATM   19  C   UNL     1     -10.224   6.719  69.508  1.00  0.00    -0.202 C  
HETATM   20  C   UNL     1      -9.545   5.896  68.446  1.00  0.00    -0.138 C  
HETATM   21  C   UNL     1     -10.582   6.251  70.723  1.00  0.00    -0.297 C  
HETATM   22  C   UNL     1     -10.395   4.855  71.177  1.00  0.00    -0.152 C  
HETATM   23  O   UNL     1     -10.879   4.666  72.423  1.00  0.00    -0.162 OA 
HETATM   24  O   UNL     1      -9.884   3.958  70.530  1.00  0.00    -0.190 OA 
ENDBRANCH  18  19
ENDBRANCH  15  17
ENDBRANCH  13  14
ENDBRANCH   7  12
ENDBRANCH   2   3
TORSDOF 5
ENDMDL
MODEL       69
REMARK 921   NORMALIZED FREE ENERGY PREDICTED BY IDOCK:   -4.42 KCAL/MOL
REMARK 922        TOTAL FREE ENERGY PREDICTED BY IDOCK:   -6.50 KCAL/MOL
REMARK 923 INTER-LIGAND FREE ENERGY PREDICTED BY IDOCK:   -5.76 KCAL/MOL
REMARK 924 INTRA-LIGAND FREE ENERGY PREDICTED BY IDOCK:   -0.74 KCAL/MOL
REMARK 927      BINDING AFFINITY PREDICTED BY RF-SCORE:    0.00 PKD
ROOT
HETATM    1  C   UNL     1     -10.479  17.385  67.656  1.00  0.00    -0.368 C  
HETATM    2  O   UNL     1     -11.404  16.705  68.500  1.00  0.00    -0.317 OA 
ENDROOT
BRANCH   2   3
HETATM    3  C   UNL     1     -11.427  15.338  68.375  1.00  0.00    -0.345 A  
HETATM    4  C   UNL     1     -11.890  14.588  69.471  1.00  0.00    -0.374 A  
HETATM    5  C   UNL     1     -12.356  15.296  70.721  1.00  0.00    -0.433 C  
HETATM    6  C   UNL     1     -11.905  13.166  69.389  1.00  0.00    -0.383 A  
HETATM    7  C   UNL     1     -11.436  12.514  68.211  1.00  0.00    -0.355 A  
HETATM    8  C   UNL     1     -12.383  12.326  70.555  1.00  0.00    -0.349 C  
HETATM    9  C   UNL     1     -10.949  14.684  67.240  1.00  0.00    -0.317 A  
HETATM   10  C   UNL     1     -10.948  13.283  67.138  1.00  0.00    -0.288 A  
HETATM   11  C   UNL     1     -10.378  12.716  65.865  1.00  0.00    -0.295 C  
BRANCH   7  12
HETATM   12  C   UNL     1     -11.366  11.036  68.170  1.00  0.00    -0.374 C  
HETATM   13  C   UNL     1     -10.303  10.311  68.560  1.00  0.00    -0.200 C  
BRANCH  13  14
HETATM   14  C   UNL     1     -10.150   8.852  68.471  1.00  0.00    -0.209 C  
HETATM   15  C   UNL     1      -9.480   8.182  69.439  1.00  0.00    -0.162 C  
HETATM   16  C   UNL     1     -10.714   8.112  67.277  1.00  0.00    -0.263 C  
BRANCH  15  17
HETATM   17  C   UNL     1      -9.270   6.743  69.450  1.00  0.00    -0.143 C  
HETATM   18  C   UNL     1      -8.398   6.085  70.231  1.00  0.00    -0.124 C  
BRANCH  18  19
HETATM   19  C   UNL     1      -8.285   4.628  70.207  1.00  0.00    -0.075 C  
HETATM   20  C   UNL     1      -7.825   3.987  71.489  1.00  0.00    -0.065 C  
HETATM   21  C   UNL     1      -8.587   3.950  69.080  1.00  0.00    -0.112 C  
HETATM   22  C   UNL     1      -8.475   2.483  68.923  1.00  0.00    -0.067 C  
HETATM   23  O   UNL     1      -8.809   2.086  67.678  1.00  0.00    -0.100 OA 
HETATM   24  O   UNL     1      -8.117   1.699  69.787  1.00  0.00    -0.041 OA 
ENDBRANCH  18  19
ENDBRANCH  15  17
ENDBRANCH  13  14
ENDBRANCH   7  12
ENDBRANCH   2   3
TORSDOF 5
ENDMDL
MODEL       70
REMARK 921   NORMALIZED FREE ENERGY PREDICTED BY IDOCK:   -4.35 KCAL/MOL
REMARK 922        TOTAL FREE ENERGY PREDICTED BY IDOCK:   -6.41 KCAL/MOL
REMARK 923 INTER-LIGAND FREE ENERGY PREDICTED BY IDOCK:   -5.73 KCAL/MOL
REMARK 924 INTRA-LIGAND FREE ENERGY PREDICTED BY IDOCK:   -0.68 KCAL/MOL
REMARK 927      BINDING AFFINITY PREDICTED BY RF-SCORE:    0.00 PKD
ROOT
HETATM    1  C   UNL     1      -9.120   2.218  70.931  1.00  0.00    -0.109 C  
HETATM    2  O   UNL     1      -8.003   3.074  70.705  1.00  0.00    -0.046 OA 
ENDROOT
BRANCH   2   3
HETATM    3  C   UNL     1      -8.185   4.047  69.755  1.00  0.00    -0.054 A  
HETATM    4  C   UNL     1      -7.038   4.601  69.157  1.00  0.00    -0.052 A  
HETATM    5  C   UNL     1      -5.670   4.105  69.558  1.00  0.00    -0.017 C  
HETATM    6  C   UNL     1      -7.186   5.632  68.185  1.00  0.00    -0.072 A  
HETATM    7  C   UNL     1      -8.484   6.107  67.838  1.00  0.00    -0.116 A  
HETATM    8  C   UNL     1      -5.973   6.261  67.532  1.00  0.00    -0.017 C  
HETATM    9  C   UNL     1      -9.446   4.540  69.422  1.00  0.00    -0.244 A  
HETATM   10  C   UNL     1      -9.616   5.560  68.471  1.00  0.00    -0.162 A  
HETATM   11  C   UNL     1     -11.034   6.009  68.233  1.00  0.00    -0.347 C  
BRANCH   7  12
HETATM   12  C   UNL     1      -8.623   7.242  66.898  1.00  0.00    -0.124 C  
HETATM   13  C   UNL     1      -8.916   8.503  67.263  1.00  0.00    -0.141 C  
BRANCH  13  14
HETATM   14  C   UNL     1      -9.140   9.649  66.370  1.00  0.00    -0.191 C  
HETATM   15  C   UNL     1      -9.902  10.690  66.786  1.00  0.00    -0.240 C  
HETATM   16  C   UNL     1      -8.545   9.642  64.979  1.00  0.00    -0.180 C  
BRANCH  15  17
HETATM   17  C   UNL     1     -10.188  11.871  65.987  1.00  0.00    -0.262 C  
HETATM   18  C   UNL     1     -11.376  12.489  65.900  1.00  0.00    -0.380 C  
BRANCH  18  19
HETATM   19  C   UNL     1     -11.563  13.700  65.105  1.00  0.00    -0.333 C  
HETATM   20  C   UNL     1     -12.336  13.529  63.824  1.00  0.00    -0.392 C  
HETATM   21  C   UNL     1     -11.054  14.873  65.538  1.00  0.00    -0.353 C  
HETATM   22  C   UNL     1     -11.145  16.155  64.804  1.00  0.00    -0.333 C  
HETATM   23  O   UNL     1     -10.515  17.152  65.459  1.00  0.00    -0.593 OA 
HETATM   24  O   UNL     1     -11.702  16.323  63.733  1.00  0.00    -0.969 OA 
ENDBRANCH  18  19
ENDBRANCH  15  17
ENDBRANCH  13  14
ENDBRANCH   7  12
ENDBRANCH   2   3
TORSDOF 5
ENDMDL
MODEL       71
REMARK 921   NORMALIZED FREE ENERGY PREDICTED BY IDOCK:   -4.34 KCAL/MOL
REMARK 922        TOTAL FREE ENERGY PREDICTED BY IDOCK:   -6.40 KCAL/MOL
REMARK 923 INTER-LIGAND FREE ENERGY PREDICTED BY IDOCK:   -5.70 KCAL/MOL
REMARK 924 INTRA-LIGAND FREE ENERGY PREDICTED BY IDOCK:   -0.70 KCAL/MOL
REMARK 927      BINDING AFFINITY PREDICTED BY RF-SCORE:    0.00 PKD
ROOT
HETATM    1  C   UNL     1     -10.317  19.564  68.386  1.00  0.00    -0.377 C  
HETATM    2  O   UNL     1     -10.785  18.605  67.441  1.00  0.00    -0.431 OA 
ENDROOT
BRANCH   2   3
HETATM    3  C   UNL     1     -10.567  17.291  67.773  1.00  0.00    -0.367 A  
HETATM    4  C   UNL     1      -9.419  16.665  67.253  1.00  0.00    -0.234 A  
HETATM    5  C   UNL     1      -8.470  17.448  66.377  1.00  0.00    -0.292 C  
HETATM    6  C   UNL     1      -9.172  15.295  67.555  1.00  0.00    -0.202 A  
HETATM    7  C   UNL     1     -10.093  14.564  68.361  1.00  0.00    -0.241 A  
HETATM    8  C   UNL     1      -7.955  14.586  67.000  1.00  0.00    -0.074 C  
HETATM    9  C   UNL     1     -11.469  16.555  68.540  1.00  0.00    -0.133 A  
HETATM   10  C   UNL     1     -11.251  15.201  68.846  1.00  0.00    -0.292 A  
HETATM   11  C   UNL     1     -12.324  14.529  69.661  1.00  0.00    -0.284 C  
BRANCH   7  12
HETATM   12  C   UNL     1      -9.879  13.118  68.591  1.00  0.00    -0.089 C  
HETATM   13  C   UNL     1     -10.437  12.138  67.859  1.00  0.00    -0.224 C  
BRANCH  13  14
HETATM   14  C   UNL     1     -10.321  10.691  68.088  1.00  0.00    -0.203 C  
HETATM   15  C   UNL     1     -10.296  10.207  69.353  1.00  0.00    -0.251 C  
HETATM   16  C   UNL     1     -10.195   9.754  66.907  1.00  0.00    -0.310 C  
BRANCH  15  17
HETATM   17  C   UNL     1     -10.185   8.798  69.694  1.00  0.00    -0.210 C  
HETATM   18  C   UNL     1     -10.904   8.159  70.631  1.00  0.00    -0.246 C  
BRANCH  18  19
HETATM   19  C   UNL     1     -10.756   6.727  70.877  1.00  0.00    -0.269 C  
HETATM   20  C   UNL     1     -11.360   6.217  72.158  1.00  0.00    -0.343 C  
HETATM   21  C   UNL     1     -10.110   5.954  69.978  1.00  0.00    -0.258 C  
HETATM   22  C   UNL     1      -9.866   4.503  70.134  1.00  0.00    -0.226 C  
HETATM   23  O   UNL     1      -9.165   4.000  69.096  1.00  0.00    -0.124 OA 
HETATM   24  O   UNL     1     -10.228   3.817  71.075  1.00  0.00    -0.021 OA 
ENDBRANCH  18  19
ENDBRANCH  15  17
ENDBRANCH  13  14
ENDBRANCH   7  12
ENDBRANCH   2   3
TORSDOF 5
ENDMDL
MODEL       72
REMARK 921   NORMALIZED FREE ENERGY PREDICTED BY IDOCK:   -4.34 KCAL/MOL
REMARK 922        TOTAL FREE ENERGY PREDICTED BY IDOCK:   -6.40 KCAL/MOL
REMARK 923 INTER-LIGAND FREE ENERGY PREDICTED BY IDOCK:   -5.66 KCAL/MOL
REMARK 924 INTRA-LIGAND FREE ENERGY PREDICTED BY IDOCK:   -0.73 KCAL/MOL
REMARK 927      BINDING AFFINITY PREDICTED BY RF-SCORE:    0.00 PKD
ROOT
HETATM    1  C   UNL     1     -10.407  18.140  66.154  1.00  0.00    -0.385 C  
HETATM    2  O   UNL     1     -10.615  17.163  65.138  1.00  0.00    -0.695 OA 
ENDROOT
BRANCH   2   3
HETATM    3  C   UNL     1     -10.441  15.858  65.525  1.00  0.00    -0.404 A  
HETATM    4  C   UNL     1     -11.391  14.915  65.093  1.00  0.00    -0.379 A  
HETATM    5  C   UNL     1     -12.542  15.355  64.221  1.00  0.00     0.226 C  
HETATM    6  C   UNL     1     -11.258  13.555  65.496  1.00  0.00    -0.304 A  
HETATM    7  C   UNL     1     -10.181  13.162  66.341  1.00  0.00    -0.286 A  
HETATM    8  C   UNL     1     -12.271  12.516  65.063  1.00  0.00    -0.519 C  
HETATM    9  C   UNL     1      -9.406  15.462  66.371  1.00  0.00    -0.331 A  
HETATM   10  C   UNL     1      -9.258  14.128  66.786  1.00  0.00    -0.282 A  
HETATM   11  C   UNL     1      -8.110  13.854  67.721  1.00  0.00    -0.174 C  
BRANCH   7  12
HETATM   12  C   UNL     1     -10.103  11.767  66.831  1.00  0.00    -0.231 C  
HETATM   13  C   UNL     1      -9.544  10.750  66.152  1.00  0.00    -0.236 C  
BRANCH  13  14
HETATM   14  C   UNL     1      -9.505   9.337  66.554  1.00  0.00    -0.259 C  
HETATM   15  C   UNL     1      -8.604   8.498  65.989  1.00  0.00    -0.162 C  
HETATM   16  C   UNL     1     -10.498   8.822  67.574  1.00  0.00    -0.340 C  
BRANCH  15  17
HETATM   17  C   UNL     1      -8.479   7.086  66.313  1.00  0.00    -0.134 C  
HETATM   18  C   UNL     1      -8.973   6.069  65.587  1.00  0.00    -0.077 C  
BRANCH  18  19
HETATM   19  C   UNL     1      -8.761   4.674  65.965  1.00  0.00    -0.116 C  
HETATM   20  C   UNL     1      -7.985   4.451  67.235  1.00  0.00    -0.100 C  
HETATM   21  C   UNL     1      -9.254   3.686  65.188  1.00  0.00    -0.150 C  
HETATM   22  C   UNL     1      -9.072   2.240  65.446  1.00  0.00    -0.106 C  
HETATM   23  O   UNL     1      -9.642   1.485  64.484  1.00  0.00    -0.131 OA 
HETATM   24  O   UNL     1      -8.477   1.755  66.393  1.00  0.00    -0.090 OA 
ENDBRANCH  18  19
ENDBRANCH  15  17
ENDBRANCH  13  14
ENDBRANCH   7  12
ENDBRANCH   2   3
TORSDOF 5
ENDMDL
MODEL       73
REMARK 921   NORMALIZED FREE ENERGY PREDICTED BY IDOCK:   -4.30 KCAL/MOL
REMARK 922        TOTAL FREE ENERGY PREDICTED BY IDOCK:   -6.34 KCAL/MOL
REMARK 923 INTER-LIGAND FREE ENERGY PREDICTED BY IDOCK:   -5.58 KCAL/MOL
REMARK 924 INTRA-LIGAND FREE ENERGY PREDICTED BY IDOCK:   -0.77 KCAL/MOL
REMARK 927      BINDING AFFINITY PREDICTED BY RF-SCORE:    0.00 PKD
ROOT
HETATM    1  C   UNL     1      -7.109  20.082  65.585  1.00  0.00    -0.315 C  
HETATM    2  O   UNL     1      -8.153  19.594  66.424  1.00  0.00    -0.295 OA 
ENDROOT
BRANCH   2   3
HETATM    3  C   UNL     1      -8.247  18.228  66.520  1.00  0.00    -0.268 A  
HETATM    4  C   UNL     1      -9.490  17.636  66.231  1.00  0.00    -0.232 A  
HETATM    5  C   UNL     1     -10.655  18.502  65.815  1.00  0.00    -0.265 C  
HETATM    6  C   UNL     1      -9.634  16.223  66.344  1.00  0.00    -0.316 A  
HETATM    7  C   UNL     1      -8.531  15.424  66.764  1.00  0.00    -0.307 A  
HETATM    8  C   UNL     1     -10.961  15.554  66.056  1.00  0.00    -0.251 C  
HETATM    9  C   UNL     1      -7.186  17.435  66.952  1.00  0.00    -0.231 A  
HETATM   10  C   UNL     1      -7.305  16.041  67.077  1.00  0.00    -0.258 A  
HETATM   11  C   UNL     1      -6.084  15.318  67.580  1.00  0.00    -0.139 C  
BRANCH   7  12
HETATM   12  C   UNL     1      -8.715  13.970  66.970  1.00  0.00    -0.220 C  
HETATM   13  C   UNL     1      -9.186  13.413  68.100  1.00  0.00    -0.215 C  
BRANCH  13  14
HETATM   14  C   UNL     1      -9.318  11.977  68.386  1.00  0.00    -0.175 C  
HETATM   15  C   UNL     1     -10.420  11.514  69.023  1.00  0.00    -0.175 C  
HETATM   16  C   UNL     1      -8.203  11.031  67.996  1.00  0.00    -0.123 C  
BRANCH  15  17
HETATM   17  C   UNL     1     -10.652  10.118  69.356  1.00  0.00    -0.261 C  
HETATM   18  C   UNL     1     -10.541   9.574  70.578  1.00  0.00    -0.358 C  
BRANCH  18  19
HETATM   19  C   UNL     1     -10.837   8.165  70.829  1.00  0.00    -0.247 C  
HETATM   20  C   UNL     1     -12.195   7.876  71.411  1.00  0.00    -0.337 C  
HETATM   21  C   UNL     1      -9.915   7.223  70.538  1.00  0.00    -0.191 C  
HETATM   22  C   UNL     1     -10.085   5.774  70.782  1.00  0.00    -0.202 C  
HETATM   23  O   UNL     1      -8.987   5.075  70.427  1.00  0.00    -0.118 OA 
HETATM   24  O   UNL     1     -11.075   5.242  71.255  1.00  0.00    -0.079 OA 
ENDBRANCH  18  19
ENDBRANCH  15  17
ENDBRANCH  13  14
ENDBRANCH   7  12
ENDBRANCH   2   3
TORSDOF 5
ENDMDL
MODEL       74
REMARK 921   NORMALIZED FREE ENERGY PREDICTED BY IDOCK:   -4.22 KCAL/MOL
REMARK 922        TOTAL FREE ENERGY PREDICTED BY IDOCK:   -6.24 KCAL/MOL
REMARK 923 INTER-LIGAND FREE ENERGY PREDICTED BY IDOCK:   -5.42 KCAL/MOL
REMARK 924 INTRA-LIGAND FREE ENERGY PREDICTED BY IDOCK:   -0.82 KCAL/MOL
REMARK 927      BINDING AFFINITY PREDICTED BY RF-SCORE:    0.00 PKD
ROOT
HETATM    1  C   UNL     1      -7.069   1.848  67.308  1.00  0.00    -0.043 C  
HETATM    2  O   UNL     1      -7.997   2.360  66.355  1.00  0.00    -0.078 OA 
ENDROOT
BRANCH   2   3
HETATM    3  C   UNL     1      -8.453   3.632  66.595  1.00  0.00    -0.106 A  
HETATM    4  C   UNL     1      -8.113   4.635  65.669  1.00  0.00    -0.107 A  
HETATM    5  C   UNL     1      -7.288   4.285  64.453  1.00  0.00    -0.070 C  
HETATM    6  C   UNL     1      -8.546   5.973  65.897  1.00  0.00    -0.150 A  
HETATM    7  C   UNL     1      -9.301   6.290  67.063  1.00  0.00    -0.135 A  
HETATM    8  C   UNL     1      -8.186   7.080  64.928  1.00  0.00    -0.076 C  
HETATM    9  C   UNL     1      -9.171   3.964  67.743  1.00  0.00    -0.206 A  
HETATM   10  C   UNL     1      -9.604   5.277  67.993  1.00  0.00    -0.163 A  
HETATM   11  C   UNL     1     -10.346   5.491  69.285  1.00  0.00    -0.335 C  
BRANCH   7  12
HETATM   12  C   UNL     1      -9.666   7.698  67.340  1.00  0.00    -0.208 C  
HETATM   13  C   UNL     1      -8.977   8.519  68.153  1.00  0.00    -0.142 C  
BRANCH  13  14
HETATM   14  C   UNL     1      -9.334   9.896  68.523  1.00  0.00    -0.143 C  
HETATM   15  C   UNL     1     -10.618  10.314  68.410  1.00  0.00    -0.247 C  
HETATM   16  C   UNL     1      -8.256  10.847  68.994  1.00  0.00    -0.126 C  
BRANCH  15  17
HETATM   17  C   UNL     1     -11.080  11.651  68.748  1.00  0.00    -0.283 C  
HETATM   18  C   UNL     1     -11.770  11.986  69.850  1.00  0.00    -0.374 C  
BRANCH  18  19
HETATM   19  C   UNL     1     -12.157  13.367  70.130  1.00  0.00    -0.415 C  
HETATM   20  C   UNL     1     -11.685  14.394  69.136  1.00  0.00    -0.354 C  
HETATM   21  C   UNL     1     -12.895  13.648  71.226  1.00  0.00    -0.424 C  
HETATM   22  C   UNL     1     -13.314  15.007  71.634  1.00  0.00    -0.401 C  
HETATM   23  O   UNL     1     -14.010  14.989  72.790  1.00  0.00    -0.435 OA 
HETATM   24  O   UNL     1     -13.069  16.039  71.032  1.00  0.00    -0.400 OA 
ENDBRANCH  18  19
ENDBRANCH  15  17
ENDBRANCH  13  14
ENDBRANCH   7  12
ENDBRANCH   2   3
TORSDOF 5
ENDMDL
MODEL       75
REMARK 921   NORMALIZED FREE ENERGY PREDICTED BY IDOCK:   -4.15 KCAL/MOL
REMARK 922        TOTAL FREE ENERGY PREDICTED BY IDOCK:   -6.15 KCAL/MOL
REMARK 923 INTER-LIGAND FREE ENERGY PREDICTED BY IDOCK:   -5.70 KCAL/MOL
REMARK 924 INTRA-LIGAND FREE ENERGY PREDICTED BY IDOCK:   -0.45 KCAL/MOL
REMARK 927      BINDING AFFINITY PREDICTED BY RF-SCORE:    0.00 PKD
ROOT
HETATM    1  C   UNL     1      -7.157   4.535  64.256  1.00  0.00    -0.050 C  
HETATM    2  O   UNL     1      -8.085   4.621  65.334  1.00  0.00    -0.104 OA 
ENDROOT
BRANCH   2   3
HETATM    3  C   UNL     1      -8.521   5.886  65.641  1.00  0.00    -0.153 A  
HETATM    4  C   UNL     1      -9.425   6.025  66.711  1.00  0.00    -0.158 A  
HETATM    5  C   UNL     1      -9.865   4.805  67.484  1.00  0.00    -0.206 C  
HETATM    6  C   UNL     1      -9.920   7.318  67.043  1.00  0.00    -0.293 A  
HETATM    7  C   UNL     1      -9.515   8.455  66.285  1.00  0.00    -0.292 A  
HETATM    8  C   UNL     1     -10.905   7.503  68.178  1.00  0.00    -0.070 C  
HETATM    9  C   UNL     1      -8.154   7.004  64.895  1.00  0.00    -0.107 A  
HETATM   10  C   UNL     1      -8.633   8.289  65.200  1.00  0.00    -0.132 A  
HETATM   11  C   UNL     1      -8.171   9.397  64.291  1.00  0.00    -0.153 C  
BRANCH   7  12
HETATM   12  C   UNL     1     -10.106   9.780  66.577  1.00  0.00    -0.307 C  
HETATM   13  C   UNL     1      -9.400  10.915  66.725  1.00  0.00    -0.185 C  
BRANCH  13  14
HETATM   14  C   UNL     1      -9.925  12.239  67.088  1.00  0.00    -0.213 C  
HETATM   15  C   UNL     1      -9.070  13.245  67.390  1.00  0.00    -0.216 C  
HETATM   16  C   UNL     1     -11.421  12.458  67.155  1.00  0.00    -0.423 C  
BRANCH  15  17
HETATM   17  C   UNL     1      -9.479  14.590  67.762  1.00  0.00    -0.210 C  
HETATM   18  C   UNL     1      -9.333  15.690  67.006  1.00  0.00    -0.241 C  
BRANCH  18  19
HETATM   19  C   UNL     1      -9.815  16.998  67.442  1.00  0.00    -0.262 C  
HETATM   20  C   UNL     1     -10.256  17.088  68.878  1.00  0.00    -0.322 C  
HETATM   21  C   UNL     1      -9.842  18.029  66.570  1.00  0.00    -0.353 C  
HETATM   22  C   UNL     1     -10.342  19.386  66.883  1.00  0.00    -0.437 C  
HETATM   23  O   UNL     1     -10.282  20.201  65.810  1.00  0.00    -0.448 OA 
HETATM   24  O   UNL     1     -10.774  19.754  67.962  1.00  0.00    -0.368 OA 
ENDBRANCH  18  19
ENDBRANCH  15  17
ENDBRANCH  13  14
ENDBRANCH   7  12
ENDBRANCH   2   3
TORSDOF 5
ENDMDL
MODEL       76
REMARK 921   NORMALIZED FREE ENERGY PREDICTED BY IDOCK:   -4.13 KCAL/MOL
REMARK 922        TOTAL FREE ENERGY PREDICTED BY IDOCK:   -6.13 KCAL/MOL
REMARK 923 INTER-LIGAND FREE ENERGY PREDICTED BY IDOCK:   -5.45 KCAL/MOL
REMARK 924 INTRA-LIGAND FREE ENERGY PREDICTED BY IDOCK:   -0.68 KCAL/MOL
REMARK 927      BINDING AFFINITY PREDICTED BY RF-SCORE:    0.00 PKD
ROOT
HETATM    1  C   UNL     1     -10.785  19.509  67.011  1.00  0.00    -0.477 C  
HETATM    2  O   UNL     1      -9.671  18.874  66.390  1.00  0.00    -0.340 OA 
ENDROOT
BRANCH   2   3
HETATM    3  C   UNL     1      -9.593  17.514  66.561  1.00  0.00    -0.285 A  
HETATM    4  C   UNL     1      -8.723  17.028  67.555  1.00  0.00    -0.215 A  
HETATM    5  C   UNL     1      -7.930  17.998  68.397  1.00  0.00    -0.306 C  
HETATM    6  C   UNL     1      -8.595  15.622  67.745  1.00  0.00    -0.168 A  
HETATM    7  C   UNL     1      -9.331  14.720  66.922  1.00  0.00    -0.256 A  
HETATM    8  C   UNL     1      -7.657  15.064  68.794  1.00  0.00    -0.137 C  
HETATM    9  C   UNL     1     -10.287  16.618  65.750  1.00  0.00    -0.338 A  
HETATM   10  C   UNL     1     -10.173  15.227  65.914  1.00  0.00    -0.353 A  
HETATM   11  C   UNL     1     -10.960  14.383  64.947  1.00  0.00    -0.416 C  
BRANCH   7  12
HETATM   12  C   UNL     1      -9.121  13.262  67.063  1.00  0.00    -0.232 C  
HETATM   13  C   UNL     1      -9.913  12.443  67.778  1.00  0.00    -0.205 C  
BRANCH  13  14
HETATM   14  C   UNL     1      -9.712  11.006  68.013  1.00  0.00    -0.181 C  
HETATM   15  C   UNL     1      -9.438  10.558  69.262  1.00  0.00    -0.191 C  
HETATM   16  C   UNL     1      -9.778  10.040  66.850  1.00  0.00    -0.237 C  
BRANCH  15  17
HETATM   17  C   UNL     1      -9.222   9.162  69.607  1.00  0.00    -0.172 C  
HETATM   18  C   UNL     1      -8.637   8.714  70.730  1.00  0.00    -0.197 C  
BRANCH  18  19
HETATM   19  C   UNL     1      -8.500   7.288  71.016  1.00  0.00    -0.127 C  
HETATM   20  C   UNL     1      -7.368   6.910  71.932  1.00  0.00    -0.087 C  
HETATM   21  C   UNL     1      -9.364   6.407  70.466  1.00  0.00    -0.169 C  
HETATM   22  C   UNL     1      -9.303   4.941  70.650  1.00  0.00    -0.162 C  
HETATM   23  O   UNL     1     -10.271   4.309  69.953  1.00  0.00    -0.103 OA 
HETATM   24  O   UNL     1      -8.487   4.341  71.329  1.00  0.00    -0.093 OA 
ENDBRANCH  18  19
ENDBRANCH  15  17
ENDBRANCH  13  14
ENDBRANCH   7  12
ENDBRANCH   2   3
TORSDOF 5
ENDMDL
MODEL       77
REMARK 921   NORMALIZED FREE ENERGY PREDICTED BY IDOCK:   -4.12 KCAL/MOL
REMARK 922        TOTAL FREE ENERGY PREDICTED BY IDOCK:   -6.12 KCAL/MOL
REMARK 923 INTER-LIGAND FREE ENERGY PREDICTED BY IDOCK:   -5.43 KCAL/MOL
REMARK 924 INTRA-LIGAND FREE ENERGY PREDICTED BY IDOCK:   -0.69 KCAL/MOL
REMARK 927      BINDING AFFINITY PREDICTED BY RF-SCORE:    0.00 PKD
ROOT
HETATM    1  C   UNL     1      -8.761   1.570  64.427  1.00  0.00    -0.093 C  
HETATM    2  O   UNL     1      -8.660   1.728  65.840  1.00  0.00    -0.100 OA 
ENDROOT
BRANCH   2   3
HETATM    3  C   UNL     1      -8.765   3.017  66.301  1.00  0.00    -0.132 A  
HETATM    4  C   UNL     1      -9.268   3.207  67.601  1.00  0.00    -0.237 A  
HETATM    5  C   UNL     1      -9.653   2.011  68.439  1.00  0.00    -0.139 C  
HETATM    6  C   UNL     1      -9.416   4.531  68.107  1.00  0.00    -0.201 A  
HETATM    7  C   UNL     1      -9.072   5.648  67.292  1.00  0.00    -0.110 A  
HETATM    8  C   UNL     1      -9.968   4.773  69.496  1.00  0.00    -0.287 C  
HETATM    9  C   UNL     1      -8.456   4.121  65.510  1.00  0.00    -0.110 A  
HETATM   10  C   UNL     1      -8.599   5.436  65.983  1.00  0.00    -0.127 A  
HETATM   11  C   UNL     1      -8.253   6.529  65.007  1.00  0.00    -0.115 C  
BRANCH   7  12
HETATM   12  C   UNL     1      -9.317   7.021  67.789  1.00  0.00    -0.127 C  
HETATM   13  C   UNL     1     -10.256   7.853  67.303  1.00  0.00    -0.343 C  
BRANCH  13  14
HETATM   14  C   UNL     1     -10.492   9.246  67.705  1.00  0.00    -0.325 C  
HETATM   15  C   UNL     1     -10.430  10.235  66.781  1.00  0.00    -0.279 C  
HETATM   16  C   UNL     1     -10.770   9.570  69.157  1.00  0.00    -0.228 C  
BRANCH  15  17
HETATM   17  C   UNL     1     -10.646  11.644  67.068  1.00  0.00    -0.272 C  
HETATM   18  C   UNL     1      -9.690  12.583  67.151  1.00  0.00    -0.205 C  
BRANCH  18  19
HETATM   19  C   UNL     1     -10.003  13.988  67.401  1.00  0.00    -0.243 C  
HETATM   20  C   UNL     1     -10.119  14.385  68.849  1.00  0.00    -0.202 C  
HETATM   21  C   UNL     1     -10.167  14.835  66.362  1.00  0.00    -0.299 C  
HETATM   22  C   UNL     1     -10.522  16.265  66.489  1.00  0.00    -0.290 C  
HETATM   23  O   UNL     1     -10.656  16.856  65.283  1.00  0.00    -0.633 OA 
HETATM   24  O   UNL     1     -10.694  16.867  67.535  1.00  0.00    -0.329 OA 
ENDBRANCH  18  19
ENDBRANCH  15  17
ENDBRANCH  13  14
ENDBRANCH   7  12
ENDBRANCH   2   3
TORSDOF 5
ENDMDL
MODEL       78
REMARK 921   NORMALIZED FREE ENERGY PREDICTED BY IDOCK:   -4.12 KCAL/MOL
REMARK 922        TOTAL FREE ENERGY PREDICTED BY IDOCK:   -6.12 KCAL/MOL
REMARK 923 INTER-LIGAND FREE ENERGY PREDICTED BY IDOCK:   -5.39 KCAL/MOL
REMARK 924 INTRA-LIGAND FREE ENERGY PREDICTED BY IDOCK:   -0.72 KCAL/MOL
REMARK 927      BINDING AFFINITY PREDICTED BY RF-SCORE:    0.00 PKD
ROOT
HETATM    1  C   UNL     1      -6.216  19.278  64.858  1.00  0.00    -0.273 C  
HETATM    2  O   UNL     1      -6.771  19.131  66.161  1.00  0.00    -0.200 OA 
ENDROOT
BRANCH   2   3
HETATM    3  C   UNL     1      -7.323  17.905  66.436  1.00  0.00    -0.265 A  
HETATM    4  C   UNL     1      -6.538  16.978  67.147  1.00  0.00    -0.217 A  
HETATM    5  C   UNL     1      -5.146  17.360  67.591  1.00  0.00    -0.128 C  
HETATM    6  C   UNL     1      -7.066  15.686  67.429  1.00  0.00    -0.241 A  
HETATM    7  C   UNL     1      -8.371  15.333  66.979  1.00  0.00    -0.267 A  
HETATM    8  C   UNL     1      -6.243  14.659  68.178  1.00  0.00    -0.146 C  
HETATM    9  C   UNL     1      -8.588  17.536  65.982  1.00  0.00    -0.080 A  
HETATM   10  C   UNL     1      -9.128  16.265  66.243  1.00  0.00    -0.366 A  
HETATM   11  C   UNL     1     -10.493  15.999  65.667  1.00  0.00    -0.416 C  
BRANCH   7  12
HETATM   12  C   UNL     1      -8.875  13.958  67.193  1.00  0.00    -0.236 C  
HETATM   13  C   UNL     1      -9.789  13.617  68.119  1.00  0.00    -0.236 C  
BRANCH  13  14
HETATM   14  C   UNL     1     -10.269  12.262  68.427  1.00  0.00    -0.220 C  
HETATM   15  C   UNL     1      -9.384  11.242  68.537  1.00  0.00    -0.182 C  
HETATM   16  C   UNL     1     -11.752  12.011  68.583  1.00  0.00    -0.380 C  
BRANCH  15  17
HETATM   17  C   UNL     1      -9.748   9.866  68.838  1.00  0.00    -0.176 C  
HETATM   18  C   UNL     1      -9.498   9.223  69.990  1.00  0.00    -0.236 C  
BRANCH  18  19
HETATM   19  C   UNL     1      -9.940   7.851  70.222  1.00  0.00    -0.189 C  
HETATM   20  C   UNL     1     -10.350   7.525  71.634  1.00  0.00    -0.217 C  
HETATM   21  C   UNL     1      -9.961   6.970  69.199  1.00  0.00    -0.165 C  
HETATM   22  C   UNL     1     -10.352   5.548  69.319  1.00  0.00    -0.265 C  
HETATM   23  O   UNL     1     -10.243   4.899  68.141  1.00  0.00    -0.122 OA 
HETATM   24  O   UNL     1     -10.720   4.994  70.340  1.00  0.00    -0.168 OA 
ENDBRANCH  18  19
ENDBRANCH  15  17
ENDBRANCH  13  14
ENDBRANCH   7  12
ENDBRANCH   2   3
TORSDOF 5
ENDMDL
MODEL       79
REMARK 921   NORMALIZED FREE ENERGY PREDICTED BY IDOCK:   -4.12 KCAL/MOL
REMARK 922        TOTAL FREE ENERGY PREDICTED BY IDOCK:   -6.11 KCAL/MOL
REMARK 923 INTER-LIGAND FREE ENERGY PREDICTED BY IDOCK:   -5.31 KCAL/MOL
REMARK 924 INTRA-LIGAND FREE ENERGY PREDICTED BY IDOCK:   -0.80 KCAL/MOL
REMARK 927      BINDING AFFINITY PREDICTED BY RF-SCORE:    0.00 PKD
ROOT
HETATM    1  C   UNL     1     -11.136   6.220  67.126  1.00  0.00    -0.303 C  
HETATM    2  O   UNL     1      -9.734   6.477  67.151  1.00  0.00    -0.132 OA 
ENDROOT
BRANCH   2   3
HETATM    3  C   UNL     1      -9.375   7.801  67.184  1.00  0.00    -0.150 A  
HETATM    4  C   UNL     1      -8.594   8.240  68.269  1.00  0.00    -0.133 A  
HETATM    5  C   UNL     1      -8.170   7.257  69.334  1.00  0.00    -0.131 C  
HETATM    6  C   UNL     1      -8.222   9.613  68.352  1.00  0.00    -0.106 A  
HETATM    7  C   UNL     1      -8.654  10.532  67.352  1.00  0.00    -0.122 A  
HETATM    8  C   UNL     1      -7.396  10.123  69.514  1.00  0.00    -0.123 C  
HETATM    9  C   UNL     1      -9.809   8.717  66.228  1.00  0.00    -0.342 A  
HETATM   10  C   UNL     1      -9.460  10.077  66.291  1.00  0.00    -0.241 A  
HETATM   11  C   UNL     1     -10.024  10.952  65.204  1.00  0.00    -0.341 C  
BRANCH   7  12
HETATM   12  C   UNL     1      -8.344  11.972  67.496  1.00  0.00    -0.166 C  
HETATM   13  C   UNL     1      -9.202  12.895  67.966  1.00  0.00    -0.212 C  
BRANCH  13  14
HETATM   14  C   UNL     1      -8.974  14.344  68.058  1.00  0.00    -0.183 C  
HETATM   15  C   UNL     1      -7.797  14.813  68.538  1.00  0.00    -0.130 C  
HETATM   16  C   UNL     1     -10.072  15.301  67.648  1.00  0.00    -0.235 C  
BRANCH  15  17
HETATM   17  C   UNL     1      -7.467  16.223  68.672  1.00  0.00    -0.185 C  
HETATM   18  C   UNL     1      -6.600  16.901  67.903  1.00  0.00    -0.152 C  
BRANCH  18  19
HETATM   19  C   UNL     1      -6.361  18.331  68.082  1.00  0.00    -0.188 C  
HETATM   20  C   UNL     1      -6.140  19.120  66.819  1.00  0.00    -0.177 C  
HETATM   21  C   UNL     1      -6.351  18.860  69.324  1.00  0.00    -0.299 C  
HETATM   22  C   UNL     1      -6.084  20.283  69.632  1.00  0.00    -0.344 C  
HETATM   23  O   UNL     1      -6.103  20.518  70.961  1.00  0.00    -0.586 OA 
HETATM   24  O   UNL     1      -5.859  21.158  68.815  1.00  0.00    -0.326 OA 
ENDBRANCH  18  19
ENDBRANCH  15  17
ENDBRANCH  13  14
ENDBRANCH   7  12
ENDBRANCH   2   3
TORSDOF 5
ENDMDL
MODEL       80
REMARK 921   NORMALIZED FREE ENERGY PREDICTED BY IDOCK:   -4.12 KCAL/MOL
REMARK 922        TOTAL FREE ENERGY PREDICTED BY IDOCK:   -6.11 KCAL/MOL
REMARK 923 INTER-LIGAND FREE ENERGY PREDICTED BY IDOCK:   -5.61 KCAL/MOL
REMARK 924 INTRA-LIGAND FREE ENERGY PREDICTED BY IDOCK:   -0.50 KCAL/MOL
REMARK 927      BINDING AFFINITY PREDICTED BY RF-SCORE:    0.00 PKD
ROOT
HETATM    1  C   UNL     1     -11.029   5.934  69.956  1.00  0.00    -0.360 C  
HETATM    2  O   UNL     1     -10.190   6.976  70.446  1.00  0.00    -0.194 OA 
ENDROOT
BRANCH   2   3
HETATM    3  C   UNL     1     -10.188   8.133  69.708  1.00  0.00    -0.203 A  
HETATM    4  C   UNL     1      -9.270   8.231  68.646  1.00  0.00    -0.143 A  
HETATM    5  C   UNL     1      -8.344   7.076  68.347  1.00  0.00    -0.124 C  
HETATM    6  C   UNL     1      -9.221   9.426  67.873  1.00  0.00    -0.139 A  
HETATM    7  C   UNL     1     -10.083  10.516  68.187  1.00  0.00    -0.180 A  
HETATM    8  C   UNL     1      -8.234   9.572  66.733  1.00  0.00    -0.113 C  
HETATM    9  C   UNL     1     -11.008   9.217  70.017  1.00  0.00    -0.254 A  
HETATM   10  C   UNL     1     -10.973  10.408  69.273  1.00  0.00    -0.287 A  
HETATM   11  C   UNL     1     -11.896  11.503  69.739  1.00  0.00    -0.429 C  
BRANCH   7  12
HETATM   12  C   UNL     1      -9.960  11.788  67.440  1.00  0.00    -0.198 C  
HETATM   13  C   UNL     1      -9.196  12.827  67.822  1.00  0.00    -0.199 C  
BRANCH  13  14
HETATM   14  C   UNL     1      -9.095  14.136  67.162  1.00  0.00    -0.240 C  
HETATM   15  C   UNL     1      -8.247  15.074  67.648  1.00  0.00    -0.181 C  
HETATM   16  C   UNL     1      -9.967  14.439  65.963  1.00  0.00    -0.337 C  
BRANCH  15  17
HETATM   17  C   UNL     1      -8.068  16.398  67.075  1.00  0.00    -0.235 C  
HETATM   18  C   UNL     1      -6.921  17.097  67.059  1.00  0.00    -0.228 C  
BRANCH  18  19
HETATM   19  C   UNL     1      -6.821  18.407  66.420  1.00  0.00    -0.252 C  
HETATM   20  C   UNL     1      -7.379  19.563  67.207  1.00  0.00    -0.249 C  
HETATM   21  C   UNL     1      -6.254  18.517  65.200  1.00  0.00    -0.247 C  
HETATM   22  C   UNL     1      -6.130  19.780  64.439  1.00  0.00    -0.243 C  
HETATM   23  O   UNL     1      -5.554  19.583  63.235  1.00  0.00    -0.305 OA 
HETATM   24  O   UNL     1      -6.503  20.878  64.816  1.00  0.00    -0.265 OA 
ENDBRANCH  18  19
ENDBRANCH  15  17
ENDBRANCH  13  14
ENDBRANCH   7  12
ENDBRANCH   2   3
TORSDOF 5
ENDMDL
MODEL       81
REMARK 921   NORMALIZED FREE ENERGY PREDICTED BY IDOCK:   -4.11 KCAL/MOL
REMARK 922        TOTAL FREE ENERGY PREDICTED BY IDOCK:   -6.10 KCAL/MOL
REMARK 923 INTER-LIGAND FREE ENERGY PREDICTED BY IDOCK:   -5.40 KCAL/MOL
REMARK 924 INTRA-LIGAND FREE ENERGY PREDICTED BY IDOCK:   -0.70 KCAL/MOL
REMARK 927      BINDING AFFINITY PREDICTED BY RF-SCORE:    0.00 PKD
ROOT
HETATM    1  C   UNL     1      -7.635  20.773  67.231  1.00  0.00    -0.305 C  
HETATM    2  O   UNL     1      -8.691  20.057  67.866  1.00  0.00    -0.309 OA 
ENDROOT
BRANCH   2   3
HETATM    3  C   UNL     1      -8.702  18.701  67.650  1.00  0.00    -0.272 A  
HETATM    4  C   UNL     1      -9.587  18.201  66.677  1.00  0.00    -0.306 A  
HETATM    5  C   UNL     1     -10.468  19.153  65.903  1.00  0.00    -0.500 C  
HETATM    6  C   UNL     1      -9.646  16.797  66.442  1.00  0.00    -0.303 A  
HETATM    7  C   UNL     1      -8.827  15.911  67.200  1.00  0.00    -0.228 A  
HETATM    8  C   UNL     1     -10.597  16.223  65.413  1.00  0.00    -0.371 C  
HETATM    9  C   UNL     1      -7.926  17.819  68.399  1.00  0.00    -0.293 A  
HETATM   10  C   UNL     1      -7.971  16.431  68.190  1.00  0.00    -0.160 A  
HETATM   11  C   UNL     1      -7.097  15.600  69.092  1.00  0.00    -0.168 C  
BRANCH   7  12
HETATM   12  C   UNL     1      -8.963  14.448  67.016  1.00  0.00    -0.257 C  
HETATM   13  C   UNL     1      -9.856  13.678  67.661  1.00  0.00    -0.228 C  
BRANCH  13  14
HETATM   14  C   UNL     1      -9.985  12.216  67.575  1.00  0.00    -0.202 C  
HETATM   15  C   UNL     1      -9.118  11.421  68.248  1.00  0.00    -0.179 C  
HETATM   16  C   UNL     1     -11.065  11.610  66.706  1.00  0.00    -0.366 C  
BRANCH  15  17
HETATM   17  C   UNL     1      -9.153   9.968  68.233  1.00  0.00    -0.122 C  
HETATM   18  C   UNL     1      -8.091   9.160  68.088  1.00  0.00    -0.104 C  
BRANCH  18  19
HETATM   19  C   UNL     1      -8.214   7.704  68.129  1.00  0.00    -0.124 C  
HETATM   20  C   UNL     1      -7.729   7.043  69.391  1.00  0.00    -0.108 C  
HETATM   21  C   UNL     1      -8.738   7.044  67.074  1.00  0.00    -0.123 C  
HETATM   22  C   UNL     1      -8.878   5.574  66.984  1.00  0.00    -0.110 C  
HETATM   23  O   UNL     1      -9.401   5.194  65.800  1.00  0.00    -0.158 OA 
HETATM   24  O   UNL     1      -8.560   4.775  67.848  1.00  0.00    -0.103 OA 
ENDBRANCH  18  19
ENDBRANCH  15  17
ENDBRANCH  13  14
ENDBRANCH   7  12
ENDBRANCH   2   3
TORSDOF 5
ENDMDL
MODEL       82
REMARK 921   NORMALIZED FREE ENERGY PREDICTED BY IDOCK:   -4.10 KCAL/MOL
REMARK 922        TOTAL FREE ENERGY PREDICTED BY IDOCK:   -6.08 KCAL/MOL
REMARK 923 INTER-LIGAND FREE ENERGY PREDICTED BY IDOCK:   -5.39 KCAL/MOL
REMARK 924 INTRA-LIGAND FREE ENERGY PREDICTED BY IDOCK:   -0.69 KCAL/MOL
REMARK 927      BINDING AFFINITY PREDICTED BY RF-SCORE:    0.00 PKD
ROOT
HETATM    1  C   UNL     1     -10.447  18.935  66.974  1.00  0.00    -0.428 C  
HETATM    2  O   UNL     1     -10.595  17.985  65.922  1.00  0.00    -0.451 OA 
ENDROOT
BRANCH   2   3
HETATM    3  C   UNL     1     -10.176  16.711  66.210  1.00  0.00    -0.334 A  
HETATM    4  C   UNL     1     -10.716  15.656  65.451  1.00  0.00    -0.424 A  
HETATM    5  C   UNL     1     -11.707  15.956  64.351  1.00  0.00    -0.179 C  
HETATM    6  C   UNL     1     -10.326  14.317  65.737  1.00  0.00    -0.341 A  
HETATM    7  C   UNL     1      -9.410  14.051  66.796  1.00  0.00    -0.289 A  
HETATM    8  C   UNL     1     -10.898  13.157  64.950  1.00  0.00    -0.348 C  
HETATM    9  C   UNL     1      -9.300  16.431  67.258  1.00  0.00    -0.227 A  
HETATM   10  C   UNL     1      -8.905  15.118  67.564  1.00  0.00    -0.190 A  
HETATM   11  C   UNL     1      -7.976  14.967  68.739  1.00  0.00    -0.156 C  
BRANCH   7  12
HETATM   12  C   UNL     1      -9.082  12.651  67.149  1.00  0.00    -0.210 C  
HETATM   13  C   UNL     1      -9.798  11.890  67.996  1.00  0.00    -0.190 C  
BRANCH  13  14
HETATM   14  C   UNL     1      -9.478  10.526  68.439  1.00  0.00    -0.158 C  
HETATM   15  C   UNL     1      -9.751   9.472  67.632  1.00  0.00    -0.188 C  
HETATM   16  C   UNL     1      -8.877  10.306  69.811  1.00  0.00    -0.070 C  
BRANCH  15  17
HETATM   17  C   UNL     1      -9.477   8.085  67.970  1.00  0.00    -0.157 C  
HETATM   18  C   UNL     1     -10.236   7.305  68.756  1.00  0.00    -0.188 C  
BRANCH  18  19
HETATM   19  C   UNL     1      -9.907   5.904  69.006  1.00  0.00    -0.193 C  
HETATM   20  C   UNL     1     -10.623   5.260  70.163  1.00  0.00    -0.297 C  
HETATM   21  C   UNL     1      -9.010   5.273  68.218  1.00  0.00    -0.116 C  
HETATM   22  C   UNL     1      -8.570   3.872  68.395  1.00  0.00    -0.095 C  
HETATM   23  O   UNL     1      -7.639   3.521  67.483  1.00  0.00    -0.069 OA 
HETATM   24  O   UNL     1      -8.966   3.104  69.255  1.00  0.00    -0.091 OA 
ENDBRANCH  18  19
ENDBRANCH  15  17
ENDBRANCH  13  14
ENDBRANCH   7  12
ENDBRANCH   2   3
TORSDOF 5
ENDMDL
MODEL       83
REMARK 921   NORMALIZED FREE ENERGY PREDICTED BY IDOCK:   -4.07 KCAL/MOL
REMARK 922        TOTAL FREE ENERGY PREDICTED BY IDOCK:   -6.05 KCAL/MOL
REMARK 923 INTER-LIGAND FREE ENERGY PREDICTED BY IDOCK:   -5.55 KCAL/MOL
REMARK 924 INTRA-LIGAND FREE ENERGY PREDICTED BY IDOCK:   -0.49 KCAL/MOL
REMARK 927      BINDING AFFINITY PREDICTED BY RF-SCORE:    0.00 PKD
ROOT
HETATM    1  C   UNL     1     -11.968  16.057  72.219  1.00  0.00    -0.538 C  
HETATM    2  O   UNL     1     -12.189  16.283  70.830  1.00  0.00    -0.158 OA 
ENDROOT
BRANCH   2   3
HETATM    3  C   UNL     1     -11.836  15.251  69.997  1.00  0.00    -0.334 A  
HETATM    4  C   UNL     1     -11.247  15.578  68.761  1.00  0.00    -0.316 A  
HETATM    5  C   UNL     1     -11.010  17.026  68.404  1.00  0.00    -0.263 C  
HETATM    6  C   UNL     1     -10.891  14.535  67.859  1.00  0.00    -0.260 A  
HETATM    7  C   UNL     1     -11.146  13.175  68.202  1.00  0.00    -0.284 A  
HETATM    8  C   UNL     1     -10.269  14.851  66.515  1.00  0.00    -0.281 C  
HETATM    9  C   UNL     1     -12.101  13.918  70.306  1.00  0.00    -0.423 A  
HETATM   10  C   UNL     1     -11.764  12.872  69.431  1.00  0.00    -0.382 A  
HETATM   11  C   UNL     1     -12.134  11.486  69.887  1.00  0.00    -0.389 C  
BRANCH   7  12
HETATM   12  C   UNL     1     -10.860  12.105  67.221  1.00  0.00    -0.286 C  
HETATM   13  C   UNL     1      -9.631  11.784  66.779  1.00  0.00    -0.212 C  
BRANCH  13  14
HETATM   14  C   UNL     1      -9.296  10.786  65.753  1.00  0.00    -0.235 C  
HETATM   15  C   UNL     1      -8.295   9.900  65.974  1.00  0.00    -0.124 C  
HETATM   16  C   UNL     1     -10.051  10.778  64.442  1.00  0.00    -0.419 C  
BRANCH  15  17
HETATM   17  C   UNL     1      -7.881   8.873  65.031  1.00  0.00    -0.112 C  
HETATM   18  C   UNL     1      -7.943   7.548  65.239  1.00  0.00    -0.126 C  
BRANCH  18  19
HETATM   19  C   UNL     1      -7.546   6.585  64.215  1.00  0.00    -0.100 C  
HETATM   20  C   UNL     1      -6.873   7.163  62.999  1.00  0.00    -0.053 C  
HETATM   21  C   UNL     1      -7.790   5.269  64.400  1.00  0.00    -0.100 C  
HETATM   22  C   UNL     1      -7.468   4.207  63.421  1.00  0.00    -0.051 C  
HETATM   23  O   UNL     1      -7.858   2.991  63.858  1.00  0.00    -0.078 OA 
HETATM   24  O   UNL     1      -6.931   4.373  62.340  1.00  0.00    -0.030 OA 
ENDBRANCH  18  19
ENDBRANCH  15  17
ENDBRANCH  13  14
ENDBRANCH   7  12
ENDBRANCH   2   3
TORSDOF 5
ENDMDL
MODEL       84
REMARK 921   NORMALIZED FREE ENERGY PREDICTED BY IDOCK:   -4.07 KCAL/MOL
REMARK 922        TOTAL FREE ENERGY PREDICTED BY IDOCK:   -6.04 KCAL/MOL
REMARK 923 INTER-LIGAND FREE ENERGY PREDICTED BY IDOCK:   -5.51 KCAL/MOL
REMARK 924 INTRA-LIGAND FREE ENERGY PREDICTED BY IDOCK:   -0.53 KCAL/MOL
REMARK 927      BINDING AFFINITY PREDICTED BY RF-SCORE:    0.00 PKD
ROOT
HETATM    1  C   UNL     1     -10.626  18.367  65.490  1.00  0.00     0.048 C  
HETATM    2  O   UNL     1     -11.023  17.233  64.724  1.00  0.00    -0.950 OA 
ENDROOT
BRANCH   2   3
HETATM    3  C   UNL     1     -10.575  16.020  65.185  1.00  0.00    -0.370 A  
HETATM    4  C   UNL     1     -11.346  14.881  64.886  1.00  0.00    -0.415 A  
HETATM    5  C   UNL     1     -12.608  15.023  64.069  1.00  0.00     0.251 C  
HETATM    6  C   UNL     1     -10.927  13.608  65.369  1.00  0.00    -0.302 A  
HETATM    7  C   UNL     1      -9.748  13.497  66.162  1.00  0.00    -0.264 A  
HETATM    8  C   UNL     1     -11.740  12.364  65.079  1.00  0.00    -0.420 C  
HETATM    9  C   UNL     1      -9.438  15.897  65.981  1.00  0.00    -0.389 A  
HETATM   10  C   UNL     1      -9.009  14.654  66.474  1.00  0.00    -0.236 A  
HETATM   11  C   UNL     1      -7.779  14.678  67.343  1.00  0.00    -0.226 C  
BRANCH   7  12
HETATM   12  C   UNL     1      -9.372  12.186  66.738  1.00  0.00    -0.212 C  
HETATM   13  C   UNL     1      -9.005  11.113  66.016  1.00  0.00    -0.210 C  
BRANCH  13  14
HETATM   14  C   UNL     1      -8.695   9.770  66.528  1.00  0.00    -0.139 C  
HETATM   15  C   UNL     1      -9.700   8.942  66.901  1.00  0.00    -0.263 C  
HETATM   16  C   UNL     1      -7.252   9.336  66.666  1.00  0.00    -0.082 C  
BRANCH  15  17
HETATM   17  C   UNL     1      -9.508   7.597  67.419  1.00  0.00    -0.175 C  
HETATM   18  C   UNL     1      -9.725   6.458  66.742  1.00  0.00    -0.199 C  
BRANCH  18  19
HETATM   19  C   UNL     1      -9.463   5.146  67.329  1.00  0.00    -0.141 C  
HETATM   20  C   UNL     1      -9.027   4.074  66.366  1.00  0.00    -0.128 C  
HETATM   21  C   UNL     1      -9.617   4.962  68.658  1.00  0.00    -0.215 C  
HETATM   22  C   UNL     1      -9.418   3.675  69.359  1.00  0.00    -0.179 C  
HETATM   23  O   UNL     1      -9.678   3.780  70.679  1.00  0.00    -0.181 OA 
HETATM   24  O   UNL     1      -9.075   2.626  68.840  1.00  0.00    -0.111 OA 
ENDBRANCH  18  19
ENDBRANCH  15  17
ENDBRANCH  13  14
ENDBRANCH   7  12
ENDBRANCH   2   3
TORSDOF 5
ENDMDL
MODEL       85
REMARK 921   NORMALIZED FREE ENERGY PREDICTED BY IDOCK:   -4.02 KCAL/MOL
REMARK 922        TOTAL FREE ENERGY PREDICTED BY IDOCK:   -5.99 KCAL/MOL
REMARK 923 INTER-LIGAND FREE ENERGY PREDICTED BY IDOCK:   -5.25 KCAL/MOL
REMARK 924 INTRA-LIGAND FREE ENERGY PREDICTED BY IDOCK:   -0.74 KCAL/MOL
REMARK 927      BINDING AFFINITY PREDICTED BY RF-SCORE:    0.00 PKD
ROOT
HETATM    1  C   UNL     1     -11.940  14.524  64.579  1.00  0.00    -0.468 C  
HETATM    2  O   UNL     1     -11.255  14.494  65.828  1.00  0.00    -0.322 OA 
ENDROOT
BRANCH   2   3
HETATM    3  C   UNL     1     -11.156  13.260  66.421  1.00  0.00    -0.295 A  
HETATM    4  C   UNL     1     -11.562  13.145  67.763  1.00  0.00    -0.379 A  
HETATM    5  C   UNL     1     -12.099  14.354  68.491  1.00  0.00    -0.278 C  
HETATM    6  C   UNL     1     -11.451  11.886  68.421  1.00  0.00    -0.357 A  
HETATM    7  C   UNL     1     -10.916  10.762  67.727  1.00  0.00    -0.354 A  
HETATM    8  C   UNL     1     -11.864  11.730  69.869  1.00  0.00    -0.423 C  
HETATM    9  C   UNL     1     -10.613  12.157  65.764  1.00  0.00    -0.295 A  
HETATM   10  C   UNL     1     -10.487  10.908  66.394  1.00  0.00    -0.307 A  
HETATM   11  C   UNL     1      -9.859   9.816  65.570  1.00  0.00    -0.378 C  
BRANCH   7  12
HETATM   12  C   UNL     1     -10.716   9.484  68.445  1.00  0.00    -0.230 C  
HETATM   13  C   UNL     1      -9.674   9.217  69.254  1.00  0.00    -0.169 C  
BRANCH  13  14
HETATM   14  C   UNL     1      -9.386   7.945  69.930  1.00  0.00    -0.156 C  
HETATM   15  C   UNL     1      -8.905   7.946  71.196  1.00  0.00    -0.150 C  
HETATM   16  C   UNL     1      -9.597   6.641  69.191  1.00  0.00    -0.136 C  
BRANCH  15  17
HETATM   17  C   UNL     1      -8.587   6.749  71.957  1.00  0.00    -0.122 C  
HETATM   18  C   UNL     1      -7.367   6.203  72.085  1.00  0.00    -0.093 C  
BRANCH  18  19
HETATM   19  C   UNL     1      -7.131   5.019  72.909  1.00  0.00    -0.084 C  
HETATM   20  C   UNL     1      -6.171   5.200  74.054  1.00  0.00    -0.061 C  
HETATM   21  C   UNL     1      -7.762   3.861  72.617  1.00  0.00    -0.073 C  
HETATM   22  C   UNL     1      -7.575   2.591  73.352  1.00  0.00    -0.046 C  
HETATM   23  O   UNL     1      -8.306   1.592  72.815  1.00  0.00    -0.051 OA 
HETATM   24  O   UNL     1      -6.850   2.428  74.318  1.00  0.00    -0.025 OA 
ENDBRANCH  18  19
ENDBRANCH  15  17
ENDBRANCH  13  14
ENDBRANCH   7  12
ENDBRANCH   2   3
TORSDOF 5
ENDMDL
MODEL       86
REMARK 921   NORMALIZED FREE ENERGY PREDICTED BY IDOCK:   -4.02 KCAL/MOL
REMARK 922        TOTAL FREE ENERGY PREDICTED BY IDOCK:   -5.99 KCAL/MOL
REMARK 923 INTER-LIGAND FREE ENERGY PREDICTED BY IDOCK:   -5.22 KCAL/MOL
REMARK 924 INTRA-LIGAND FREE ENERGY PREDICTED BY IDOCK:   -0.76 KCAL/MOL
REMARK 927      BINDING AFFINITY PREDICTED BY RF-SCORE:    0.00 PKD
ROOT
HETATM    1  C   UNL     1      -9.437   3.704  66.502  1.00  0.00    -0.170 C  
HETATM    2  O   UNL     1     -10.370   4.713  66.877  1.00  0.00    -0.195 OA 
ENDROOT
BRANCH   2   3
HETATM    3  C   UNL     1      -9.849   5.972  67.037  1.00  0.00    -0.152 A  
HETATM    4  C   UNL     1     -10.186   6.677  68.208  1.00  0.00    -0.190 A  
HETATM    5  C   UNL     1     -11.080   6.031  69.240  1.00  0.00    -0.424 C  
HETATM    6  C   UNL     1      -9.685   7.996  68.399  1.00  0.00    -0.168 A  
HETATM    7  C   UNL     1      -8.865   8.600  67.402  1.00  0.00    -0.140 A  
HETATM    8  C   UNL     1     -10.041   8.789  69.639  1.00  0.00    -0.204 C  
HETATM    9  C   UNL     1      -9.065   6.586  66.062  1.00  0.00    -0.111 A  
HETATM   10  C   UNL     1      -8.565   7.889  66.224  1.00  0.00    -0.160 A  
HETATM   11  C   UNL     1      -7.756   8.432  65.076  1.00  0.00    -0.104 C  
BRANCH   7  12
HETATM   12  C   UNL     1      -8.427  10.005  67.564  1.00  0.00    -0.118 C  
HETATM   13  C   UNL     1      -9.056  11.067  67.030  1.00  0.00    -0.154 C  
BRANCH  13  14
HETATM   14  C   UNL     1      -8.626  12.470  67.094  1.00  0.00    -0.200 C  
HETATM   15  C   UNL     1      -9.364  13.432  66.489  1.00  0.00    -0.225 C  
HETATM   16  C   UNL     1      -7.340  12.827  67.809  1.00  0.00    -0.130 C  
BRANCH  15  17
HETATM   17  C   UNL     1      -9.031  14.847  66.490  1.00  0.00    -0.288 C  
HETATM   18  C   UNL     1      -9.679  15.804  67.176  1.00  0.00    -0.227 C  
BRANCH  18  19
HETATM   19  C   UNL     1      -9.247  17.199  67.153  1.00  0.00    -0.242 C  
HETATM   20  C   UNL     1      -8.065  17.504  66.273  1.00  0.00    -0.289 C  
HETATM   21  C   UNL     1      -9.904  18.117  67.894  1.00  0.00    -0.317 C  
HETATM   22  C   UNL     1      -9.539  19.548  67.981  1.00  0.00    -0.359 C  
HETATM   23  O   UNL     1     -10.350  20.220  68.825  1.00  0.00    -0.340 OA 
HETATM   24  O   UNL     1      -8.619  20.086  67.389  1.00  0.00    -0.319 OA 
ENDBRANCH  18  19
ENDBRANCH  15  17
ENDBRANCH  13  14
ENDBRANCH   7  12
ENDBRANCH   2   3
TORSDOF 5
ENDMDL
MODEL       87
REMARK 921   NORMALIZED FREE ENERGY PREDICTED BY IDOCK:   -4.01 KCAL/MOL
REMARK 922        TOTAL FREE ENERGY PREDICTED BY IDOCK:   -5.97 KCAL/MOL
REMARK 923 INTER-LIGAND FREE ENERGY PREDICTED BY IDOCK:   -5.14 KCAL/MOL
REMARK 924 INTRA-LIGAND FREE ENERGY PREDICTED BY IDOCK:   -0.83 KCAL/MOL
REMARK 927      BINDING AFFINITY PREDICTED BY RF-SCORE:    0.00 PKD
ROOT
HETATM    1  C   UNL     1      -6.736   3.066  63.072  1.00  0.00    -0.027 C  
HETATM    2  O   UNL     1      -6.488   2.935  64.469  1.00  0.00    -0.026 OA 
ENDROOT
BRANCH   2   3
HETATM    3  C   UNL     1      -7.014   3.926  65.260  1.00  0.00    -0.061 A  
HETATM    4  C   UNL     1      -8.002   3.564  66.194  1.00  0.00    -0.092 A  
HETATM    5  C   UNL     1      -8.434   2.121  66.306  1.00  0.00    -0.102 C  
HETATM    6  C   UNL     1      -8.590   4.569  67.015  1.00  0.00    -0.104 A  
HETATM    7  C   UNL     1      -8.189   5.929  66.876  1.00  0.00    -0.105 A  
HETATM    8  C   UNL     1      -9.667   4.217  68.019  1.00  0.00    -0.155 C  
HETATM    9  C   UNL     1      -6.651   5.265  65.120  1.00  0.00    -0.040 A  
HETATM   10  C   UNL     1      -7.220   6.274  65.914  1.00  0.00    -0.075 A  
HETATM   11  C   UNL     1      -6.750   7.677  65.633  1.00  0.00    -0.045 C  
BRANCH   7  12
HETATM   12  C   UNL     1      -8.871   6.979  67.666  1.00  0.00    -0.119 C  
HETATM   13  C   UNL     1      -8.398   7.499  68.813  1.00  0.00    -0.129 C  
BRANCH  13  14
HETATM   14  C   UNL     1      -9.066   8.484  69.675  1.00  0.00    -0.149 C  
HETATM   15  C   UNL     1     -10.419   8.515  69.743  1.00  0.00    -0.220 C  
HETATM   16  C   UNL     1      -8.236   9.481  70.454  1.00  0.00    -0.220 C  
BRANCH  15  17
HETATM   17  C   UNL     1     -11.180   9.445  70.561  1.00  0.00    -0.329 C  
HETATM   18  C   UNL     1     -11.770  10.570  70.126  1.00  0.00    -0.410 C  
BRANCH  18  19
HETATM   19  C   UNL     1     -12.555  11.426  71.012  1.00  0.00    -0.487 C  
HETATM   20  C   UNL     1     -13.358  10.713  72.067  1.00  0.00    -0.409 C  
HETATM   21  C   UNL     1     -12.526  12.766  70.852  1.00  0.00    -0.373 C  
HETATM   22  C   UNL     1     -13.304  13.730  71.660  1.00  0.00    -0.354 C  
HETATM   23  O   UNL     1     -13.105  15.000  71.253  1.00  0.00    -0.343 OA 
HETATM   24  O   UNL     1     -14.053  13.446  72.580  1.00  0.00    -0.767 OA 
ENDBRANCH  18  19
ENDBRANCH  15  17
ENDBRANCH  13  14
ENDBRANCH   7  12
ENDBRANCH   2   3
TORSDOF 5
ENDMDL
MODEL       88
REMARK 921   NORMALIZED FREE ENERGY PREDICTED BY IDOCK:   -3.94 KCAL/MOL
REMARK 922        TOTAL FREE ENERGY PREDICTED BY IDOCK:   -5.88 KCAL/MOL
REMARK 923 INTER-LIGAND FREE ENERGY PREDICTED BY IDOCK:   -5.08 KCAL/MOL
REMARK 924 INTRA-LIGAND FREE ENERGY PREDICTED BY IDOCK:   -0.80 KCAL/MOL
REMARK 927      BINDING AFFINITY PREDICTED BY RF-SCORE:    0.00 PKD
ROOT
HETATM    1  C   UNL     1     -11.054   6.163  67.343  1.00  0.00    -0.225 C  
HETATM    2  O   UNL     1      -9.674   6.444  67.123  1.00  0.00    -0.130 OA 
ENDROOT
BRANCH   2   3
HETATM    3  C   UNL     1      -9.353   7.773  66.996  1.00  0.00    -0.157 A  
HETATM    4  C   UNL     1      -8.557   8.353  68.000  1.00  0.00    -0.135 A  
HETATM    5  C   UNL     1      -8.074   7.509  69.156  1.00  0.00    -0.123 C  
HETATM    6  C   UNL     1      -8.223   9.735  67.916  1.00  0.00    -0.113 A  
HETATM    7  C   UNL     1      -8.710  10.523  66.833  1.00  0.00    -0.130 A  
HETATM    8  C   UNL     1      -7.381  10.396  68.987  1.00  0.00    -0.097 C  
HETATM    9  C   UNL     1      -9.841   8.563  65.956  1.00  0.00    -0.135 A  
HETATM   10  C   UNL     1      -9.531   9.929  65.855  1.00  0.00    -0.272 A  
HETATM   11  C   UNL     1     -10.150  10.660  64.694  1.00  0.00    -0.417 C  
BRANCH   7  12
HETATM   12  C   UNL     1      -8.438  11.978  66.803  1.00  0.00    -0.155 C  
HETATM   13  C   UNL     1      -9.283  12.921  67.255  1.00  0.00    -0.208 C  
BRANCH  13  14
HETATM   14  C   UNL     1      -9.099  14.378  67.182  1.00  0.00    -0.238 C  
HETATM   15  C   UNL     1      -7.922  14.929  67.563  1.00  0.00    -0.198 C  
HETATM   16  C   UNL     1     -10.241  15.253  66.713  1.00  0.00    -0.273 C  
BRANCH  15  17
HETATM   17  C   UNL     1      -7.633  16.354  67.531  1.00  0.00    -0.168 C  
HETATM   18  C   UNL     1      -6.815  16.968  66.661  1.00  0.00    -0.279 C  
BRANCH  18  19
HETATM   19  C   UNL     1      -6.616  18.415  66.674  1.00  0.00    -0.219 C  
HETATM   20  C   UNL     1      -6.541  19.053  68.036  1.00  0.00    -0.244 C  
HETATM   21  C   UNL     1      -6.512  19.090  65.509  1.00  0.00    -0.306 C  
HETATM   22  C   UNL     1      -6.347  20.556  65.396  1.00  0.00    -0.260 C  
HETATM   23  O   UNL     1      -6.308  20.956  64.108  1.00  0.00    -0.320 OA 
HETATM   24  O   UNL     1      -6.266  21.338  66.327  1.00  0.00    -0.274 OA 
ENDBRANCH  18  19
ENDBRANCH  15  17
ENDBRANCH  13  14
ENDBRANCH   7  12
ENDBRANCH   2   3
TORSDOF 5
ENDMDL
MODEL       89
REMARK 921   NORMALIZED FREE ENERGY PREDICTED BY IDOCK:   -3.91 KCAL/MOL
REMARK 922        TOTAL FREE ENERGY PREDICTED BY IDOCK:   -5.84 KCAL/MOL
REMARK 923 INTER-LIGAND FREE ENERGY PREDICTED BY IDOCK:   -5.14 KCAL/MOL
REMARK 924 INTRA-LIGAND FREE ENERGY PREDICTED BY IDOCK:   -0.71 KCAL/MOL
REMARK 927      BINDING AFFINITY PREDICTED BY RF-SCORE:    0.00 PKD
ROOT
HETATM    1  C   UNL     1      -9.491   1.473  64.085  1.00  0.00    -0.127 C  
HETATM    2  O   UNL     1      -9.056   1.728  65.418  1.00  0.00    -0.124 OA 
ENDROOT
BRANCH   2   3
HETATM    3  C   UNL     1      -8.923   3.052  65.755  1.00  0.00    -0.144 A  
HETATM    4  C   UNL     1      -9.114   3.406  67.104  1.00  0.00    -0.196 A  
HETATM    5  C   UNL     1      -9.434   2.337  68.121  1.00  0.00    -0.218 C  
HETATM    6  C   UNL     1      -9.010   4.774  67.488  1.00  0.00    -0.118 A  
HETATM    7  C   UNL     1      -8.733   5.772  66.510  1.00  0.00    -0.123 A  
HETATM    8  C   UNL     1      -9.224   5.192  68.928  1.00  0.00    -0.154 C  
HETATM    9  C   UNL     1      -8.677   4.043  64.807  1.00  0.00    -0.119 A  
HETATM   10  C   UNL     1      -8.576   5.399  65.161  1.00  0.00    -0.149 A  
HETATM   11  C   UNL     1      -8.334   6.359  64.027  1.00  0.00     0.119 C  
BRANCH   7  12
HETATM   12  C   UNL     1      -8.720   7.199  66.901  1.00  0.00    -0.126 C  
HETATM   13  C   UNL     1      -9.815   7.975  66.992  1.00  0.00    -0.295 C  
BRANCH  13  14
HETATM   14  C   UNL     1      -9.854   9.412  67.300  1.00  0.00    -0.232 C  
HETATM   15  C   UNL     1     -10.712   9.878  68.239  1.00  0.00    -0.276 C  
HETATM   16  C   UNL     1      -8.957  10.365  66.541  1.00  0.00    -0.161 C  
BRANCH  15  17
HETATM   17  C   UNL     1     -10.833  11.275  68.622  1.00  0.00    -0.246 C  
HETATM   18  C   UNL     1     -11.979  11.910  68.921  1.00  0.00    -0.313 C  
BRANCH  18  19
HETATM   19  C   UNL     1     -12.002  13.309  69.340  1.00  0.00    -0.356 C  
HETATM   20  C   UNL     1     -11.872  14.325  68.237  1.00  0.00    -0.370 C  
HETATM   21  C   UNL     1     -12.135  13.616  70.648  1.00  0.00    -0.398 C  
HETATM   22  C   UNL     1     -12.135  14.991  71.196  1.00  0.00    -0.318 C  
HETATM   23  O   UNL     1     -12.248  14.993  72.540  1.00  0.00    -0.342 OA 
HETATM   24  O   UNL     1     -12.034  16.017  70.545  1.00  0.00    -0.350 OA 
ENDBRANCH  18  19
ENDBRANCH  15  17
ENDBRANCH  13  14
ENDBRANCH   7  12
ENDBRANCH   2   3
TORSDOF 5
ENDMDL
MODEL       90
REMARK 921   NORMALIZED FREE ENERGY PREDICTED BY IDOCK:   -3.86 KCAL/MOL
REMARK 922        TOTAL FREE ENERGY PREDICTED BY IDOCK:   -5.78 KCAL/MOL
REMARK 923 INTER-LIGAND FREE ENERGY PREDICTED BY IDOCK:   -5.26 KCAL/MOL
REMARK 924 INTRA-LIGAND FREE ENERGY PREDICTED BY IDOCK:   -0.53 KCAL/MOL
REMARK 927      BINDING AFFINITY PREDICTED BY RF-SCORE:    0.00 PKD
ROOT
HETATM    1  C   UNL     1      -5.611   3.659  63.658  1.00  0.00    -0.013 C  
HETATM    2  O   UNL     1      -5.316   5.015  63.986  1.00  0.00    -0.009 OA 
ENDROOT
BRANCH   2   3
HETATM    3  C   UNL     1      -6.356   5.735  64.518  1.00  0.00    -0.033 A  
HETATM    4  C   UNL     1      -6.877   6.796  63.754  1.00  0.00    -0.053 A  
HETATM    5  C   UNL     1      -6.299   7.092  62.391  1.00  0.00    -0.053 C  
HETATM    6  C   UNL     1      -7.939   7.583  64.284  1.00  0.00    -0.109 A  
HETATM    7  C   UNL     1      -8.454   7.306  65.584  1.00  0.00    -0.138 A  
HETATM    8  C   UNL     1      -8.514   8.741  63.496  1.00  0.00    -0.111 C  
HETATM    9  C   UNL     1      -6.855   5.493  65.797  1.00  0.00    -0.057 A  
HETATM   10  C   UNL     1      -7.898   6.259  66.344  1.00  0.00    -0.104 A  
HETATM   11  C   UNL     1      -8.315   5.899  67.745  1.00  0.00    -0.108 C  
BRANCH   7  12
HETATM   12  C   UNL     1      -9.493   8.186  66.165  1.00  0.00    -0.217 C  
HETATM   13  C   UNL     1      -9.317   9.489  66.448  1.00  0.00    -0.231 C  
BRANCH  13  14
HETATM   14  C   UNL     1     -10.284  10.389  67.093  1.00  0.00    -0.271 C  
HETATM   15  C   UNL     1     -10.688  10.148  68.363  1.00  0.00    -0.266 C  
HETATM   16  C   UNL     1     -10.848  11.560  66.318  1.00  0.00    -0.333 C  
BRANCH  15  17
HETATM   17  C   UNL     1     -11.637  10.971  69.095  1.00  0.00    -0.389 C  
HETATM   18  C   UNL     1     -11.420  11.542  70.291  1.00  0.00    -0.192 C  
BRANCH  18  19
HETATM   19  C   UNL     1     -12.418  12.392  70.936  1.00  0.00    -0.367 C  
HETATM   20  C   UNL     1     -13.384  11.689  71.850  1.00  0.00    -0.403 C  
HETATM   21  C   UNL     1     -12.426  13.720  70.692  1.00  0.00    -0.429 C  
HETATM   22  C   UNL     1     -13.407  14.674  71.254  1.00  0.00    -0.383 C  
HETATM   23  O   UNL     1     -13.195  15.930  70.809  1.00  0.00    -0.491 OA 
HETATM   24  O   UNL     1     -14.316  14.395  72.018  1.00  0.00    -0.495 OA 
ENDBRANCH  18  19
ENDBRANCH  15  17
ENDBRANCH  13  14
ENDBRANCH   7  12
ENDBRANCH   2   3
TORSDOF 5
ENDMDL
MODEL       91
REMARK 921   NORMALIZED FREE ENERGY PREDICTED BY IDOCK:   -3.86 KCAL/MOL
REMARK 922        TOTAL FREE ENERGY PREDICTED BY IDOCK:   -5.78 KCAL/MOL
REMARK 923 INTER-LIGAND FREE ENERGY PREDICTED BY IDOCK:   -5.33 KCAL/MOL
REMARK 924 INTRA-LIGAND FREE ENERGY PREDICTED BY IDOCK:   -0.45 KCAL/MOL
REMARK 927      BINDING AFFINITY PREDICTED BY RF-SCORE:    0.00 PKD
ROOT
HETATM    1  C   UNL     1      -9.428  21.161  67.531  1.00  0.00     0.029 C  
HETATM    2  O   UNL     1      -8.490  20.327  66.856  1.00  0.00    -0.314 OA 
ENDROOT
BRANCH   2   3
HETATM    3  C   UNL     1      -8.493  19.007  67.230  1.00  0.00    -0.277 A  
HETATM    4  C   UNL     1      -9.538  18.194  66.754  1.00  0.00    -0.301 A  
HETATM    5  C   UNL     1     -10.594  18.783  65.849  1.00  0.00    -0.405 C  
HETATM    6  C   UNL     1      -9.590  16.824  67.141  1.00  0.00    -0.238 A  
HETATM    7  C   UNL     1      -8.600  16.292  68.018  1.00  0.00    -0.176 A  
HETATM    8  C   UNL     1     -10.708  15.924  66.660  1.00  0.00    -0.270 C  
HETATM    9  C   UNL     1      -7.547  18.477  68.105  1.00  0.00    -0.291 A  
HETATM   10  C   UNL     1      -7.581  17.131  68.507  1.00  0.00    -0.245 A  
HETATM   11  C   UNL     1      -6.510  16.706  69.476  1.00  0.00    -0.224 C  
BRANCH   7  12
HETATM   12  C   UNL     1      -8.714  14.894  68.490  1.00  0.00    -0.172 C  
HETATM   13  C   UNL     1      -8.154  13.834  67.880  1.00  0.00    -0.166 C  
BRANCH  13  14
HETATM   14  C   UNL     1      -8.296  12.421  68.261  1.00  0.00    -0.169 C  
HETATM   15  C   UNL     1      -9.522  11.846  68.274  1.00  0.00    -0.197 C  
HETATM   16  C   UNL     1      -7.073  11.629  68.668  1.00  0.00    -0.099 C  
BRANCH  15  17
HETATM   17  C   UNL     1      -9.777  10.460  68.633  1.00  0.00    -0.178 C  
HETATM   18  C   UNL     1     -10.069   9.469  67.775  1.00  0.00    -0.244 C  
BRANCH  18  19
HETATM   19  C   UNL     1     -10.267   8.092  68.220  1.00  0.00    -0.245 C  
HETATM   20  C   UNL     1     -10.928   7.172  67.229  1.00  0.00    -0.333 C  
HETATM   21  C   UNL     1      -9.863   7.721  69.454  1.00  0.00    -0.176 C  
HETATM   22  C   UNL     1     -10.043   6.369  70.029  1.00  0.00    -0.172 C  
HETATM   23  O   UNL     1      -9.575   6.298  71.292  1.00  0.00    -0.172 OA 
HETATM   24  O   UNL     1     -10.557   5.418  69.465  1.00  0.00    -0.292 OA 
ENDBRANCH  18  19
ENDBRANCH  15  17
ENDBRANCH  13  14
ENDBRANCH   7  12
ENDBRANCH   2   3
TORSDOF 5
ENDMDL
MODEL       92
REMARK 921   NORMALIZED FREE ENERGY PREDICTED BY IDOCK:   -3.79 KCAL/MOL
REMARK 922        TOTAL FREE ENERGY PREDICTED BY IDOCK:   -5.68 KCAL/MOL
REMARK 923 INTER-LIGAND FREE ENERGY PREDICTED BY IDOCK:   -4.95 KCAL/MOL
REMARK 924 INTRA-LIGAND FREE ENERGY PREDICTED BY IDOCK:   -0.74 KCAL/MOL
REMARK 927      BINDING AFFINITY PREDICTED BY RF-SCORE:    0.00 PKD
ROOT
HETATM    1  C   UNL     1      -9.925   4.155  70.835  1.00  0.00    -0.136 C  
HETATM    2  O   UNL     1     -10.171   4.478  69.470  1.00  0.00    -0.168 OA 
ENDROOT
BRANCH   2   3
HETATM    3  C   UNL     1     -10.118   5.814  69.158  1.00  0.00    -0.197 A  
HETATM    4  C   UNL     1      -9.530   6.178  67.932  1.00  0.00    -0.115 A  
HETATM    5  C   UNL     1      -9.000   5.107  67.008  1.00  0.00    -0.112 C  
HETATM    6  C   UNL     1      -9.433   7.556  67.585  1.00  0.00    -0.159 A  
HETATM    7  C   UNL     1      -9.914   8.554  68.482  1.00  0.00    -0.201 A  
HETATM    8  C   UNL     1      -8.793   7.983  66.281  1.00  0.00    -0.191 C  
HETATM    9  C   UNL     1     -10.561   6.804  70.034  1.00  0.00    -0.256 A  
HETATM   10  C   UNL     1     -10.471   8.169  69.716  1.00  0.00    -0.227 A  
HETATM   11  C   UNL     1     -10.965   9.124  70.770  1.00  0.00    -0.332 C  
BRANCH   7  12
HETATM   12  C   UNL     1      -9.725   9.985  68.156  1.00  0.00    -0.156 C  
HETATM   13  C   UNL     1      -8.691  10.734  68.580  1.00  0.00    -0.149 C  
BRANCH  13  14
HETATM   14  C   UNL     1      -8.493  12.172  68.351  1.00  0.00    -0.145 C  
HETATM   15  C   UNL     1      -9.561  12.974  68.124  1.00  0.00    -0.227 C  
HETATM   16  C   UNL     1      -7.090  12.741  68.337  1.00  0.00    -0.102 C  
BRANCH  15  17
HETATM   17  C   UNL     1      -9.479  14.406  67.886  1.00  0.00    -0.214 C  
HETATM   18  C   UNL     1      -9.182  14.990  66.714  1.00  0.00    -0.280 C  
BRANCH  18  19
HETATM   19  C   UNL     1      -9.166  16.443  66.556  1.00  0.00    -0.306 C  
HETATM   20  C   UNL     1     -10.379  17.170  67.070  1.00  0.00    -0.308 C  
HETATM   21  C   UNL     1      -8.103  17.043  65.978  1.00  0.00    -0.178 C  
HETATM   22  C   UNL     1      -7.988  18.497  65.730  1.00  0.00     0.159 C  
HETATM   23  O   UNL     1      -6.833  18.808  65.106  1.00  0.00    -0.512 OA 
HETATM   24  O   UNL     1      -8.820  19.338  66.026  1.00  0.00    -0.432 OA 
ENDBRANCH  18  19
ENDBRANCH  15  17
ENDBRANCH  13  14
ENDBRANCH   7  12
ENDBRANCH   2   3
TORSDOF 5
ENDMDL
MODEL       93
REMARK 921   NORMALIZED FREE ENERGY PREDICTED BY IDOCK:   -3.77 KCAL/MOL
REMARK 922        TOTAL FREE ENERGY PREDICTED BY IDOCK:   -5.66 KCAL/MOL
REMARK 923 INTER-LIGAND FREE ENERGY PREDICTED BY IDOCK:   -4.93 KCAL/MOL
REMARK 924 INTRA-LIGAND FREE ENERGY PREDICTED BY IDOCK:   -0.73 KCAL/MOL
REMARK 927      BINDING AFFINITY PREDICTED BY RF-SCORE:    0.00 PKD
ROOT
HETATM    1  C   UNL     1      -8.602   4.691  66.794  1.00  0.00    -0.108 C  
HETATM    2  O   UNL     1      -9.173   5.465  65.743  1.00  0.00    -0.158 OA 
ENDROOT
BRANCH   2   3
HETATM    3  C   UNL     1      -9.130   6.826  65.917  1.00  0.00    -0.016 A  
HETATM    4  C   UNL     1      -8.286   7.568  65.070  1.00  0.00    -0.068 A  
HETATM    5  C   UNL     1      -7.484   6.861  64.004  1.00  0.00    -0.098 C  
HETATM    6  C   UNL     1      -8.195   8.980  65.236  1.00  0.00    -0.139 A  
HETATM    7  C   UNL     1      -8.939   9.627  66.265  1.00  0.00    -0.184 A  
HETATM    8  C   UNL     1      -7.286   9.808  64.352  1.00  0.00    -0.132 C  
HETATM    9  C   UNL     1      -9.832   7.472  66.933  1.00  0.00    -0.295 A  
HETATM   10  C   UNL     1      -9.753   8.862  67.122  1.00  0.00    -0.241 A  
HETATM   11  C   UNL     1     -10.545   9.416  68.276  1.00  0.00    -0.256 C  
BRANCH   7  12
HETATM   12  C   UNL     1      -8.766  11.080  66.493  1.00  0.00    -0.169 C  
HETATM   13  C   UNL     1      -9.708  12.008  66.249  1.00  0.00    -0.251 C  
BRANCH  13  14
HETATM   14  C   UNL     1      -9.567  13.464  66.384  1.00  0.00    -0.265 C  
HETATM   15  C   UNL     1      -8.551  13.979  67.118  1.00  0.00    -0.220 C  
HETATM   16  C   UNL     1     -10.579  14.379  65.728  1.00  0.00    -0.326 C  
BRANCH  15  17
HETATM   17  C   UNL     1      -8.317  15.400  67.316  1.00  0.00    -0.224 C  
HETATM   18  C   UNL     1      -7.310  16.111  66.784  1.00  0.00    -0.220 C  
BRANCH  18  19
HETATM   19  C   UNL     1      -7.177  17.549  67.003  1.00  0.00    -0.212 C  
HETATM   20  C   UNL     1      -7.063  18.392  65.761  1.00  0.00    -0.258 C  
HETATM   21  C   UNL     1      -7.163  18.039  68.261  1.00  0.00    -0.248 C  
HETATM   22  C   UNL     1      -6.996  19.467  68.608  1.00  0.00    -0.322 C  
HETATM   23  O   UNL     1      -6.985  19.659  69.944  1.00  0.00    -0.252 OA 
HETATM   24  O   UNL     1      -6.869  20.383  67.814  1.00  0.00    -0.269 OA 
ENDBRANCH  18  19
ENDBRANCH  15  17
ENDBRANCH  13  14
ENDBRANCH   7  12
ENDBRANCH   2   3
TORSDOF 5
ENDMDL
MODEL       94
REMARK 921   NORMALIZED FREE ENERGY PREDICTED BY IDOCK:   -3.76 KCAL/MOL
REMARK 922        TOTAL FREE ENERGY PREDICTED BY IDOCK:   -5.64 KCAL/MOL
REMARK 923 INTER-LIGAND FREE ENERGY PREDICTED BY IDOCK:   -5.54 KCAL/MOL
REMARK 924 INTRA-LIGAND FREE ENERGY PREDICTED BY IDOCK:   -0.10 KCAL/MOL
REMARK 927      BINDING AFFINITY PREDICTED BY RF-SCORE:    0.00 PKD
ROOT
HETATM    1  C   UNL     1     -10.734  16.688  68.256  1.00  0.00    -0.351 C  
HETATM    2  O   UNL     1     -11.957  15.966  68.373  1.00  0.00    -0.251 OA 
ENDROOT
BRANCH   2   3
HETATM    3  C   UNL     1     -11.835  14.647  68.731  1.00  0.00    -0.313 A  
HETATM    4  C   UNL     1     -12.323  14.262  69.993  1.00  0.00    -0.403 A  
HETATM    5  C   UNL     1     -12.971  15.289  70.891  1.00  0.00    -0.522 C  
HETATM    6  C   UNL     1     -12.192  12.907  70.410  1.00  0.00    -0.381 A  
HETATM    7  C   UNL     1     -11.554  11.957  69.561  1.00  0.00    -0.394 A  
HETATM    8  C   UNL     1     -12.693  12.461  71.768  1.00  0.00    -0.249 C  
HETATM    9  C   UNL     1     -11.192  13.710  67.922  1.00  0.00    -0.300 A  
HETATM   10  C   UNL     1     -11.045  12.369  68.314  1.00  0.00    -0.283 A  
HETATM   11  C   UNL     1     -10.306  11.479  67.351  1.00  0.00    -0.235 C  
BRANCH   7  12
HETATM   12  C   UNL     1     -11.337  10.573  70.040  1.00  0.00    -0.392 C  
HETATM   13  C   UNL     1     -10.299   9.796  69.683  1.00  0.00    -0.259 C  
BRANCH  13  14
HETATM   14  C   UNL     1     -10.074   8.395  70.066  1.00  0.00    -0.192 C  
HETATM   15  C   UNL     1      -9.164   8.095  71.023  1.00  0.00    -0.178 C  
HETATM   16  C   UNL     1     -10.838   7.295  69.362  1.00  0.00    -0.206 C  
BRANCH  15  17
HETATM   17  C   UNL     1      -8.863   6.747  71.479  1.00  0.00    -0.137 C  
HETATM   18  C   UNL     1      -7.992   5.902  70.904  1.00  0.00    -0.111 C  
BRANCH  18  19
HETATM   19  C   UNL     1      -7.718   4.578  71.456  1.00  0.00    -0.082 C  
HETATM   20  C   UNL     1      -6.650   3.784  70.754  1.00  0.00    -0.031 C  
HETATM   21  C   UNL     1      -8.410   4.143  72.532  1.00  0.00    -0.100 C  
HETATM   22  C   UNL     1      -8.248   2.811  73.156  1.00  0.00    -0.067 C  
HETATM   23  O   UNL     1      -9.096   2.639  74.192  1.00  0.00    -0.074 OA 
HETATM   24  O   UNL     1      -7.466   1.947  72.798  1.00  0.00    -0.031 OA 
ENDBRANCH  18  19
ENDBRANCH  15  17
ENDBRANCH  13  14
ENDBRANCH   7  12
ENDBRANCH   2   3
TORSDOF 5
ENDMDL
MODEL       95
REMARK 921   NORMALIZED FREE ENERGY PREDICTED BY IDOCK:   -3.74 KCAL/MOL
REMARK 922        TOTAL FREE ENERGY PREDICTED BY IDOCK:   -5.62 KCAL/MOL
REMARK 923 INTER-LIGAND FREE ENERGY PREDICTED BY IDOCK:   -5.91 KCAL/MOL
REMARK 924 INTRA-LIGAND FREE ENERGY PREDICTED BY IDOCK:    0.30 KCAL/MOL
REMARK 927      BINDING AFFINITY PREDICTED BY RF-SCORE:    0.00 PKD
ROOT
HETATM    1  C   UNL     1     -14.409  15.449  71.286  1.00  0.00    -0.289 C  
HETATM    2  O   UNL     1     -12.994  15.286  71.272  1.00  0.00    -0.369 OA 
ENDROOT
BRANCH   2   3
HETATM    3  C   UNL     1     -12.534  14.148  70.657  1.00  0.00    -0.362 A  
HETATM    4  C   UNL     1     -12.834  12.912  71.259  1.00  0.00    -0.361 A  
HETATM    5  C   UNL     1     -13.651  12.875  72.528  1.00  0.00    -0.460 C  
HETATM    6  C   UNL     1     -12.354  11.710  70.664  1.00  0.00    -0.437 A  
HETATM    7  C   UNL     1     -11.562  11.765  69.481  1.00  0.00    -0.398 A  
HETATM    8  C   UNL     1     -12.645  10.364  71.293  1.00  0.00    -0.525 C  
HETATM    9  C   UNL     1     -11.739  14.186  69.513  1.00  0.00    -0.364 A  
HETATM   10  C   UNL     1     -11.248  13.014  68.912  1.00  0.00    -0.326 A  
HETATM   11  C   UNL     1     -10.379  13.212  67.698  1.00  0.00    -0.223 C  
BRANCH   7  12
HETATM   12  C   UNL     1     -10.987  10.520  68.923  1.00  0.00    -0.291 C  
HETATM   13  C   UNL     1     -10.271   9.627  69.629  1.00  0.00    -0.239 C  
BRANCH  13  14
HETATM   14  C   UNL     1      -9.615   8.417  69.112  1.00  0.00    -0.164 C  
HETATM   15  C   UNL     1      -9.545   8.206  67.776  1.00  0.00    -0.180 C  
HETATM   16  C   UNL     1      -9.053   7.399  70.081  1.00  0.00    -0.148 C  
BRANCH  15  17
HETATM   17  C   UNL     1      -8.921   7.047  67.158  1.00  0.00    -0.123 C  
HETATM   18  C   UNL     1      -9.498   6.232  66.260  1.00  0.00    -0.135 C  
BRANCH  18  19
HETATM   19  C   UNL     1      -8.779   5.113  65.656  1.00  0.00    -0.143 C  
HETATM   20  C   UNL     1      -9.304   3.742  65.989  1.00  0.00    -0.173 C  
HETATM   21  C   UNL     1      -7.717   5.350  64.856  1.00  0.00    -0.088 C  
HETATM   22  C   UNL     1      -6.889   4.301  64.221  1.00  0.00    -0.045 C  
HETATM   23  O   UNL     1      -5.874   4.830  63.507  1.00  0.00    -0.016 OA 
HETATM   24  O   UNL     1      -7.065   3.099  64.318  1.00  0.00    -0.054 OA 
ENDBRANCH  18  19
ENDBRANCH  15  17
ENDBRANCH  13  14
ENDBRANCH   7  12
ENDBRANCH   2   3
TORSDOF 5
ENDMDL
MODEL       96
REMARK 921   NORMALIZED FREE ENERGY PREDICTED BY IDOCK:   -3.63 KCAL/MOL
REMARK 922        TOTAL FREE ENERGY PREDICTED BY IDOCK:   -5.48 KCAL/MOL
REMARK 923 INTER-LIGAND FREE ENERGY PREDICTED BY IDOCK:   -4.94 KCAL/MOL
REMARK 924 INTRA-LIGAND FREE ENERGY PREDICTED BY IDOCK:   -0.54 KCAL/MOL
REMARK 927      BINDING AFFINITY PREDICTED BY RF-SCORE:    0.00 PKD
ROOT
HETATM    1  C   UNL     1     -10.528  17.754  68.791  1.00  0.00    -0.249 C  
HETATM    2  O   UNL     1      -9.987  17.284  67.559  1.00  0.00    -0.278 OA 
ENDROOT
BRANCH   2   3
HETATM    3  C   UNL     1      -9.860  15.922  67.449  1.00  0.00    -0.234 A  
HETATM    4  C   UNL     1      -8.590  15.362  67.684  1.00  0.00    -0.176 A  
HETATM    5  C   UNL     1      -7.433  16.257  68.059  1.00  0.00    -0.144 C  
HETATM    6  C   UNL     1      -8.413  13.955  67.555  1.00  0.00    -0.200 A  
HETATM    7  C   UNL     1      -9.509  13.128  67.173  1.00  0.00    -0.239 A  
HETATM    8  C   UNL     1      -7.057  13.320  67.785  1.00  0.00    -0.149 C  
HETATM    9  C   UNL     1     -10.915  15.102  67.054  1.00  0.00    -0.322 A  
HETATM   10  C   UNL     1     -10.763  13.713  66.914  1.00  0.00    -0.275 A  
HETATM   11  C   UNL     1     -11.984  12.960  66.455  1.00  0.00    -0.462 C  
BRANCH   7  12
HETATM   12  C   UNL     1      -9.294  11.681  66.949  1.00  0.00    -0.195 C  
HETATM   13  C   UNL     1      -9.662  10.713  67.807  1.00  0.00    -0.179 C  
BRANCH  13  14
HETATM   14  C   UNL     1      -9.408   9.272  67.672  1.00  0.00    -0.146 C  
HETATM   15  C   UNL     1      -9.641   8.653  66.490  1.00  0.00    -0.303 C  
HETATM   16  C   UNL     1      -8.919   8.483  68.868  1.00  0.00    -0.146 C  
BRANCH  15  17
HETATM   17  C   UNL     1      -9.423   7.236  66.247  1.00  0.00    -0.133 C  
HETATM   18  C   UNL     1     -10.152   6.232  66.761  1.00  0.00    -0.237 C  
BRANCH  18  19
HETATM   19  C   UNL     1      -9.889   4.834  66.426  1.00  0.00    -0.236 C  
HETATM   20  C   UNL     1     -10.461   4.356  65.118  1.00  0.00    -0.184 C  
HETATM   21  C   UNL     1      -9.172   4.064  67.272  1.00  0.00    -0.187 C  
HETATM   22  C   UNL     1      -8.874   2.631  67.060  1.00  0.00    -0.137 C  
HETATM   23  O   UNL     1      -8.169   2.110  68.087  1.00  0.00    -0.057 OA 
HETATM   24  O   UNL     1      -9.216   1.967  66.097  1.00  0.00    -0.075 OA 
ENDBRANCH  18  19
ENDBRANCH  15  17
ENDBRANCH  13  14
ENDBRANCH   7  12
ENDBRANCH   2   3
TORSDOF 5
ENDMDL
MODEL       97
REMARK 921   NORMALIZED FREE ENERGY PREDICTED BY IDOCK:   -3.62 KCAL/MOL
REMARK 922        TOTAL FREE ENERGY PREDICTED BY IDOCK:   -5.46 KCAL/MOL
REMARK 923 INTER-LIGAND FREE ENERGY PREDICTED BY IDOCK:   -4.87 KCAL/MOL
REMARK 924 INTRA-LIGAND FREE ENERGY PREDICTED BY IDOCK:   -0.59 KCAL/MOL
REMARK 927      BINDING AFFINITY PREDICTED BY RF-SCORE:    0.00 PKD
ROOT
HETATM    1  C   UNL     1      -6.222   2.338  66.760  1.00  0.00    -0.024 C  
HETATM    2  O   UNL     1      -7.395   2.771  66.075  1.00  0.00    -0.065 OA 
ENDROOT
BRANCH   2   3
HETATM    3  C   UNL     1      -7.689   4.106  66.188  1.00  0.00    -0.090 A  
HETATM    4  C   UNL     1      -8.724   4.477  67.067  1.00  0.00    -0.104 A  
HETATM    5  C   UNL     1      -9.453   3.416  67.856  1.00  0.00    -0.220 C  
HETATM    6  C   UNL     1      -9.076   5.851  67.192  1.00  0.00    -0.113 A  
HETATM    7  C   UNL     1      -8.395   6.836  66.420  1.00  0.00    -0.121 A  
HETATM    8  C   UNL     1     -10.194   6.284  68.117  1.00  0.00    -0.200 C  
HETATM    9  C   UNL     1      -7.050   5.080  65.422  1.00  0.00    -0.067 A  
HETATM   10  C   UNL     1      -7.383   6.441  65.524  1.00  0.00    -0.076 A  
HETATM   11  C   UNL     1      -6.627   7.373  64.616  1.00  0.00    -0.040 C  
BRANCH   7  12
HETATM   12  C   UNL     1      -8.829   8.250  66.486  1.00  0.00    -0.175 C  
HETATM   13  C   UNL     1      -9.404   8.919  65.471  1.00  0.00    -0.214 C  
BRANCH  13  14
HETATM   14  C   UNL     1      -9.785  10.339  65.455  1.00  0.00    -0.340 C  
HETATM   15  C   UNL     1      -9.780  11.052  66.606  1.00  0.00    -0.226 C  
HETATM   16  C   UNL     1     -10.213  10.984  64.155  1.00  0.00    -0.419 C  
BRANCH  15  17
HETATM   17  C   UNL     1     -10.137  12.458  66.705  1.00  0.00    -0.226 C  
HETATM   18  C   UNL     1     -10.233  13.164  67.843  1.00  0.00    -0.233 C  
BRANCH  18  19
HETATM   19  C   UNL     1     -10.556  14.589  67.846  1.00  0.00    -0.243 C  
HETATM   20  C   UNL     1     -11.475  15.049  68.945  1.00  0.00    -0.333 C  
HETATM   21  C   UNL     1     -10.034  15.398  66.898  1.00  0.00    -0.247 C  
HETATM   22  C   UNL     1     -10.317  16.845  66.776  1.00  0.00    -0.298 C  
HETATM   23  O   UNL     1      -9.687  17.389  65.714  1.00  0.00    -0.533 OA 
HETATM   24  O   UNL     1     -11.036  17.495  67.516  1.00  0.00    -0.265 OA 
ENDBRANCH  18  19
ENDBRANCH  15  17
ENDBRANCH  13  14
ENDBRANCH   7  12
ENDBRANCH   2   3
TORSDOF 5
ENDMDL
MODEL       98
REMARK 921   NORMALIZED FREE ENERGY PREDICTED BY IDOCK:   -3.62 KCAL/MOL
REMARK 922        TOTAL FREE ENERGY PREDICTED BY IDOCK:   -5.46 KCAL/MOL
REMARK 923 INTER-LIGAND FREE ENERGY PREDICTED BY IDOCK:   -4.73 KCAL/MOL
REMARK 924 INTRA-LIGAND FREE ENERGY PREDICTED BY IDOCK:   -0.73 KCAL/MOL
REMARK 927      BINDING AFFINITY PREDICTED BY RF-SCORE:    0.00 PKD
ROOT
HETATM    1  C   UNL     1      -9.823  17.266  66.104  1.00  0.00    -0.253 C  
HETATM    2  O   UNL     1      -9.607  16.886  67.460  1.00  0.00    -0.240 OA 
ENDROOT
BRANCH   2   3
HETATM    3  C   UNL     1      -9.585  15.535  67.701  1.00  0.00    -0.210 A  
HETATM    4  C   UNL     1      -8.329  14.917  67.847  1.00  0.00    -0.149 A  
HETATM    5  C   UNL     1      -7.070  15.746  67.755  1.00  0.00    -0.171 C  
HETATM    6  C   UNL     1      -8.263  13.512  68.073  1.00  0.00    -0.163 A  
HETATM    7  C   UNL     1      -9.461  12.741  68.131  1.00  0.00    -0.219 A  
HETATM    8  C   UNL     1      -6.929  12.812  68.220  1.00  0.00    -0.097 C  
HETATM    9  C   UNL     1     -10.745  14.763  67.736  1.00  0.00    -0.268 A  
HETATM   10  C   UNL     1     -10.705  13.375  67.951  1.00  0.00    -0.259 A  
HETATM   11  C   UNL     1     -12.035  12.669  67.937  1.00  0.00    -0.307 C  
BRANCH   7  12
HETATM   12  C   UNL     1      -9.380  11.270  68.271  1.00  0.00    -0.180 C  
HETATM   13  C   UNL     1      -9.520  10.605  69.432  1.00  0.00    -0.101 C  
BRANCH  13  14
HETATM   14  C   UNL     1      -9.375   9.158  69.641  1.00  0.00    -0.177 C  
HETATM   15  C   UNL     1      -9.654   8.619  70.853  1.00  0.00    -0.252 C  
HETATM   16  C   UNL     1      -8.882   8.283  68.509  1.00  0.00    -0.137 C  
BRANCH  15  17
HETATM   17  C   UNL     1      -9.545   7.204  71.169  1.00  0.00    -0.164 C  
HETATM   18  C   UNL     1     -10.574   6.359  71.344  1.00  0.00    -0.274 C  
BRANCH  18  19
HETATM   19  C   UNL     1     -10.371   4.939  71.617  1.00  0.00    -0.241 C  
HETATM   20  C   UNL     1     -10.741   4.480  73.002  1.00  0.00    -0.298 C  
HETATM   21  C   UNL     1      -9.882   4.132  70.651  1.00  0.00    -0.249 C  
HETATM   22  C   UNL     1      -9.599   2.690  70.820  1.00  0.00    -0.111 C  
HETATM   23  O   UNL     1      -9.082   2.147  69.698  1.00  0.00    -0.088 OA 
HETATM   24  O   UNL     1      -9.786   2.042  71.836  1.00  0.00    -0.128 OA 
ENDBRANCH  18  19
ENDBRANCH  15  17
ENDBRANCH  13  14
ENDBRANCH   7  12
ENDBRANCH   2   3
TORSDOF 5
ENDMDL
MODEL       99
REMARK 921   NORMALIZED FREE ENERGY PREDICTED BY IDOCK:   -3.55 KCAL/MOL
REMARK 922        TOTAL FREE ENERGY PREDICTED BY IDOCK:   -5.38 KCAL/MOL
REMARK 923 INTER-LIGAND FREE ENERGY PREDICTED BY IDOCK:   -4.68 KCAL/MOL
REMARK 924 INTRA-LIGAND FREE ENERGY PREDICTED BY IDOCK:   -0.71 KCAL/MOL
REMARK 927      BINDING AFFINITY PREDICTED BY RF-SCORE:    0.00 PKD
ROOT
HETATM    1  C   UNL     1     -10.445  18.226  67.915  1.00  0.00    -0.388 C  
HETATM    2  O   UNL     1     -10.542  17.386  69.062  1.00  0.00    -0.323 OA 
ENDROOT
BRANCH   2   3
HETATM    3  C   UNL     1     -10.277  16.057  68.847  1.00  0.00    -0.231 A  
HETATM    4  C   UNL     1     -11.190  15.116  69.359  1.00  0.00    -0.293 A  
HETATM    5  C   UNL     1     -12.419  15.589  70.098  1.00  0.00    -0.351 C  
HETATM    6  C   UNL     1     -10.936  13.726  69.178  1.00  0.00    -0.246 A  
HETATM    7  C   UNL     1      -9.758  13.297  68.502  1.00  0.00    -0.146 A  
HETATM    8  C   UNL     1     -11.890  12.686  69.728  1.00  0.00    -0.379 C  
HETATM    9  C   UNL     1      -9.117  15.620  68.209  1.00  0.00    -0.187 A  
HETATM   10  C   UNL     1      -8.842  14.255  68.025  1.00  0.00    -0.178 A  
HETATM   11  C   UNL     1      -7.539  13.932  67.343  1.00  0.00    -0.160 C  
BRANCH   7  12
HETATM   12  C   UNL     1      -9.454  11.852  68.401  1.00  0.00    -0.189 C  
HETATM   13  C   UNL     1      -9.682  11.098  67.311  1.00  0.00    -0.186 C  
BRANCH  13  14
HETATM   14  C   UNL     1      -9.472   9.649  67.182  1.00  0.00    -0.185 C  
HETATM   15  C   UNL     1      -8.287   9.177  66.725  1.00  0.00    -0.123 C  
HETATM   16  C   UNL     1     -10.595   8.696  67.528  1.00  0.00    -0.292 C  
BRANCH  15  17
HETATM   17  C   UNL     1      -7.972   7.768  66.559  1.00  0.00    -0.106 C  
HETATM   18  C   UNL     1      -8.384   6.987  65.547  1.00  0.00    -0.135 C  
BRANCH  18  19
HETATM   19  C   UNL     1      -7.982   5.587  65.436  1.00  0.00    -0.109 C  
HETATM   20  C   UNL     1      -6.799   5.314  64.546  1.00  0.00    -0.048 C  
HETATM   21  C   UNL     1      -8.663   4.637  66.112  1.00  0.00    -0.114 C  
HETATM   22  C   UNL     1      -8.374   3.187  66.050  1.00  0.00    -0.101 C  
HETATM   23  O   UNL     1      -9.239   2.473  66.800  1.00  0.00    -0.137 OA 
HETATM   24  O   UNL     1      -7.483   2.665  65.402  1.00  0.00    -0.069 OA 
ENDBRANCH  18  19
ENDBRANCH  15  17
ENDBRANCH  13  14
ENDBRANCH   7  12
ENDBRANCH   2   3
TORSDOF 5
ENDMDL
MODEL      100
REMARK 921   NORMALIZED FREE ENERGY PREDICTED BY IDOCK:   -3.54 KCAL/MOL
REMARK 922        TOTAL FREE ENERGY PREDICTED BY IDOCK:   -5.37 KCAL/MOL
REMARK 923 INTER-LIGAND FREE ENERGY PREDICTED BY IDOCK:   -5.05 KCAL/MOL
REMARK 924 INTRA-LIGAND FREE ENERGY PREDICTED BY IDOCK:   -0.32 KCAL/MOL
REMARK 927      BINDING AFFINITY PREDICTED BY RF-SCORE:    0.00 PKD
ROOT
HETATM    1  C   UNL     1     -11.471   5.701  71.595  1.00  0.00    -0.001 C  
HETATM    2  O   UNL     1     -12.146   6.945  71.430  1.00  0.00    -0.324 OA 
ENDROOT
BRANCH   2   3
HETATM    3  C   UNL     1     -11.406   7.949  70.858  1.00  0.00    -0.277 A  
HETATM    4  C   UNL     1     -11.926   9.256  70.910  1.00  0.00    -0.321 A  
HETATM    5  C   UNL     1     -13.248   9.511  71.595  1.00  0.00    -0.486 C  
HETATM    6  C   UNL     1     -11.199  10.322  70.306  1.00  0.00    -0.395 A  
HETATM    7  C   UNL     1      -9.967  10.059  69.640  1.00  0.00    -0.263 A  
HETATM    8  C   UNL     1     -11.736  11.737  70.330  1.00  0.00    -0.317 C  
HETATM    9  C   UNL     1     -10.212   7.706  70.183  1.00  0.00    -0.204 A  
HETATM   10  C   UNL     1      -9.480   8.739  69.574  1.00  0.00    -0.165 A  
HETATM   11  C   UNL     1      -8.223   8.323  68.858  1.00  0.00    -0.116 C  
BRANCH   7  12
HETATM   12  C   UNL     1      -9.266  11.155  68.934  1.00  0.00    -0.106 C  
HETATM   13  C   UNL     1      -7.929  11.285  68.864  1.00  0.00    -0.104 C  
BRANCH  13  14
HETATM   14  C   UNL     1      -7.183  12.389  68.244  1.00  0.00    -0.103 C  
HETATM   15  C   UNL     1      -7.566  13.670  68.461  1.00  0.00    -0.130 C  
HETATM   16  C   UNL     1      -6.010  12.083  67.337  1.00  0.00    -0.130 C  
BRANCH  15  17
HETATM   17  C   UNL     1      -6.901  14.835  67.900  1.00  0.00    -0.174 C  
HETATM   18  C   UNL     1      -7.437  15.693  67.017  1.00  0.00    -0.228 C  
BRANCH  18  19
HETATM   19  C   UNL     1      -6.710  16.865  66.537  1.00  0.00    -0.236 C  
HETATM   20  C   UNL     1      -5.212  16.808  66.677  1.00  0.00    -0.006 C  
HETATM   21  C   UNL     1      -7.388  17.907  66.009  1.00  0.00    -0.306 C  
HETATM   22  C   UNL     1      -6.766  19.160  65.526  1.00  0.00    -0.264 C  
HETATM   23  O   UNL     1      -7.690  20.038  65.085  1.00  0.00    -0.234 OA 
HETATM   24  O   UNL     1      -5.573  19.408  65.524  1.00  0.00    -0.155 OA 
ENDBRANCH  18  19
ENDBRANCH  15  17
ENDBRANCH  13  14
ENDBRANCH   7  12
ENDBRANCH   2   3
TORSDOF 5
ENDMDL
MODEL      101
REMARK 921   NORMALIZED FREE ENERGY PREDICTED BY IDOCK:   -3.53 KCAL/MOL
REMARK 922        TOTAL FREE ENERGY PREDICTED BY IDOCK:   -5.35 KCAL/MOL
REMARK 923 INTER-LIGAND FREE ENERGY PREDICTED BY IDOCK:   -4.59 KCAL/MOL
REMARK 924 INTRA-LIGAND FREE ENERGY PREDICTED BY IDOCK:   -0.76 KCAL/MOL
REMARK 927      BINDING AFFINITY PREDICTED BY RF-SCORE:    0.00 PKD
ROOT
HETATM    1  C   UNL     1      -6.625   1.467  71.409  1.00  0.00    -0.019 C  
HETATM    2  O   UNL     1      -8.044   1.566  71.340  1.00  0.00    -0.043 OA 
ENDROOT
BRANCH   2   3
HETATM    3  C   UNL     1      -8.538   2.812  71.043  1.00  0.00    -0.064 A  
HETATM    4  C   UNL     1      -9.437   3.395  71.955  1.00  0.00    -0.200 A  
HETATM    5  C   UNL     1      -9.810   2.655  73.217  1.00  0.00    -0.161 C  
HETATM    6  C   UNL     1      -9.990   4.676  71.669  1.00  0.00    -0.262 A  
HETATM    7  C   UNL     1      -9.648   5.348  70.460  1.00  0.00    -0.232 A  
HETATM    8  C   UNL     1     -10.972   5.326  72.621  1.00  0.00    -0.316 C  
HETATM    9  C   UNL     1      -8.233   3.472  69.854  1.00  0.00    -0.071 A  
HETATM   10  C   UNL     1      -8.771   4.733  69.547  1.00  0.00    -0.111 A  
HETATM   11  C   UNL     1      -8.372   5.312  68.215  1.00  0.00    -0.097 C  
BRANCH   7  12
HETATM   12  C   UNL     1     -10.300   6.635  70.126  1.00  0.00    -0.236 C  
HETATM   13  C   UNL     1      -9.749   7.845  70.329  1.00  0.00    -0.183 C  
BRANCH  13  14
HETATM   14  C   UNL     1     -10.377   9.151  70.087  1.00  0.00    -0.244 C  
HETATM   15  C   UNL     1      -9.753  10.067  69.308  1.00  0.00    -0.227 C  
HETATM   16  C   UNL     1     -11.703   9.476  70.741  1.00  0.00    -0.370 C  
BRANCH  15  17
HETATM   17  C   UNL     1     -10.284  11.386  69.004  1.00  0.00    -0.137 C  
HETATM   18  C   UNL     1     -10.100  12.059  67.856  1.00  0.00    -0.199 C  
BRANCH  18  19
HETATM   19  C   UNL     1     -10.709  13.366  67.619  1.00  0.00    -0.257 C  
HETATM   20  C   UNL     1     -11.857  13.386  66.645  1.00  0.00    -0.443 C  
HETATM   21  C   UNL     1     -10.233  14.454  68.260  1.00  0.00    -0.241 C  
HETATM   22  C   UNL     1     -10.741  15.831  68.074  1.00  0.00    -0.296 C  
HETATM   23  O   UNL     1     -10.051  16.723  68.817  1.00  0.00    -0.253 OA 
HETATM   24  O   UNL     1     -11.657  16.160  67.340  1.00  0.00     0.068 OA 
ENDBRANCH  18  19
ENDBRANCH  15  17
ENDBRANCH  13  14
ENDBRANCH   7  12
ENDBRANCH   2   3
TORSDOF 5
ENDMDL
MODEL      102
REMARK 921   NORMALIZED FREE ENERGY PREDICTED BY IDOCK:   -3.51 KCAL/MOL
REMARK 922        TOTAL FREE ENERGY PREDICTED BY IDOCK:   -5.33 KCAL/MOL
REMARK 923 INTER-LIGAND FREE ENERGY PREDICTED BY IDOCK:   -4.64 KCAL/MOL
REMARK 924 INTRA-LIGAND FREE ENERGY PREDICTED BY IDOCK:   -0.69 KCAL/MOL
REMARK 927      BINDING AFFINITY PREDICTED BY RF-SCORE:    0.00 PKD
ROOT
HETATM    1  C   UNL     1      -8.978   1.600  68.382  1.00  0.00    -0.123 C  
HETATM    2  O   UNL     1      -9.779   2.568  69.055  1.00  0.00    -0.053 OA 
ENDROOT
BRANCH   2   3
HETATM    3  C   UNL     1      -9.373   3.872  68.919  1.00  0.00    -0.164 A  
HETATM    4  C   UNL     1      -9.407   4.691  70.063  1.00  0.00    -0.215 A  
HETATM    5  C   UNL     1      -9.863   4.117  71.383  1.00  0.00    -0.254 C  
HETATM    6  C   UNL     1      -9.017   6.057  69.956  1.00  0.00    -0.149 A  
HETATM    7  C   UNL     1      -8.615   6.589  68.697  1.00  0.00    -0.124 A  
HETATM    8  C   UNL     1      -9.056   6.971  71.163  1.00  0.00    -0.153 C  
HETATM    9  C   UNL     1      -9.000   4.414  67.690  1.00  0.00    -0.134 A  
HETATM   10  C   UNL     1      -8.618   5.759  67.559  1.00  0.00    -0.105 A  
HETATM   11  C   UNL     1      -8.267   6.211  66.166  1.00  0.00    -0.119 C  
BRANCH   7  12
HETATM   12  C   UNL     1      -8.303   8.031  68.575  1.00  0.00    -0.127 C  
HETATM   13  C   UNL     1      -9.128   8.947  68.038  1.00  0.00    -0.143 C  
BRANCH  13  14
HETATM   14  C   UNL     1      -8.841  10.373  67.823  1.00  0.00    -0.128 C  
HETATM   15  C   UNL     1      -9.660  11.313  68.352  1.00  0.00    -0.195 C  
HETATM   16  C   UNL     1      -7.650  10.778  66.982  1.00  0.00    -0.114 C  
BRANCH  15  17
HETATM   17  C   UNL     1      -9.471  12.747  68.202  1.00  0.00    -0.219 C  
HETATM   18  C   UNL     1     -10.433  13.679  68.300  1.00  0.00    -0.253 C  
BRANCH  18  19
HETATM   19  C   UNL     1     -10.144  15.106  68.179  1.00  0.00    -0.222 C  
HETATM   20  C   UNL     1      -9.504  15.748  69.380  1.00  0.00    -0.275 C  
HETATM   21  C   UNL     1     -10.451  15.759  67.037  1.00  0.00    -0.309 C  
HETATM   22  C   UNL     1     -10.241  17.205  66.810  1.00  0.00    -0.311 C  
HETATM   23  O   UNL     1     -10.675  17.588  65.591  1.00  0.00    -0.470 OA 
HETATM   24  O   UNL     1      -9.752  17.988  67.607  1.00  0.00    -0.278 OA 
ENDBRANCH  18  19
ENDBRANCH  15  17
ENDBRANCH  13  14
ENDBRANCH   7  12
ENDBRANCH   2   3
TORSDOF 5
ENDMDL
MODEL      103
REMARK 921   NORMALIZED FREE ENERGY PREDICTED BY IDOCK:   -3.49 KCAL/MOL
REMARK 922        TOTAL FREE ENERGY PREDICTED BY IDOCK:   -5.30 KCAL/MOL
REMARK 923 INTER-LIGAND FREE ENERGY PREDICTED BY IDOCK:   -4.96 KCAL/MOL
REMARK 924 INTRA-LIGAND FREE ENERGY PREDICTED BY IDOCK:   -0.33 KCAL/MOL
REMARK 927      BINDING AFFINITY PREDICTED BY RF-SCORE:    0.00 PKD
ROOT
HETATM    1  C   UNL     1      -5.947  19.160  66.295  1.00  0.00    -0.165 C  
HETATM    2  O   UNL     1      -7.131  19.088  67.085  1.00  0.00    -0.204 OA 
ENDROOT
BRANCH   2   3
HETATM    3  C   UNL     1      -7.612  17.824  67.318  1.00  0.00    -0.201 A  
HETATM    4  C   UNL     1      -7.160  17.153  68.469  1.00  0.00    -0.213 A  
HETATM    5  C   UNL     1      -6.192  17.838  69.404  1.00  0.00    -0.244 C  
HETATM    6  C   UNL     1      -7.617  15.830  68.732  1.00  0.00    -0.173 A  
HETATM    7  C   UNL     1      -8.510  15.189  67.825  1.00  0.00    -0.156 A  
HETATM    8  C   UNL     1      -7.140  15.073  69.953  1.00  0.00    -0.121 C  
HETATM    9  C   UNL     1      -8.467  17.174  66.429  1.00  0.00    -0.307 A  
HETATM   10  C   UNL     1      -8.926  15.867  66.663  1.00  0.00    -0.301 A  
HETATM   11  C   UNL     1      -9.822  15.285  65.602  1.00  0.00    -0.383 C  
BRANCH   7  12
HETATM   12  C   UNL     1      -8.906  13.782  68.055  1.00  0.00    -0.182 C  
HETATM   13  C   UNL     1      -8.767  12.793  67.154  1.00  0.00    -0.202 C  
BRANCH  13  14
HETATM   14  C   UNL     1      -9.209  11.399  67.300  1.00  0.00    -0.167 C  
HETATM   15  C   UNL     1      -9.252  10.587  66.217  1.00  0.00    -0.192 C  
HETATM   16  C   UNL     1      -9.648  10.891  68.657  1.00  0.00    -0.192 C  
BRANCH  15  17
HETATM   17  C   UNL     1      -9.672   9.195  66.248  1.00  0.00    -0.344 C  
HETATM   18  C   UNL     1      -8.858   8.129  66.189  1.00  0.00    -0.194 C  
BRANCH  18  19
HETATM   19  C   UNL     1      -9.366   6.762  66.271  1.00  0.00    -0.141 C  
HETATM   20  C   UNL     1     -10.737   6.608  66.871  1.00  0.00    -0.401 C  
HETATM   21  C   UNL     1      -8.610   5.737  65.821  1.00  0.00    -0.149 C  
HETATM   22  C   UNL     1      -9.000   4.311  65.885  1.00  0.00    -0.124 C  
HETATM   23  O   UNL     1      -8.033   3.507  65.394  1.00  0.00    -0.088 OA 
HETATM   24  O   UNL     1     -10.049   3.878  66.330  1.00  0.00    -0.119 OA 
ENDBRANCH  18  19
ENDBRANCH  15  17
ENDBRANCH  13  14
ENDBRANCH   7  12
ENDBRANCH   2   3
TORSDOF 5
ENDMDL
MODEL      104
REMARK 921   NORMALIZED FREE ENERGY PREDICTED BY IDOCK:   -3.49 KCAL/MOL
REMARK 922        TOTAL FREE ENERGY PREDICTED BY IDOCK:   -5.29 KCAL/MOL
REMARK 923 INTER-LIGAND FREE ENERGY PREDICTED BY IDOCK:   -4.56 KCAL/MOL
REMARK 924 INTRA-LIGAND FREE ENERGY PREDICTED BY IDOCK:   -0.73 KCAL/MOL
REMARK 927      BINDING AFFINITY PREDICTED BY RF-SCORE:    0.00 PKD
ROOT
HETATM    1  C   UNL     1      -9.014   1.592  64.191  1.00  0.00    -0.096 C  
HETATM    2  O   UNL     1      -7.953   2.371  64.737  1.00  0.00    -0.079 OA 
ENDROOT
BRANCH   2   3
HETATM    3  C   UNL     1      -8.258   3.682  65.006  1.00  0.00    -0.097 A  
HETATM    4  C   UNL     1      -7.673   4.670  64.193  1.00  0.00    -0.078 A  
HETATM    5  C   UNL     1      -6.758   4.266  63.061  1.00  0.00    -0.035 C  
HETATM    6  C   UNL     1      -7.945   6.043  64.457  1.00  0.00    -0.127 A  
HETATM    7  C   UNL     1      -8.788   6.408  65.546  1.00  0.00    -0.026 A  
HETATM    8  C   UNL     1      -7.320   7.134  63.612  1.00  0.00    -0.085 C  
HETATM    9  C   UNL     1      -9.062   4.057  66.081  1.00  0.00    -0.141 A  
HETATM   10  C   UNL     1      -9.340   5.404  66.365  1.00  0.00    -0.157 A  
HETATM   11  C   UNL     1     -10.201   5.659  67.574  1.00  0.00    -0.246 C  
BRANCH   7  12
HETATM   12  C   UNL     1      -8.990   7.838  65.871  1.00  0.00    -0.155 C  
HETATM   13  C   UNL     1      -8.270   8.524  66.776  1.00  0.00    -0.105 C  
BRANCH  13  14
HETATM   14  C   UNL     1      -8.475   9.919  67.192  1.00  0.00    -0.121 C  
HETATM   15  C   UNL     1      -9.362  10.698  66.528  1.00  0.00    -0.192 C  
HETATM   16  C   UNL     1      -7.666  10.484  68.339  1.00  0.00    -0.104 C  
BRANCH  15  17
HETATM   17  C   UNL     1      -9.643  12.087  66.854  1.00  0.00    -0.209 C  
HETATM   18  C   UNL     1     -10.183  12.993  66.023  1.00  0.00    -0.292 C  
BRANCH  18  19
HETATM   19  C   UNL     1     -10.472  14.360  66.451  1.00  0.00    -0.295 C  
HETATM   20  C   UNL     1     -11.702  14.533  67.302  1.00  0.00    -0.429 C  
HETATM   21  C   UNL     1      -9.654  15.367  66.078  1.00  0.00    -0.382 C  
HETATM   22  C   UNL     1      -9.863  16.792  66.417  1.00  0.00    -0.297 C  
HETATM   23  O   UNL     1      -8.906  17.578  65.880  1.00  0.00    -0.525 OA 
HETATM   24  O   UNL     1     -10.780  17.239  67.084  1.00  0.00    -0.288 OA 
ENDBRANCH  18  19
ENDBRANCH  15  17
ENDBRANCH  13  14
ENDBRANCH   7  12
ENDBRANCH   2   3
TORSDOF 5
ENDMDL
MODEL      105
REMARK 921   NORMALIZED FREE ENERGY PREDICTED BY IDOCK:   -3.47 KCAL/MOL
REMARK 922        TOTAL FREE ENERGY PREDICTED BY IDOCK:   -5.28 KCAL/MOL
REMARK 923 INTER-LIGAND FREE ENERGY PREDICTED BY IDOCK:   -4.71 KCAL/MOL
REMARK 924 INTRA-LIGAND FREE ENERGY PREDICTED BY IDOCK:   -0.57 KCAL/MOL
REMARK 927      BINDING AFFINITY PREDICTED BY RF-SCORE:    0.00 PKD
ROOT
HETATM    1  C   UNL     1     -11.100  16.798  69.865  1.00  0.00     0.020 C  
HETATM    2  O   UNL     1     -11.807  15.939  68.975  1.00  0.00    -0.389 OA 
ENDROOT
BRANCH   2   3
HETATM    3  C   UNL     1     -11.370  14.638  68.933  1.00  0.00    -0.283 A  
HETATM    4  C   UNL     1     -10.351  14.320  68.018  1.00  0.00    -0.229 A  
HETATM    5  C   UNL     1      -9.768  15.400  67.138  1.00  0.00    -0.219 C  
HETATM    6  C   UNL     1      -9.888  12.975  67.927  1.00  0.00    -0.224 A  
HETATM    7  C   UNL     1     -10.468  11.964  68.746  1.00  0.00    -0.207 A  
HETATM    8  C   UNL     1      -8.803  12.594  66.942  1.00  0.00    -0.201 C  
HETATM    9  C   UNL     1     -11.943  13.632  69.709  1.00  0.00    -0.404 A  
HETATM   10  C   UNL     1     -11.508  12.299  69.633  1.00  0.00    -0.285 A  
HETATM   11  C   UNL     1     -12.238  11.317  70.511  1.00  0.00    -0.474 C  
BRANCH   7  12
HETATM   12  C   UNL     1     -10.048  10.554  68.579  1.00  0.00    -0.187 C  
HETATM   13  C   UNL     1     -10.697   9.649  67.825  1.00  0.00    -0.316 C  
BRANCH  13  14
HETATM   14  C   UNL     1     -10.370   8.223  67.684  1.00  0.00    -0.313 C  
HETATM   15  C   UNL     1      -9.568   7.811  66.672  1.00  0.00    -0.286 C  
HETATM   16  C   UNL     1     -10.960   7.220  68.651  1.00  0.00    -0.033 C  
BRANCH  15  17
HETATM   17  C   UNL     1      -9.181   6.429  66.440  1.00  0.00    -0.176 C  
HETATM   18  C   UNL     1      -8.909   5.882  65.243  1.00  0.00    -0.029 C  
BRANCH  18  19
HETATM   19  C   UNL     1      -8.484   4.491  65.107  1.00  0.00    -0.126 C  
HETATM   20  C   UNL     1      -8.917   3.563  66.210  1.00  0.00    -0.145 C  
HETATM   21  C   UNL     1      -7.751   4.115  64.037  1.00  0.00    -0.083 C  
HETATM   22  C   UNL     1      -7.231   2.749  63.809  1.00  0.00    -0.049 C  
HETATM   23  O   UNL     1      -6.501   2.674  62.677  1.00  0.00    -0.017 OA 
HETATM   24  O   UNL     1      -7.410   1.788  64.538  1.00  0.00    -0.054 OA 
ENDBRANCH  18  19
ENDBRANCH  15  17
ENDBRANCH  13  14
ENDBRANCH   7  12
ENDBRANCH   2   3
TORSDOF 5
ENDMDL
MODEL      106
REMARK 921   NORMALIZED FREE ENERGY PREDICTED BY IDOCK:   -3.41 KCAL/MOL
REMARK 922        TOTAL FREE ENERGY PREDICTED BY IDOCK:   -5.20 KCAL/MOL
REMARK 923 INTER-LIGAND FREE ENERGY PREDICTED BY IDOCK:   -4.81 KCAL/MOL
REMARK 924 INTRA-LIGAND FREE ENERGY PREDICTED BY IDOCK:   -0.39 KCAL/MOL
REMARK 927      BINDING AFFINITY PREDICTED BY RF-SCORE:    0.00 PKD
ROOT
HETATM    1  C   UNL     1     -11.413  16.536  64.319  1.00  0.00     0.262 C  
HETATM    2  O   UNL     1     -10.357  16.539  65.276  1.00  0.00    -0.596 OA 
ENDROOT
BRANCH   2   3
HETATM    3  C   UNL     1     -10.149  15.353  65.933  1.00  0.00    -0.345 A  
HETATM    4  C   UNL     1      -8.897  15.152  66.543  1.00  0.00    -0.312 A  
HETATM    5  C   UNL     1      -7.847  16.235  66.472  1.00  0.00    -0.298 C  
HETATM    6  C   UNL     1      -8.634  13.923  67.213  1.00  0.00    -0.221 A  
HETATM    7  C   UNL     1      -9.627  12.902  67.247  1.00  0.00    -0.220 A  
HETATM    8  C   UNL     1      -7.293  13.668  67.867  1.00  0.00    -0.148 C  
HETATM    9  C   UNL     1     -11.100  14.334  65.955  1.00  0.00    -0.319 A  
HETATM   10  C   UNL     1     -10.862  13.111  66.604  1.00  0.00    -0.292 A  
HETATM   11  C   UNL     1     -11.971  12.096  66.522  1.00  0.00    -0.198 C  
BRANCH   7  12
HETATM   12  C   UNL     1      -9.313  11.593  67.863  1.00  0.00    -0.174 C  
HETATM   13  C   UNL     1     -10.151  10.903  68.657  1.00  0.00    -0.200 C  
BRANCH  13  14
HETATM   14  C   UNL     1      -9.865   9.640  69.354  1.00  0.00    -0.203 C  
HETATM   15  C   UNL     1      -8.954   9.614  70.356  1.00  0.00    -0.239 C  
HETATM   16  C   UNL     1     -10.567   8.372  68.922  1.00  0.00    -0.162 C  
BRANCH  15  17
HETATM   17  C   UNL     1      -8.596   8.424  71.111  1.00  0.00    -0.187 C  
HETATM   18  C   UNL     1      -9.163   8.025  72.261  1.00  0.00    -0.243 C  
BRANCH  18  19
HETATM   19  C   UNL     1      -8.769   6.787  72.930  1.00  0.00    -0.131 C  
HETATM   20  C   UNL     1      -7.405   6.795  73.568  1.00  0.00    -0.078 C  
HETATM   21  C   UNL     1      -9.613   5.734  72.946  1.00  0.00    -0.163 C  
HETATM   22  C   UNL     1      -9.311   4.421  73.558  1.00  0.00    -0.114 C  
HETATM   23  O   UNL     1     -10.326   3.547  73.390  1.00  0.00    -0.137 OA 
HETATM   24  O   UNL     1      -8.281   4.125  74.137  1.00  0.00    -0.090 OA 
ENDBRANCH  18  19
ENDBRANCH  15  17
ENDBRANCH  13  14
ENDBRANCH   7  12
ENDBRANCH   2   3
TORSDOF 5
ENDMDL
MODEL      107
REMARK 921   NORMALIZED FREE ENERGY PREDICTED BY IDOCK:   -3.40 KCAL/MOL
REMARK 922        TOTAL FREE ENERGY PREDICTED BY IDOCK:   -5.18 KCAL/MOL
REMARK 923 INTER-LIGAND FREE ENERGY PREDICTED BY IDOCK:   -4.40 KCAL/MOL
REMARK 924 INTRA-LIGAND FREE ENERGY PREDICTED BY IDOCK:   -0.78 KCAL/MOL
REMARK 927      BINDING AFFINITY PREDICTED BY RF-SCORE:    0.00 PKD
ROOT
HETATM    1  C   UNL     1     -11.433  16.512  64.340  1.00  0.00     0.132 C  
HETATM    2  O   UNL     1     -10.358  16.671  65.262  1.00  0.00    -0.609 OA 
ENDROOT
BRANCH   2   3
HETATM    3  C   UNL     1     -10.088  15.581  66.051  1.00  0.00    -0.332 A  
HETATM    4  C   UNL     1      -8.809  15.494  66.632  1.00  0.00    -0.325 A  
HETATM    5  C   UNL     1      -7.799  16.589  66.387  1.00  0.00    -0.324 C  
HETATM    6  C   UNL     1      -8.483  14.365  67.437  1.00  0.00    -0.216 A  
HETATM    7  C   UNL     1      -9.439  13.328  67.635  1.00  0.00    -0.211 A  
HETATM    8  C   UNL     1      -7.111  14.232  68.064  1.00  0.00    -0.145 C  
HETATM    9  C   UNL     1     -11.004  14.546  66.235  1.00  0.00    -0.323 A  
HETATM   10  C   UNL     1     -10.703  13.420  67.020  1.00  0.00    -0.271 A  
HETATM   11  C   UNL     1     -11.779  12.371  67.106  1.00  0.00    -0.415 C  
BRANCH   7  12
HETATM   12  C   UNL     1      -9.061  12.115  68.394  1.00  0.00    -0.151 C  
HETATM   13  C   UNL     1      -8.417  11.057  67.870  1.00  0.00    -0.128 C  
BRANCH  13  14
HETATM   14  C   UNL     1      -8.084   9.800  68.555  1.00  0.00    -0.104 C  
HETATM   15  C   UNL     1      -9.075   8.991  69.000  1.00  0.00    -0.143 C  
HETATM   16  C   UNL     1      -6.633   9.436  68.788  1.00  0.00    -0.052 C  
BRANCH  15  17
HETATM   17  C   UNL     1      -8.859   7.728  69.688  1.00  0.00    -0.139 C  
HETATM   18  C   UNL     1      -8.859   6.513  69.115  1.00  0.00    -0.128 C  
BRANCH  18  19
HETATM   19  C   UNL     1      -8.589   5.297  69.879  1.00  0.00    -0.106 C  
HETATM   20  C   UNL     1      -9.667   4.876  70.841  1.00  0.00    -0.264 C  
HETATM   21  C   UNL     1      -7.429   4.631  69.693  1.00  0.00    -0.052 C  
HETATM   22  C   UNL     1      -7.028   3.414  70.432  1.00  0.00    -0.034 C  
HETATM   23  O   UNL     1      -5.802   2.987  70.064  1.00  0.00    -0.017 OA 
HETATM   24  O   UNL     1      -7.692   2.846  71.282  1.00  0.00    -0.043 OA 
ENDBRANCH  18  19
ENDBRANCH  15  17
ENDBRANCH  13  14
ENDBRANCH   7  12
ENDBRANCH   2   3
TORSDOF 5
ENDMDL
MODEL      108
REMARK 921   NORMALIZED FREE ENERGY PREDICTED BY IDOCK:   -3.38 KCAL/MOL
REMARK 922        TOTAL FREE ENERGY PREDICTED BY IDOCK:   -5.16 KCAL/MOL
REMARK 923 INTER-LIGAND FREE ENERGY PREDICTED BY IDOCK:   -5.01 KCAL/MOL
REMARK 924 INTRA-LIGAND FREE ENERGY PREDICTED BY IDOCK:   -0.14 KCAL/MOL
REMARK 927      BINDING AFFINITY PREDICTED BY RF-SCORE:    0.00 PKD
ROOT
HETATM    1  C   UNL     1      -6.054  18.335  65.424  1.00  0.00    -0.213 C  
HETATM    2  O   UNL     1      -7.022  18.207  66.461  1.00  0.00    -0.189 OA 
ENDROOT
BRANCH   2   3
HETATM    3  C   UNL     1      -7.387  16.922  66.777  1.00  0.00    -0.237 A  
HETATM    4  C   UNL     1      -6.553  16.201  67.651  1.00  0.00    -0.180 A  
HETATM    5  C   UNL     1      -5.316  16.855  68.218  1.00  0.00    -0.115 C  
HETATM    6  C   UNL     1      -6.884  14.855  67.982  1.00  0.00    -0.147 A  
HETATM    7  C   UNL     1      -8.041  14.245  67.416  1.00  0.00    -0.213 A  
HETATM    8  C   UNL     1      -6.001  14.045  68.907  1.00  0.00    -0.084 C  
HETATM    9  C   UNL     1      -8.501  16.302  66.214  1.00  0.00    -0.369 A  
HETATM   10  C   UNL     1      -8.845  14.974  66.520  1.00  0.00    -0.286 A  
HETATM   11  C   UNL     1     -10.059  14.430  65.816  1.00  0.00    -0.361 C  
BRANCH   7  12
HETATM   12  C   UNL     1      -8.326  12.818  67.691  1.00  0.00    -0.175 C  
HETATM   13  C   UNL     1      -9.541  12.328  67.995  1.00  0.00    -0.206 C  
BRANCH  13  14
HETATM   14  C   UNL     1      -9.867  10.939  68.350  1.00  0.00    -0.183 C  
HETATM   15  C   UNL     1      -9.038  10.236  69.158  1.00  0.00    -0.199 C  
HETATM   16  C   UNL     1     -11.112  10.294  67.780  1.00  0.00    -0.335 C  
BRANCH  15  17
HETATM   17  C   UNL     1      -9.263   8.860  69.571  1.00  0.00    -0.150 C  
HETATM   18  C   UNL     1      -9.256   8.411  70.837  1.00  0.00    -0.192 C  
BRANCH  18  19
HETATM   19  C   UNL     1      -9.537   7.016  71.165  1.00  0.00    -0.165 C  
HETATM   20  C   UNL     1      -9.320   6.026  70.052  1.00  0.00    -0.170 C  
HETATM   21  C   UNL     1      -9.961   6.690  72.405  1.00  0.00    -0.180 C  
HETATM   22  C   UNL     1     -10.312   5.321  72.843  1.00  0.00    -0.196 C  
HETATM   23  O   UNL     1     -10.740   5.300  74.123  1.00  0.00    -0.281 OA 
HETATM   24  O   UNL     1     -10.248   4.315  72.157  1.00  0.00    -0.184 OA 
ENDBRANCH  18  19
ENDBRANCH  15  17
ENDBRANCH  13  14
ENDBRANCH   7  12
ENDBRANCH   2   3
TORSDOF 5
ENDMDL
MODEL      109
REMARK 921   NORMALIZED FREE ENERGY PREDICTED BY IDOCK:   -3.37 KCAL/MOL
REMARK 922        TOTAL FREE ENERGY PREDICTED BY IDOCK:   -5.14 KCAL/MOL
REMARK 923 INTER-LIGAND FREE ENERGY PREDICTED BY IDOCK:   -4.87 KCAL/MOL
REMARK 924 INTRA-LIGAND FREE ENERGY PREDICTED BY IDOCK:   -0.27 KCAL/MOL
REMARK 927      BINDING AFFINITY PREDICTED BY RF-SCORE:    0.00 PKD
ROOT
HETATM    1  C   UNL     1     -10.150   1.777  74.112  1.00  0.00    -0.094 C  
HETATM    2  O   UNL     1      -9.019   2.603  73.849  1.00  0.00    -0.074 OA 
ENDROOT
BRANCH   2   3
HETATM    3  C   UNL     1      -9.212   3.594  72.920  1.00  0.00    -0.099 A  
HETATM    4  C   UNL     1      -8.122   3.945  72.101  1.00  0.00    -0.084 A  
HETATM    5  C   UNL     1      -6.806   3.221  72.255  1.00  0.00    -0.026 C  
HETATM    6  C   UNL     1      -8.275   4.986  71.142  1.00  0.00    -0.114 A  
HETATM    7  C   UNL     1      -9.517   5.677  71.030  1.00  0.00    -0.200 A  
HETATM    8  C   UNL     1      -7.120   5.399  70.255  1.00  0.00    -0.062 C  
HETATM    9  C   UNL     1     -10.411   4.295  72.813  1.00  0.00    -0.249 A  
HETATM   10  C   UNL     1     -10.585   5.331  71.880  1.00  0.00    -0.274 A  
HETATM   11  C   UNL     1     -11.926   6.015  71.897  1.00  0.00    -0.185 C  
BRANCH   7  12
HETATM   12  C   UNL     1      -9.639   6.820  70.097  1.00  0.00    -0.165 C  
HETATM   13  C   UNL     1      -9.237   8.074  70.371  1.00  0.00    -0.155 C  
BRANCH  13  14
HETATM   14  C   UNL     1      -9.402   9.258  69.516  1.00  0.00    -0.177 C  
HETATM   15  C   UNL     1     -10.630   9.591  69.052  1.00  0.00    -0.238 C  
HETATM   16  C   UNL     1      -8.190  10.079  69.133  1.00  0.00    -0.137 C  
BRANCH  15  17
HETATM   17  C   UNL     1     -10.906  10.738  68.203  1.00  0.00    -0.284 C  
HETATM   18  C   UNL     1     -10.169  11.130  67.151  1.00  0.00    -0.235 C  
BRANCH  18  19
HETATM   19  C   UNL     1     -10.546  12.273  66.324  1.00  0.00    -0.282 C  
HETATM   20  C   UNL     1     -11.780  12.092  65.481  1.00  0.00    -0.384 C  
HETATM   21  C   UNL     1      -9.800  13.398  66.352  1.00  0.00    -0.299 C  
HETATM   22  C   UNL     1     -10.060  14.603  65.534  1.00  0.00    -0.377 C  
HETATM   23  O   UNL     1      -9.130  15.559  65.743  1.00  0.00    -0.286 OA 
HETATM   24  O   UNL     1     -10.981  14.746  64.749  1.00  0.00    -0.390 OA 
ENDBRANCH  18  19
ENDBRANCH  15  17
ENDBRANCH  13  14
ENDBRANCH   7  12
ENDBRANCH   2   3
TORSDOF 5
ENDMDL
MODEL      110
REMARK 921   NORMALIZED FREE ENERGY PREDICTED BY IDOCK:   -3.33 KCAL/MOL
REMARK 922        TOTAL FREE ENERGY PREDICTED BY IDOCK:   -5.09 KCAL/MOL
REMARK 923 INTER-LIGAND FREE ENERGY PREDICTED BY IDOCK:   -4.30 KCAL/MOL
REMARK 924 INTRA-LIGAND FREE ENERGY PREDICTED BY IDOCK:   -0.79 KCAL/MOL
REMARK 927      BINDING AFFINITY PREDICTED BY RF-SCORE:    0.00 PKD
ROOT
HETATM    1  C   UNL     1     -10.142  19.734  66.160  1.00  0.00    -0.499 C  
HETATM    2  O   UNL     1      -9.925  19.045  67.389  1.00  0.00    -0.315 OA 
ENDROOT
BRANCH   2   3
HETATM    3  C   UNL     1      -9.794  17.683  67.290  1.00  0.00    -0.303 A  
HETATM    4  C   UNL     1      -8.584  17.108  67.723  1.00  0.00    -0.216 A  
HETATM    5  C   UNL     1      -7.496  17.990  68.287  1.00  0.00    -0.267 C  
HETATM    6  C   UNL     1      -8.400  15.700  67.612  1.00  0.00    -0.168 A  
HETATM    7  C   UNL     1      -9.428  14.887  67.052  1.00  0.00    -0.239 A  
HETATM    8  C   UNL     1      -7.106  15.051  68.054  1.00  0.00    -0.142 C  
HETATM    9  C   UNL     1     -10.779  16.876  66.723  1.00  0.00    -0.111 A  
HETATM   10  C   UNL     1     -10.618  15.486  66.597  1.00  0.00    -0.307 A  
HETATM   11  C   UNL     1     -11.754  14.749  65.940  1.00  0.00    -0.248 C  
BRANCH   7  12
HETATM   12  C   UNL     1      -9.192  13.439  66.854  1.00  0.00    -0.251 C  
HETATM   13  C   UNL     1      -9.723  12.468  67.618  1.00  0.00    -0.196 C  
BRANCH  13  14
HETATM   14  C   UNL     1      -9.464  11.025  67.515  1.00  0.00    -0.175 C  
HETATM   15  C   UNL     1      -8.191  10.564  67.543  1.00  0.00    -0.114 C  
HETATM   16  C   UNL     1     -10.624  10.068  67.344  1.00  0.00    -0.330 C  
BRANCH  15  17
HETATM   17  C   UNL     1      -7.822   9.160  67.449  1.00  0.00    -0.099 C  
HETATM   18  C   UNL     1      -6.938   8.639  66.584  1.00  0.00    -0.079 C  
BRANCH  18  19
HETATM   19  C   UNL     1      -6.594   7.219  66.589  1.00  0.00    -0.056 C  
HETATM   20  C   UNL     1      -6.180   6.651  67.920  1.00  0.00    -0.036 C  
HETATM   21  C   UNL     1      -6.663   6.507  65.444  1.00  0.00    -0.047 C  
HETATM   22  C   UNL     1      -6.305   5.077  65.318  1.00  0.00    -0.035 C  
HETATM   23  O   UNL     1      -6.436   4.639  64.048  1.00  0.00    -0.035 OA 
HETATM   24  O   UNL     1      -5.923   4.355  66.223  1.00  0.00    -0.025 OA 
ENDBRANCH  18  19
ENDBRANCH  15  17
ENDBRANCH  13  14
ENDBRANCH   7  12
ENDBRANCH   2   3
TORSDOF 5
ENDMDL
MODEL      111
REMARK 921   NORMALIZED FREE ENERGY PREDICTED BY IDOCK:   -3.07 KCAL/MOL
REMARK 922        TOTAL FREE ENERGY PREDICTED BY IDOCK:   -4.75 KCAL/MOL
REMARK 923 INTER-LIGAND FREE ENERGY PREDICTED BY IDOCK:   -3.99 KCAL/MOL
REMARK 924 INTRA-LIGAND FREE ENERGY PREDICTED BY IDOCK:   -0.76 KCAL/MOL
REMARK 927      BINDING AFFINITY PREDICTED BY RF-SCORE:    0.00 PKD
ROOT
HETATM    1  C   UNL     1      -5.941   1.837  69.935  1.00  0.00    -0.023 C  
HETATM    2  O   UNL     1      -7.126   1.866  69.144  1.00  0.00    -0.036 OA 
ENDROOT
BRANCH   2   3
HETATM    3  C   UNL     1      -7.619   3.116  68.862  1.00  0.00    -0.048 A  
HETATM    4  C   UNL     1      -8.611   3.219  67.870  1.00  0.00    -0.117 A  
HETATM    5  C   UNL     1      -9.105   1.975  67.171  1.00  0.00    -0.135 C  
HETATM    6  C   UNL     1      -9.130   4.502  67.531  1.00  0.00    -0.137 A  
HETATM    7  C   UNL     1      -8.632   5.668  68.181  1.00  0.00    -0.104 A  
HETATM    8  C   UNL     1     -10.187   4.651  66.457  1.00  0.00    -0.273 C  
HETATM    9  C   UNL     1      -7.127   4.269  69.472  1.00  0.00    -0.050 A  
HETATM   10  C   UNL     1      -7.618   5.545  69.150  1.00  0.00    -0.086 A  
HETATM   11  C   UNL     1      -6.973   6.699  69.870  1.00  0.00    -0.063 C  
BRANCH   7  12
HETATM   12  C   UNL     1      -9.108   7.004  67.757  1.00  0.00    -0.126 C  
HETATM   13  C   UNL     1      -8.605   7.700  66.722  1.00  0.00    -0.129 C  
BRANCH  13  14
HETATM   14  C   UNL     1      -8.986   9.057  66.305  1.00  0.00    -0.199 C  
HETATM   15  C   UNL     1      -9.240  10.004  67.239  1.00  0.00    -0.159 C  
HETATM   16  C   UNL     1      -9.124   9.375  64.832  1.00  0.00    -0.258 C  
BRANCH  15  17
HETATM   17  C   UNL     1      -9.623  11.375  66.938  1.00  0.00    -0.203 C  
HETATM   18  C   UNL     1      -9.642  12.393  67.813  1.00  0.00    -0.202 C  
BRANCH  18  19
HETATM   19  C   UNL     1      -9.999  13.752  67.412  1.00  0.00    -0.237 C  
HETATM   20  C   UNL     1      -9.816  14.813  68.463  1.00  0.00    -0.218 C  
HETATM   21  C   UNL     1     -10.458  13.985  66.164  1.00  0.00    -0.297 C  
HETATM   22  C   UNL     1     -10.886  15.307  65.656  1.00  0.00    -0.363 C  
HETATM   23  O   UNL     1     -11.333  15.233  64.385  1.00  0.00    -0.315 OA 
HETATM   24  O   UNL     1     -10.863  16.352  66.283  1.00  0.00    -0.210 OA 
ENDBRANCH  18  19
ENDBRANCH  15  17
ENDBRANCH  13  14
ENDBRANCH   7  12
ENDBRANCH   2   3
TORSDOF 5
ENDMDL
MODEL      112
REMARK 921   NORMALIZED FREE ENERGY PREDICTED BY IDOCK:   -3.02 KCAL/MOL
REMARK 922        TOTAL FREE ENERGY PREDICTED BY IDOCK:   -4.69 KCAL/MOL
REMARK 923 INTER-LIGAND FREE ENERGY PREDICTED BY IDOCK:   -3.99 KCAL/MOL
REMARK 924 INTRA-LIGAND FREE ENERGY PREDICTED BY IDOCK:   -0.70 KCAL/MOL
REMARK 927      BINDING AFFINITY PREDICTED BY RF-SCORE:    0.00 PKD
ROOT
HETATM    1  C   UNL     1      -5.752   1.476  71.385  1.00  0.00    -0.009 C  
HETATM    2  O   UNL     1      -6.847   1.619  70.485  1.00  0.00    -0.031 OA 
ENDROOT
BRANCH   2   3
HETATM    3  C   UNL     1      -7.219   2.910  70.203  1.00  0.00    -0.040 A  
HETATM    4  C   UNL     1      -8.516   3.313  70.570  1.00  0.00    -0.098 A  
HETATM    5  C   UNL     1      -9.435   2.338  71.265  1.00  0.00    -0.213 C  
HETATM    6  C   UNL     1      -8.947   4.638  70.271  1.00  0.00    -0.144 A  
HETATM    7  C   UNL     1      -8.075   5.536  69.590  1.00  0.00    -0.101 A  
HETATM    8  C   UNL     1     -10.341   5.100  70.638  1.00  0.00    -0.305 C  
HETATM    9  C   UNL     1      -6.387   3.793  69.516  1.00  0.00    -0.029 A  
HETATM   10  C   UNL     1      -6.792   5.102  69.205  1.00  0.00    -0.054 A  
HETATM   11  C   UNL     1      -5.798   5.933  68.437  1.00  0.00    -0.016 C  
BRANCH   7  12
HETATM   12  C   UNL     1      -8.563   6.878  69.200  1.00  0.00    -0.128 C  
HETATM   13  C   UNL     1      -8.339   8.004  69.900  1.00  0.00    -0.121 C  
BRANCH  13  14
HETATM   14  C   UNL     1      -8.861   9.346  69.601  1.00  0.00    -0.178 C  
HETATM   15  C   UNL     1      -8.195  10.153  68.742  1.00  0.00    -0.113 C  
HETATM   16  C   UNL     1     -10.123   9.827  70.285  1.00  0.00    -0.323 C  
BRANCH  15  17
HETATM   17  C   UNL     1      -8.621  11.495  68.376  1.00  0.00    -0.159 C  
HETATM   18  C   UNL     1      -9.662  11.798  67.584  1.00  0.00    -0.186 C  
BRANCH  18  19
HETATM   19  C   UNL     1     -10.046  13.179  67.304  1.00  0.00    -0.233 C  
HETATM   20  C   UNL     1      -9.684  14.186  68.363  1.00  0.00    -0.226 C  
HETATM   21  C   UNL     1     -10.682  13.479  66.151  1.00  0.00    -0.289 C  
HETATM   22  C   UNL     1     -11.152  14.830  65.775  1.00  0.00    -0.338 C  
HETATM   23  O   UNL     1     -11.786  14.825  64.584  1.00  0.00    -0.409 OA 
HETATM   24  O   UNL     1     -11.012  15.844  66.438  1.00  0.00    -0.247 OA 
ENDBRANCH  18  19
ENDBRANCH  15  17
ENDBRANCH  13  14
ENDBRANCH   7  12
ENDBRANCH   2   3
TORSDOF 5
ENDMDL
MODEL      113
REMARK 921   NORMALIZED FREE ENERGY PREDICTED BY IDOCK:   -2.99 KCAL/MOL
REMARK 922        TOTAL FREE ENERGY PREDICTED BY IDOCK:   -4.65 KCAL/MOL
REMARK 923 INTER-LIGAND FREE ENERGY PREDICTED BY IDOCK:   -3.86 KCAL/MOL
REMARK 924 INTRA-LIGAND FREE ENERGY PREDICTED BY IDOCK:   -0.79 KCAL/MOL
REMARK 927      BINDING AFFINITY PREDICTED BY RF-SCORE:    0.00 PKD
ROOT
HETATM    1  C   UNL     1      -6.063   1.981  69.858  1.00  0.00    -0.024 C  
HETATM    2  O   UNL     1      -7.165   2.418  69.067  1.00  0.00    -0.043 OA 
ENDROOT
BRANCH   2   3
HETATM    3  C   UNL     1      -7.250   3.774  68.868  1.00  0.00    -0.050 A  
HETATM    4  C   UNL     1      -8.340   4.258  68.122  1.00  0.00    -0.097 A  
HETATM    5  C   UNL     1      -9.372   3.293  67.589  1.00  0.00    -0.245 C  
HETATM    6  C   UNL     1      -8.450   5.656  67.872  1.00  0.00    -0.102 A  
HETATM    7  C   UNL     1      -7.453   6.549  68.360  1.00  0.00    -0.088 A  
HETATM    8  C   UNL     1      -9.602   6.210  67.060  1.00  0.00    -0.153 C  
HETATM    9  C   UNL     1      -6.271   4.658  69.317  1.00  0.00    -0.030 A  
HETATM   10  C   UNL     1      -6.354   6.040  69.078  1.00  0.00    -0.041 A  
HETATM   11  C   UNL     1      -5.210   6.868  69.600  1.00  0.00    -0.015 C  
BRANCH   7  12
HETATM   12  C   UNL     1      -7.524   7.987  68.016  1.00  0.00    -0.097 C  
HETATM   13  C   UNL     1      -7.939   8.953  68.855  1.00  0.00    -0.104 C  
BRANCH  13  14
HETATM   14  C   UNL     1      -8.101  10.380  68.544  1.00  0.00    -0.116 C  
HETATM   15  C   UNL     1      -8.776  10.757  67.432  1.00  0.00    -0.126 C  
HETATM   16  C   UNL     1      -7.483  11.419  69.454  1.00  0.00     0.060 C  
BRANCH  15  17
HETATM   17  C   UNL     1      -8.996  12.137  67.030  1.00  0.00    -0.201 C  
HETATM   18  C   UNL     1      -9.856  12.551  66.085  1.00  0.00    -0.266 C  
BRANCH  18  19
HETATM   19  C   UNL     1     -10.044  13.966  65.776  1.00  0.00    -0.336 C  
HETATM   20  C   UNL     1     -11.173  14.285  64.833  1.00  0.00    -0.381 C  
HETATM   21  C   UNL     1      -9.229  14.889  66.331  1.00  0.00    -0.317 C  
HETATM   22  C   UNL     1      -9.298  16.343  66.065  1.00  0.00    -0.300 C  
HETATM   23  O   UNL     1      -8.336  17.018  66.729  1.00  0.00    -0.199 OA 
HETATM   24  O   UNL     1     -10.101  16.896  65.334  1.00  0.00    -0.586 OA 
ENDBRANCH  18  19
ENDBRANCH  15  17
ENDBRANCH  13  14
ENDBRANCH   7  12
ENDBRANCH   2   3
TORSDOF 5
ENDMDL
MODEL      114
REMARK 921   NORMALIZED FREE ENERGY PREDICTED BY IDOCK:   -2.98 KCAL/MOL
REMARK 922        TOTAL FREE ENERGY PREDICTED BY IDOCK:   -4.63 KCAL/MOL
REMARK 923 INTER-LIGAND FREE ENERGY PREDICTED BY IDOCK:   -4.32 KCAL/MOL
REMARK 924 INTRA-LIGAND FREE ENERGY PREDICTED BY IDOCK:   -0.31 KCAL/MOL
REMARK 927      BINDING AFFINITY PREDICTED BY RF-SCORE:    0.00 PKD
ROOT
HETATM    1  C   UNL     1      -5.547   1.724  71.595  1.00  0.00    -0.008 C  
HETATM    2  O   UNL     1      -6.447   1.812  70.494  1.00  0.00    -0.023 OA 
ENDROOT
BRANCH   2   3
HETATM    3  C   UNL     1      -6.850   3.081  70.158  1.00  0.00    -0.034 A  
HETATM    4  C   UNL     1      -8.216   3.391  70.297  1.00  0.00    -0.069 A  
HETATM    5  C   UNL     1      -9.173   2.346  70.816  1.00  0.00    -0.199 C  
HETATM    6  C   UNL     1      -8.677   4.689  69.935  1.00  0.00    -0.116 A  
HETATM    7  C   UNL     1      -7.764   5.655  69.421  1.00  0.00    -0.088 A  
HETATM    8  C   UNL     1     -10.142   5.053  70.057  1.00  0.00    -0.342 C  
HETATM    9  C   UNL     1      -5.975   4.029  69.632  1.00  0.00    -0.022 A  
HETATM   10  C   UNL     1      -6.407   5.313  69.262  1.00  0.00    -0.034 A  
HETATM   11  C   UNL     1      -5.355   6.221  68.683  1.00  0.00    -0.008 C  
BRANCH   7  12
HETATM   12  C   UNL     1      -8.267   6.968  68.959  1.00  0.00    -0.125 C  
HETATM   13  C   UNL     1      -7.910   7.559  67.805  1.00  0.00    -0.117 C  
BRANCH  13  14
HETATM   14  C   UNL     1      -8.317   8.890  67.333  1.00  0.00    -0.108 C  
HETATM   15  C   UNL     1      -9.095   9.007  66.230  1.00  0.00    -0.224 C  
HETATM   16  C   UNL     1      -7.835  10.123  68.066  1.00  0.00    -0.096 C  
BRANCH  15  17
HETATM   17  C   UNL     1      -9.555  10.271  65.678  1.00  0.00    -0.289 C  
HETATM   18  C   UNL     1     -10.751  10.488  65.108  1.00  0.00     0.003 C  
BRANCH  18  19
HETATM   19  C   UNL     1     -11.148  11.805  64.618  1.00  0.00    -0.363 C  
HETATM   20  C   UNL     1     -10.291  12.381  63.523  1.00  0.00    -0.397 C  
HETATM   21  C   UNL     1     -12.225  12.423  65.148  1.00  0.00    -0.449 C  
HETATM   22  C   UNL     1     -12.701  13.769  64.762  1.00  0.00    -0.215 C  
HETATM   23  O   UNL     1     -13.777  14.146  65.484  1.00  0.00    -0.396 OA 
HETATM   24  O   UNL     1     -12.200  14.484  63.910  1.00  0.00    -0.603 OA 
ENDBRANCH  18  19
ENDBRANCH  15  17
ENDBRANCH  13  14
ENDBRANCH   7  12
ENDBRANCH   2   3
TORSDOF 5
ENDMDL
MODEL      115
REMARK 921   NORMALIZED FREE ENERGY PREDICTED BY IDOCK:   -2.91 KCAL/MOL
REMARK 922        TOTAL FREE ENERGY PREDICTED BY IDOCK:   -4.56 KCAL/MOL
REMARK 923 INTER-LIGAND FREE ENERGY PREDICTED BY IDOCK:   -3.96 KCAL/MOL
REMARK 924 INTRA-LIGAND FREE ENERGY PREDICTED BY IDOCK:   -0.59 KCAL/MOL
REMARK 927      BINDING AFFINITY PREDICTED BY RF-SCORE:    0.00 PKD
ROOT
HETATM    1  C   UNL     1      -9.549  20.540  67.564  1.00  0.00    -0.405 C  
HETATM    2  O   UNL     1      -8.759  19.797  66.640  1.00  0.00    -0.321 OA 
ENDROOT
BRANCH   2   3
HETATM    3  C   UNL     1      -8.507  18.493  66.990  1.00  0.00    -0.264 A  
HETATM    4  C   UNL     1      -9.352  17.499  66.463  1.00  0.00    -0.281 A  
HETATM    5  C   UNL     1     -10.477  17.887  65.533  1.00  0.00    -0.000 C  
HETATM    6  C   UNL     1      -9.138  16.138  66.823  1.00  0.00    -0.257 A  
HETATM    7  C   UNL     1      -8.089  15.793  67.723  1.00  0.00    -0.156 A  
HETATM    8  C   UNL     1     -10.038  15.044  66.286  1.00  0.00    -0.298 C  
HETATM    9  C   UNL     1      -7.500  18.142  67.888  1.00  0.00    -0.228 A  
HETATM   10  C   UNL     1      -7.274  16.807  68.262  1.00  0.00    -0.173 A  
HETATM   11  C   UNL     1      -6.170  16.581  69.260  1.00  0.00    -0.183 C  
BRANCH   7  12
HETATM   12  C   UNL     1      -7.933  14.389  68.165  1.00  0.00    -0.136 C  
HETATM   13  C   UNL     1      -7.317  13.428  67.453  1.00  0.00    -0.124 C  
BRANCH  13  14
HETATM   14  C   UNL     1      -7.200  12.007  67.808  1.00  0.00    -0.108 C  
HETATM   15  C   UNL     1      -7.757  11.549  68.955  1.00  0.00    -0.088 C  
HETATM   16  C   UNL     1      -6.428  11.071  66.903  1.00  0.00    -0.108 C  
BRANCH  15  17
HETATM   17  C   UNL     1      -7.702  10.166  69.401  1.00  0.00    -0.138 C  
HETATM   18  C   UNL     1      -7.338   9.752  70.626  1.00  0.00    -0.070 C  
BRANCH  18  19
HETATM   19  C   UNL     1      -7.354   8.340  71.002  1.00  0.00    -0.063 C  
HETATM   20  C   UNL     1      -6.006   7.700  71.198  1.00  0.00    -0.035 C  
HETATM   21  C   UNL     1      -8.532   7.699  71.153  1.00  0.00    -0.116 C  
HETATM   22  C   UNL     1      -8.675   6.266  71.493  1.00  0.00    -0.134 C  
HETATM   23  O   UNL     1      -9.970   5.891  71.542  1.00  0.00    -0.175 OA 
HETATM   24  O   UNL     1      -7.759   5.489  71.699  1.00  0.00    -0.101 OA 
ENDBRANCH  18  19
ENDBRANCH  15  17
ENDBRANCH  13  14
ENDBRANCH   7  12
ENDBRANCH   2   3
TORSDOF 5
ENDMDL
MODEL      116
REMARK 921   NORMALIZED FREE ENERGY PREDICTED BY IDOCK:   -2.78 KCAL/MOL
REMARK 922        TOTAL FREE ENERGY PREDICTED BY IDOCK:   -4.39 KCAL/MOL
REMARK 923 INTER-LIGAND FREE ENERGY PREDICTED BY IDOCK:   -3.58 KCAL/MOL
REMARK 924 INTRA-LIGAND FREE ENERGY PREDICTED BY IDOCK:   -0.80 KCAL/MOL
REMARK 927      BINDING AFFINITY PREDICTED BY RF-SCORE:    0.00 PKD
ROOT
HETATM    1  C   UNL     1     -10.363  16.677  67.280  1.00  0.00    -0.298 C  
HETATM    2  O   UNL     1     -10.038  15.820  66.189  1.00  0.00    -0.277 OA 
ENDROOT
BRANCH   2   3
HETATM    3  C   UNL     1      -9.753  14.519  66.521  1.00  0.00    -0.285 A  
HETATM    4  C   UNL     1     -10.614  13.517  66.038  1.00  0.00    -0.285 A  
HETATM    5  C   UNL     1     -11.793  13.893  65.173  1.00  0.00    -0.370 C  
HETATM    6  C   UNL     1     -10.365  12.157  66.382  1.00  0.00    -0.246 A  
HETATM    7  C   UNL     1      -9.263  11.823  67.222  1.00  0.00    -0.173 A  
HETATM    8  C   UNL     1     -11.280  11.054  65.893  1.00  0.00     0.071 C  
HETATM    9  C   UNL     1      -8.694  14.178  67.360  1.00  0.00    -0.217 A  
HETATM   10  C   UNL     1      -8.432  12.845  67.719  1.00  0.00    -0.185 A  
HETATM   11  C   UNL     1      -7.272  12.630  68.653  1.00  0.00    -0.108 C  
BRANCH   7  12
HETATM   12  C   UNL     1      -9.067  10.420  67.651  1.00  0.00    -0.143 C  
HETATM   13  C   UNL     1      -9.602   9.879  68.761  1.00  0.00    -0.160 C  
BRANCH  13  14
HETATM   14  C   UNL     1      -9.380   8.520  69.274  1.00  0.00    -0.154 C  
HETATM   15  C   UNL     1      -8.523   8.318  70.304  1.00  0.00    -0.125 C  
HETATM   16  C   UNL     1     -10.087   7.351  68.624  1.00  0.00    -0.186 C  
BRANCH  15  17
HETATM   17  C   UNL     1      -8.231   7.019  70.888  1.00  0.00    -0.121 C  
HETATM   18  C   UNL     1      -7.021   6.439  70.943  1.00  0.00    -0.068 C  
BRANCH  18  19
HETATM   19  C   UNL     1      -6.810   5.147  71.590  1.00  0.00    -0.056 C  
HETATM   20  C   UNL     1      -5.608   5.055  72.491  1.00  0.00    -0.013 C  
HETATM   21  C   UNL     1      -7.672   4.133  71.361  1.00  0.00    -0.065 C  
HETATM   22  C   UNL     1      -7.542   2.772  71.928  1.00  0.00    -0.048 C  
HETATM   23  O   UNL     1      -8.527   1.956  71.498  1.00  0.00    -0.053 OA 
HETATM   24  O   UNL     1      -6.662   2.396  72.683  1.00  0.00    -0.017 OA 
ENDBRANCH  18  19
ENDBRANCH  15  17
ENDBRANCH  13  14
ENDBRANCH   7  12
ENDBRANCH   2   3
TORSDOF 5
ENDMDL
MODEL      117
REMARK 921   NORMALIZED FREE ENERGY PREDICTED BY IDOCK:   -2.76 KCAL/MOL
REMARK 922        TOTAL FREE ENERGY PREDICTED BY IDOCK:   -4.35 KCAL/MOL
REMARK 923 INTER-LIGAND FREE ENERGY PREDICTED BY IDOCK:   -3.70 KCAL/MOL
REMARK 924 INTRA-LIGAND FREE ENERGY PREDICTED BY IDOCK:   -0.65 KCAL/MOL
REMARK 927      BINDING AFFINITY PREDICTED BY RF-SCORE:    0.00 PKD
ROOT
HETATM    1  C   UNL     1      -5.974   1.657  69.938  1.00  0.00    -0.023 C  
HETATM    2  O   UNL     1      -7.275   1.807  69.378  1.00  0.00    -0.036 OA 
ENDROOT
BRANCH   2   3
HETATM    3  C   UNL     1      -7.729   3.098  69.272  1.00  0.00    -0.047 A  
HETATM    4  C   UNL     1      -7.646   3.721  68.013  1.00  0.00    -0.066 A  
HETATM    5  C   UNL     1      -7.086   2.959  66.835  1.00  0.00    -0.053 C  
HETATM    6  C   UNL     1      -8.084   5.069  67.869  1.00  0.00    -0.098 A  
HETATM    7  C   UNL     1      -8.584   5.781  68.997  1.00  0.00    -0.106 A  
HETATM    8  C   UNL     1      -7.994   5.775  66.533  1.00  0.00    -0.102 C  
HETATM    9  C   UNL     1      -8.199   3.817  70.370  1.00  0.00    -0.073 A  
HETATM   10  C   UNL     1      -8.631   5.149  70.254  1.00  0.00    -0.121 A  
HETATM   11  C   UNL     1      -9.087   5.806  71.530  1.00  0.00    -0.149 C  
BRANCH   7  12
HETATM   12  C   UNL     1      -8.948   7.210  68.860  1.00  0.00    -0.129 C  
HETATM   13  C   UNL     1      -8.141   8.237  69.179  1.00  0.00    -0.120 C  
BRANCH  13  14
HETATM   14  C   UNL     1      -8.475   9.667  69.136  1.00  0.00    -0.143 C  
HETATM   15  C   UNL     1      -9.737  10.057  68.831  1.00  0.00    -0.181 C  
HETATM   16  C   UNL     1      -7.398  10.696  69.399  1.00  0.00    -0.133 C  
BRANCH  15  17
HETATM   17  C   UNL     1     -10.176  11.441  68.760  1.00  0.00    -0.209 C  
HETATM   18  C   UNL     1      -9.959  12.281  67.735  1.00  0.00    -0.200 C  
BRANCH  18  19
HETATM   19  C   UNL     1     -10.476  13.647  67.730  1.00  0.00    -0.241 C  
HETATM   20  C   UNL     1     -10.412  14.366  66.409  1.00  0.00    -0.295 C  
HETATM   21  C   UNL     1     -10.971  14.181  68.867  1.00  0.00    -0.280 C  
HETATM   22  C   UNL     1     -11.487  15.562  68.994  1.00  0.00    -0.352 C  
HETATM   23  O   UNL     1     -11.883  15.834  70.256  1.00  0.00    -0.325 OA 
HETATM   24  O   UNL     1     -11.550  16.385  68.097  1.00  0.00    -0.221 OA 
ENDBRANCH  18  19
ENDBRANCH  15  17
ENDBRANCH  13  14
ENDBRANCH   7  12
ENDBRANCH   2   3
TORSDOF 5
ENDMDL
MODEL      118
REMARK 921   NORMALIZED FREE ENERGY PREDICTED BY IDOCK:   -2.74 KCAL/MOL
REMARK 922        TOTAL FREE ENERGY PREDICTED BY IDOCK:   -4.33 KCAL/MOL
REMARK 923 INTER-LIGAND FREE ENERGY PREDICTED BY IDOCK:   -3.91 KCAL/MOL
REMARK 924 INTRA-LIGAND FREE ENERGY PREDICTED BY IDOCK:   -0.42 KCAL/MOL
REMARK 927      BINDING AFFINITY PREDICTED BY RF-SCORE:    0.00 PKD
ROOT
HETATM    1  C   UNL     1      -8.135  19.448  68.368  1.00  0.00    -0.343 C  
HETATM    2  O   UNL     1      -8.252  18.736  67.139  1.00  0.00    -0.258 OA 
ENDROOT
BRANCH   2   3
HETATM    3  C   UNL     1      -8.409  17.377  67.254  1.00  0.00    -0.207 A  
HETATM    4  C   UNL     1      -7.250  16.594  67.406  1.00  0.00    -0.184 A  
HETATM    5  C   UNL     1      -5.896  17.261  67.456  1.00  0.00    -0.155 C  
HETATM    6  C   UNL     1      -7.371  15.178  67.503  1.00  0.00    -0.222 A  
HETATM    7  C   UNL     1      -8.654  14.564  67.427  1.00  0.00    -0.213 A  
HETATM    8  C   UNL     1      -6.144  14.304  67.652  1.00  0.00    -0.071 C  
HETATM    9  C   UNL     1      -9.655  16.759  67.157  1.00  0.00    -0.238 A  
HETATM   10  C   UNL     1      -9.799  15.364  67.244  1.00  0.00    -0.217 A  
HETATM   11  C   UNL     1     -11.201  14.837  67.096  1.00  0.00    -0.346 C  
BRANCH   7  12
HETATM   12  C   UNL     1      -8.763  13.088  67.433  1.00  0.00    -0.205 C  
HETATM   13  C   UNL     1      -8.547  12.302  66.363  1.00  0.00     0.037 C  
BRANCH  13  14
HETATM   14  C   UNL     1      -8.713  10.844  66.292  1.00  0.00    -0.175 C  
HETATM   15  C   UNL     1      -8.012  10.128  65.381  1.00  0.00    -0.144 C  
HETATM   16  C   UNL     1      -9.694  10.157  67.217  1.00  0.00    -0.203 C  
BRANCH  15  17
HETATM   17  C   UNL     1      -8.099   8.684  65.225  1.00  0.00    -0.136 C  
HETATM   18  C   UNL     1      -7.383   7.778  65.909  1.00  0.00    -0.073 C  
BRANCH  18  19
HETATM   19  C   UNL     1      -7.568   6.341  65.718  1.00  0.00    -0.084 C  
HETATM   20  C   UNL     1      -6.511   5.649  64.901  1.00  0.00    -0.041 C  
HETATM   21  C   UNL     1      -8.638   5.723  66.263  1.00  0.00    -0.130 C  
HETATM   22  C   UNL     1      -8.951   4.286  66.108  1.00  0.00    -0.123 C  
HETATM   23  O   UNL     1     -10.100   3.954  66.732  1.00  0.00    -0.078 OA 
HETATM   24  O   UNL     1      -8.283   3.474  65.490  1.00  0.00    -0.096 OA 
ENDBRANCH  18  19
ENDBRANCH  15  17
ENDBRANCH  13  14
ENDBRANCH   7  12
ENDBRANCH   2   3
TORSDOF 5
ENDMDL
MODEL      119
REMARK 921   NORMALIZED FREE ENERGY PREDICTED BY IDOCK:   -2.71 KCAL/MOL
REMARK 922        TOTAL FREE ENERGY PREDICTED BY IDOCK:   -4.29 KCAL/MOL
REMARK 923 INTER-LIGAND FREE ENERGY PREDICTED BY IDOCK:   -3.96 KCAL/MOL
REMARK 924 INTRA-LIGAND FREE ENERGY PREDICTED BY IDOCK:   -0.33 KCAL/MOL
REMARK 927      BINDING AFFINITY PREDICTED BY RF-SCORE:    0.00 PKD
ROOT
HETATM    1  C   UNL     1     -11.584   4.545  72.986  1.00  0.00    -0.056 C  
HETATM    2  O   UNL     1     -12.160   5.803  73.326  1.00  0.00     0.374 OA 
ENDROOT
BRANCH   2   3
HETATM    3  C   UNL     1     -11.769   6.864  72.547  1.00  0.00    -0.154 A  
HETATM    4  C   UNL     1     -12.776   7.621  71.919  1.00  0.00    -0.320 A  
HETATM    5  C   UNL     1     -14.227   7.260  72.130  1.00  0.00    -0.249 C  
HETATM    6  C   UNL     1     -12.409   8.714  71.083  1.00  0.00    -0.243 A  
HETATM    7  C   UNL     1     -11.034   9.023  70.873  1.00  0.00    -0.332 A  
HETATM    8  C   UNL     1     -13.465   9.539  70.379  1.00  0.00     0.511 C  
HETATM    9  C   UNL     1     -10.429   7.166  72.313  1.00  0.00    -0.236 A  
HETATM   10  C   UNL     1     -10.042   8.235  71.488  1.00  0.00    -0.270 A  
HETATM   11  C   UNL     1      -8.560   8.423  71.306  1.00  0.00    -0.198 C  
BRANCH   7  12
HETATM   12  C   UNL     1     -10.659  10.100  69.929  1.00  0.00    -0.331 C  
HETATM   13  C   UNL     1     -10.983  11.396  70.083  1.00  0.00     0.224 C  
BRANCH  13  14
HETATM   14  C   UNL     1     -10.704  12.492  69.144  1.00  0.00    -0.069 C  
HETATM   15  C   UNL     1     -11.719  13.262  68.684  1.00  0.00    -0.376 C  
HETATM   16  C   UNL     1      -9.286  12.729  68.670  1.00  0.00     0.017 C  
BRANCH  15  17
HETATM   17  C   UNL     1     -11.557  14.369  67.755  1.00  0.00    -0.384 C  
HETATM   18  C   UNL     1     -10.970  15.544  68.032  1.00  0.00    -0.311 C  
BRANCH  18  19
HETATM   19  C   UNL     1     -10.811  16.587  67.021  1.00  0.00    -0.113 C  
HETATM   20  C   UNL     1     -11.110  16.176  65.605  1.00  0.00    -0.023 C  
HETATM   21  C   UNL     1     -10.419  17.826  67.390  1.00  0.00    -0.367 C  
HETATM   22  C   UNL     1     -10.188  18.950  66.456  1.00  0.00    -0.414 C  
HETATM   23  O   UNL     1      -9.767  20.057  67.102  1.00  0.00    -0.357 OA 
HETATM   24  O   UNL     1     -10.337  18.913  65.247  1.00  0.00    -0.282 OA 
ENDBRANCH  18  19
ENDBRANCH  15  17
ENDBRANCH  13  14
ENDBRANCH   7  12
ENDBRANCH   2   3
TORSDOF 5
ENDMDL
MODEL      120
REMARK 921   NORMALIZED FREE ENERGY PREDICTED BY IDOCK:   -2.70 KCAL/MOL
REMARK 922        TOTAL FREE ENERGY PREDICTED BY IDOCK:   -4.28 KCAL/MOL
REMARK 923 INTER-LIGAND FREE ENERGY PREDICTED BY IDOCK:   -4.16 KCAL/MOL
REMARK 924 INTRA-LIGAND FREE ENERGY PREDICTED BY IDOCK:   -0.12 KCAL/MOL
REMARK 927      BINDING AFFINITY PREDICTED BY RF-SCORE:    0.00 PKD
ROOT
HETATM    1  C   UNL     1     -10.614  19.260  67.636  1.00  0.00    -0.447 C  
HETATM    2  O   UNL     1     -10.765  18.431  68.786  1.00  0.00    -0.015 OA 
ENDROOT
BRANCH   2   3
HETATM    3  C   UNL     1     -10.639  17.082  68.565  1.00  0.00    -0.370 A  
HETATM    4  C   UNL     1     -11.020  16.211  69.602  1.00  0.00    -0.346 A  
HETATM    5  C   UNL     1     -11.562  16.775  70.894  1.00  0.00     0.499 C  
HETATM    6  C   UNL     1     -10.880  14.805  69.421  1.00  0.00    -0.269 A  
HETATM    7  C   UNL     1     -10.341  14.292  68.206  1.00  0.00    -0.242 A  
HETATM    8  C   UNL     1     -11.267  13.839  70.521  1.00  0.00     0.421 C  
HETATM    9  C   UNL     1     -10.091  16.565  67.392  1.00  0.00    -0.279 A  
HETATM   10  C   UNL     1      -9.938  15.183  67.193  1.00  0.00    -0.237 A  
HETATM   11  C   UNL     1      -9.307  14.772  65.889  1.00  0.00    -0.189 C  
BRANCH   7  12
HETATM   12  C   UNL     1     -10.111  12.837  68.062  1.00  0.00    -0.230 C  
HETATM   13  C   UNL     1     -10.954  11.884  68.500  1.00  0.00    -0.277 C  
BRANCH  13  14
HETATM   14  C   UNL     1     -10.742  10.430  68.452  1.00  0.00    -0.263 C  
HETATM   15  C   UNL     1     -10.379   9.764  69.574  1.00  0.00    -0.247 C  
HETATM   16  C   UNL     1     -10.897   9.694  67.139  1.00  0.00    -0.184 C  
BRANCH  15  17
HETATM   17  C   UNL     1     -10.144   8.330  69.640  1.00  0.00    -0.199 C  
HETATM   18  C   UNL     1     -10.913   7.439  70.287  1.00  0.00    -0.272 C  
BRANCH  18  19
HETATM   19  C   UNL     1     -10.625   6.007  70.263  1.00  0.00    -0.338 C  
HETATM   20  C   UNL     1     -10.944   5.255  71.527  1.00  0.00    -0.100 C  
HETATM   21  C   UNL     1     -10.108   5.444  69.150  1.00  0.00    -0.293 C  
HETATM   22  C   UNL     1      -9.741   4.017  69.019  1.00  0.00    -0.091 C  
HETATM   23  O   UNL     1      -9.214   3.745  67.807  1.00  0.00    -0.143 OA 
HETATM   24  O   UNL     1      -9.873   3.166  69.882  1.00  0.00    -0.052 OA 
ENDBRANCH  18  19
ENDBRANCH  15  17
ENDBRANCH  13  14
ENDBRANCH   7  12
ENDBRANCH   2   3
TORSDOF 5
ENDMDL
MODEL      121
REMARK 921   NORMALIZED FREE ENERGY PREDICTED BY IDOCK:   -2.61 KCAL/MOL
REMARK 922        TOTAL FREE ENERGY PREDICTED BY IDOCK:   -4.16 KCAL/MOL
REMARK 923 INTER-LIGAND FREE ENERGY PREDICTED BY IDOCK:   -3.73 KCAL/MOL
REMARK 924 INTRA-LIGAND FREE ENERGY PREDICTED BY IDOCK:   -0.42 KCAL/MOL
REMARK 927      BINDING AFFINITY PREDICTED BY RF-SCORE:    0.00 PKD
ROOT
HETATM    1  C   UNL     1      -8.194   3.087  72.694  1.00  0.00    -0.071 C  
HETATM    2  O   UNL     1      -9.253   3.606  71.893  1.00  0.00    -0.105 OA 
ENDROOT
BRANCH   2   3
HETATM    3  C   UNL     1      -9.076   4.886  71.432  1.00  0.00    -0.142 A  
HETATM    4  C   UNL     1      -8.248   5.070  70.309  1.00  0.00    -0.088 A  
HETATM    5  C   UNL     1      -7.607   3.873  69.647  1.00  0.00    -0.052 C  
HETATM    6  C   UNL     1      -8.020   6.387  69.817  1.00  0.00    -0.119 A  
HETATM    7  C   UNL     1      -8.611   7.506  70.470  1.00  0.00    -0.138 A  
HETATM    8  C   UNL     1      -7.123   6.622  68.620  1.00  0.00    -0.083 C  
HETATM    9  C   UNL     1      -9.627   5.994  72.074  1.00  0.00    -0.167 A  
HETATM   10  C   UNL     1      -9.411   7.303  71.611  1.00  0.00    -0.161 A  
HETATM   11  C   UNL     1     -10.048   8.401  72.420  1.00  0.00    -0.386 C  
BRANCH   7  12
HETATM   12  C   UNL     1      -8.293   8.877  70.011  1.00  0.00    -0.133 C  
HETATM   13  C   UNL     1      -9.008   9.561  69.100  1.00  0.00    -0.148 C  
BRANCH  13  14
HETATM   14  C   UNL     1      -8.697  10.889  68.552  1.00  0.00    -0.153 C  
HETATM   15  C   UNL     1      -7.539  11.505  68.891  1.00  0.00    -0.102 C  
HETATM   16  C   UNL     1      -9.691  11.574  67.640  1.00  0.00    -0.182 C  
BRANCH  15  17
HETATM   17  C   UNL     1      -7.132  12.815  68.408  1.00  0.00    -0.102 C  
HETATM   18  C   UNL     1      -7.516  13.994  68.924  1.00  0.00    -0.095 C  
BRANCH  18  19
HETATM   19  C   UNL     1      -7.021  15.265  68.402  1.00  0.00    -0.111 C  
HETATM   20  C   UNL     1      -5.841  15.855  69.127  1.00  0.00    -0.118 C  
HETATM   21  C   UNL     1      -7.621  15.831  67.333  1.00  0.00    -0.220 C  
HETATM   22  C   UNL     1      -7.235  17.130  66.740  1.00  0.00    -0.225 C  
HETATM   23  O   UNL     1      -8.033  17.463  65.704  1.00  0.00    -0.477 OA 
HETATM   24  O   UNL     1      -6.324  17.845  67.121  1.00  0.00    -0.154 OA 
ENDBRANCH  18  19
ENDBRANCH  15  17
ENDBRANCH  13  14
ENDBRANCH   7  12
ENDBRANCH   2   3
TORSDOF 5
ENDMDL
MODEL      122
REMARK 921   NORMALIZED FREE ENERGY PREDICTED BY IDOCK:   -2.40 KCAL/MOL
REMARK 922        TOTAL FREE ENERGY PREDICTED BY IDOCK:   -3.90 KCAL/MOL
REMARK 923 INTER-LIGAND FREE ENERGY PREDICTED BY IDOCK:   -5.16 KCAL/MOL
REMARK 924 INTRA-LIGAND FREE ENERGY PREDICTED BY IDOCK:    1.27 KCAL/MOL
REMARK 927      BINDING AFFINITY PREDICTED BY RF-SCORE:    0.00 PKD
ROOT
HETATM    1  C   UNL     1     -10.350   4.818  72.046  1.00  0.00    -0.179 C  
HETATM    2  O   UNL     1     -10.873   6.091  72.416  1.00  0.00    -0.222 OA 
ENDROOT
BRANCH   2   3
HETATM    3  C   UNL     1     -10.645   7.107  71.522  1.00  0.00    -0.207 A  
HETATM    4  C   UNL     1      -9.551   6.977  70.647  1.00  0.00    -0.165 A  
HETATM    5  C   UNL     1      -8.688   5.739  70.705  1.00  0.00    -0.131 C  
HETATM    6  C   UNL     1      -9.267   8.023  69.723  1.00  0.00    -0.149 A  
HETATM    7  C   UNL     1     -10.076   9.196  69.701  1.00  0.00    -0.206 A  
HETATM    8  C   UNL     1      -8.089   7.923  68.777  1.00  0.00    -0.126 C  
HETATM    9  C   UNL     1     -11.412   8.271  71.504  1.00  0.00    -0.325 A  
HETATM   10  C   UNL     1     -11.148   9.319  70.606  1.00  0.00    -0.335 A  
HETATM   11  C   UNL     1     -12.042  10.525  70.719  1.00  0.00    -0.470 C  
BRANCH   7  12
HETATM   12  C   UNL     1      -9.718  10.317  68.803  1.00  0.00    -0.178 C  
HETATM   13  C   UNL     1      -8.632  11.096  68.951  1.00  0.00    -0.092 C  
BRANCH  13  14
HETATM   14  C   UNL     1      -8.269  12.266  68.139  1.00  0.00    -0.168 C  
HETATM   15  C   UNL     1      -8.933  13.435  68.303  1.00  0.00    -0.176 C  
HETATM   16  C   UNL     1      -7.176  12.145  67.099  1.00  0.00    -0.117 C  
BRANCH  15  17
HETATM   17  C   UNL     1      -8.657  14.651  67.555  1.00  0.00    -0.196 C  
HETATM   18  C   UNL     1      -9.181  15.862  67.806  1.00  0.00    -0.201 C  
BRANCH  18  19
HETATM   19  C   UNL     1      -8.812  17.041  67.028  1.00  0.00    -0.242 C  
HETATM   20  C   UNL     1      -7.825  16.809  65.915  1.00  0.00     0.178 C  
HETATM   21  C   UNL     1      -9.353  18.241  67.330  1.00  0.00    -0.256 C  
HETATM   22  C   UNL     1      -9.029  19.510  66.640  1.00  0.00    -0.351 C  
HETATM   23  O   UNL     1      -9.693  20.554  67.178  1.00  0.00    -0.441 OA 
HETATM   24  O   UNL     1      -8.255  19.635  65.707  1.00  0.00    -0.408 OA 
ENDBRANCH  18  19
ENDBRANCH  15  17
ENDBRANCH  13  14
ENDBRANCH   7  12
ENDBRANCH   2   3
TORSDOF 5
ENDMDL
MODEL      123
REMARK 921   NORMALIZED FREE ENERGY PREDICTED BY IDOCK:   -1.93 KCAL/MOL
REMARK 922        TOTAL FREE ENERGY PREDICTED BY IDOCK:   -3.28 KCAL/MOL
REMARK 923 INTER-LIGAND FREE ENERGY PREDICTED BY IDOCK:   -2.94 KCAL/MOL
REMARK 924 INTRA-LIGAND FREE ENERGY PREDICTED BY IDOCK:   -0.35 KCAL/MOL
REMARK 927      BINDING AFFINITY PREDICTED BY RF-SCORE:    0.00 PKD
ROOT
HETATM    1  C   UNL     1      -5.125  17.705  70.055  1.00  0.00    -0.202 C  
HETATM    2  O   UNL     1      -5.968  16.822  70.790  1.00  0.00     0.147 OA 
ENDROOT
BRANCH   2   3
HETATM    3  C   UNL     1      -6.216  15.609  70.197  1.00  0.00    -0.084 A  
HETATM    4  C   UNL     1      -7.118  15.580  69.117  1.00  0.00    -0.164 A  
HETATM    5  C   UNL     1      -7.759  16.862  68.641  1.00  0.00    -0.235 C  
HETATM    6  C   UNL     1      -7.420  14.337  68.492  1.00  0.00    -0.121 A  
HETATM    7  C   UNL     1      -6.827  13.133  68.972  1.00  0.00    -0.090 A  
HETATM    8  C   UNL     1      -8.397  14.267  67.337  1.00  0.00    -0.212 C  
HETATM    9  C   UNL     1      -5.663  14.420  70.669  1.00  0.00    -0.173 A  
HETATM   10  C   UNL     1      -5.951  13.181  70.073  1.00  0.00    -0.135 A  
HETATM   11  C   UNL     1      -5.302  11.979  70.707  1.00  0.00    -0.152 C  
BRANCH   7  12
HETATM   12  C   UNL     1      -7.218  11.835  68.379  1.00  0.00    -0.089 C  
HETATM   13  C   UNL     1      -8.215  11.056  68.837  1.00  0.00    -0.127 C  
BRANCH  13  14
HETATM   14  C   UNL     1      -8.597   9.728  68.336  1.00  0.00    -0.119 C  
HETATM   15  C   UNL     1      -7.655   8.907  67.814  1.00  0.00    -0.093 C  
HETATM   16  C   UNL     1     -10.049   9.302  68.377  1.00  0.00    -0.215 C  
BRANCH  15  17
HETATM   17  C   UNL     1      -7.922   7.576  67.292  1.00  0.00    -0.118 C  
HETATM   18  C   UNL     1      -6.994   6.652  66.992  1.00  0.00    -0.071 C  
BRANCH  18  19
HETATM   19  C   UNL     1      -7.356   5.320  66.513  1.00  0.00    -0.086 C  
HETATM   20  C   UNL     1      -6.341   4.237  66.764  1.00  0.00    -0.037 C  
HETATM   21  C   UNL     1      -8.539   5.129  65.891  1.00  0.00    -0.128 C  
HETATM   22  C   UNL     1      -8.997   3.838  65.330  1.00  0.00    -0.134 C  
HETATM   23  O   UNL     1     -10.203   3.953  64.735  1.00  0.00    -0.208 OA 
HETATM   24  O   UNL     1      -8.384   2.786  65.371  1.00  0.00    -0.090 OA 
ENDBRANCH  18  19
ENDBRANCH  15  17
ENDBRANCH  13  14
ENDBRANCH   7  12
ENDBRANCH   2   3
TORSDOF 5
ENDMDL
MODEL      124
REMARK 921   NORMALIZED FREE ENERGY PREDICTED BY IDOCK:   -1.75 KCAL/MOL
REMARK 922        TOTAL FREE ENERGY PREDICTED BY IDOCK:   -3.05 KCAL/MOL
REMARK 923 INTER-LIGAND FREE ENERGY PREDICTED BY IDOCK:   -2.92 KCAL/MOL
REMARK 924 INTRA-LIGAND FREE ENERGY PREDICTED BY IDOCK:   -0.12 KCAL/MOL
REMARK 927      BINDING AFFINITY PREDICTED BY RF-SCORE:    0.00 PKD
ROOT
HETATM    1  C   UNL     1     -10.566  20.532  68.955  1.00  0.00     0.528 C  
HETATM    2  O   UNL     1      -9.263  20.459  68.383  1.00  0.00    -0.010 OA 
ENDROOT
BRANCH   2   3
HETATM    3  C   UNL     1      -8.790  19.193  68.144  1.00  0.00    -0.319 A  
HETATM    4  C   UNL     1      -9.461  18.414  67.184  1.00  0.00    -0.282 A  
HETATM    5  C   UNL     1     -10.648  18.989  66.448  1.00  0.00    -0.492 C  
HETATM    6  C   UNL     1      -9.016  17.086  66.926  1.00  0.00    -0.248 A  
HETATM    7  C   UNL     1      -7.911  16.550  67.649  1.00  0.00    -0.175 A  
HETATM    8  C   UNL     1      -9.724  16.214  65.910  1.00  0.00    -0.374 C  
HETATM    9  C   UNL     1      -7.726  18.646  68.859  1.00  0.00    -0.270 A  
HETATM   10  C   UNL     1      -7.272  17.337  68.627  1.00  0.00    -0.231 A  
HETATM   11  C   UNL     1      -6.132  16.872  69.494  1.00  0.00    -0.224 C  
BRANCH   7  12
HETATM   12  C   UNL     1      -7.514  15.139  67.443  1.00  0.00    -0.239 C  
HETATM   13  C   UNL     1      -7.854  14.124  68.258  1.00  0.00    -0.138 C  
BRANCH  13  14
HETATM   14  C   UNL     1      -7.427  12.722  68.144  1.00  0.00    -0.124 C  
HETATM   15  C   UNL     1      -7.181  12.188  66.924  1.00  0.00    -0.002 C  
HETATM   16  C   UNL     1      -7.298  11.876  69.392  1.00  0.00     0.178 C  
BRANCH  15  17
HETATM   17  C   UNL     1      -6.754  10.816  66.697  1.00  0.00    -0.120 C  
HETATM   18  C   UNL     1      -7.057  10.069  65.623  1.00  0.00    -0.119 C  
BRANCH  18  19
HETATM   19  C   UNL     1      -6.547   8.710  65.457  1.00  0.00    -0.063 C  
HETATM   20  C   UNL     1      -5.765   8.158  66.618  1.00  0.00    -0.043 C  
HETATM   21  C   UNL     1      -6.792   8.036  64.313  1.00  0.00    -0.065 C  
HETATM   22  C   UNL     1      -6.298   6.674  64.014  1.00  0.00    -0.034 C  
HETATM   23  O   UNL     1      -6.667   6.267  62.782  1.00  0.00    -0.036 OA 
HETATM   24  O   UNL     1      -5.628   5.980  64.760  1.00  0.00    -0.017 OA 
ENDBRANCH  18  19
ENDBRANCH  15  17
ENDBRANCH  13  14
ENDBRANCH   7  12
ENDBRANCH   2   3
TORSDOF 5
ENDMDL
MODEL      125
REMARK 921   NORMALIZED FREE ENERGY PREDICTED BY IDOCK:    2.13 KCAL/MOL
REMARK 922        TOTAL FREE ENERGY PREDICTED BY IDOCK:    1.96 KCAL/MOL
REMARK 923 INTER-LIGAND FREE ENERGY PREDICTED BY IDOCK:    0.79 KCAL/MOL
REMARK 924 INTRA-LIGAND FREE ENERGY PREDICTED BY IDOCK:    1.17 KCAL/MOL
REMARK 927      BINDING AFFINITY PREDICTED BY RF-SCORE:    0.00 PKD
ROOT
HETATM    1  C   UNL     1     -11.566  17.216  71.264  1.00  0.00     1.399 C  
HETATM    2  O   UNL     1     -12.496  16.174  70.982  1.00  0.00    -0.289 OA 
ENDROOT
BRANCH   2   3
HETATM    3  C   UNL     1     -11.946  14.949  70.696  1.00  0.00    -0.305 A  
HETATM    4  C   UNL     1     -10.702  14.928  70.038  1.00  0.00    -0.165 A  
HETATM    5  C   UNL     1     -10.016  16.227  69.689  1.00  0.00    -0.137 C  
HETATM    6  C   UNL     1     -10.111  13.677  69.701  1.00  0.00     0.794 A  
HETATM    7  C   UNL     1     -10.786  12.461  70.014  1.00  0.00     1.043 A  
HETATM    8  C   UNL     1      -8.782  13.617  68.979  1.00  0.00     0.315 C  
HETATM    9  C   UNL     1     -12.603  13.752  70.973  1.00  0.00    -0.446 A  
HETATM   10  C   UNL     1     -12.043  12.506  70.645  1.00  0.00    -0.312 A  
HETATM   11  C   UNL     1     -12.880  11.300  70.981  1.00  0.00    -0.395 C  
BRANCH   7  12
HETATM   12  C   UNL     1     -10.210  11.169  69.576  1.00  0.00     0.045 C  
HETATM   13  C   UNL     1      -9.906  10.151  70.401  1.00  0.00     0.073 C  
BRANCH  13  14
HETATM   14  C   UNL     1      -9.266   8.880  70.034  1.00  0.00    -0.183 C  
HETATM   15  C   UNL     1      -9.167   7.885  70.947  1.00  0.00    -0.160 C  
HETATM   16  C   UNL     1      -8.690   8.707  68.645  1.00  0.00    -0.138 C  
BRANCH  15  17
HETATM   17  C   UNL     1      -8.555   6.591  70.691  1.00  0.00    -0.139 C  
HETATM   18  C   UNL     1      -7.237   6.356  70.581  1.00  0.00    -0.074 C  
BRANCH  18  19
HETATM   19  C   UNL     1      -6.706   5.012  70.366  1.00  0.00    -0.040 C  
HETATM   20  C   UNL     1      -6.598   4.573  68.931  1.00  0.00    -0.045 C  
HETATM   21  C   UNL     1      -6.349   4.254  71.425  1.00  0.00    -0.018 C  
HETATM   22  C   UNL     1      -5.836   2.869  71.336  1.00  0.00    -0.013 C  
HETATM   23  O   UNL     1      -5.596   2.345  72.556  1.00  0.00    -0.003 OA 
HETATM   24  O   UNL     1      -5.652   2.242  70.306  1.00  0.00    -0.015 OA 
ENDBRANCH  18  19
ENDBRANCH  15  17
ENDBRANCH  13  14
ENDBRANCH   7  12
ENDBRANCH   2   3
TORSDOF 5
ENDMDL
MODEL      126
REMARK 921   NORMALIZED FREE ENERGY PREDICTED BY IDOCK:    3.19 KCAL/MOL
REMARK 922        TOTAL FREE ENERGY PREDICTED BY IDOCK:    3.34 KCAL/MOL
REMARK 923 INTER-LIGAND FREE ENERGY PREDICTED BY IDOCK:    3.12 KCAL/MOL
REMARK 924 INTRA-LIGAND FREE ENERGY PREDICTED BY IDOCK:    0.22 KCAL/MOL
REMARK 927      BINDING AFFINITY PREDICTED BY RF-SCORE:    0.00 PKD
ROOT
HETATM    1  C   UNL     1     -11.529   4.521  73.344  1.00  0.00    -0.230 C  
HETATM    2  O   UNL     1     -11.204   5.686  74.097  1.00  0.00     0.123 OA 
ENDROOT
BRANCH   2   3
HETATM    3  C   UNL     1     -10.981   6.823  73.363  1.00  0.00    -0.168 A  
HETATM    4  C   UNL     1      -9.650   7.135  73.027  1.00  0.00    -0.199 A  
HETATM    5  C   UNL     1      -8.532   6.218  73.463  1.00  0.00    -0.121 C  
HETATM    6  C   UNL     1      -9.375   8.321  72.288  1.00  0.00    -0.323 A  
HETATM    7  C   UNL     1     -10.440   9.189  71.909  1.00  0.00    -0.280 A  
HETATM    8  C   UNL     1      -7.954   8.696  71.923  1.00  0.00    -0.133 C  
HETATM    9  C   UNL     1     -12.007   7.695  73.005  1.00  0.00     0.156 A  
HETATM   10  C   UNL     1     -11.761   8.874  72.281  1.00  0.00    -0.351 A  
HETATM   11  C   UNL     1     -12.964   9.731  71.988  1.00  0.00    -0.515 C  
BRANCH   7  12
HETATM   12  C   UNL     1     -10.137  10.466  71.223  1.00  0.00     2.154 C  
HETATM   13  C   UNL     1     -11.026  11.176  70.505  1.00  0.00     0.537 C  
BRANCH  13  14
HETATM   14  C   UNL     1     -10.762  12.405  69.743  1.00  0.00     0.570 C  
HETATM   15  C   UNL     1     -10.754  13.603  70.376  1.00  0.00     1.333 C  
HETATM   16  C   UNL     1     -10.536  12.325  68.249  1.00  0.00    -0.236 C  
BRANCH  15  17
HETATM   17  C   UNL     1     -10.505  14.877  69.722  1.00  0.00    -0.151 C  
HETATM   18  C   UNL     1     -11.334  15.491  68.862  1.00  0.00    -0.329 C  
BRANCH  18  19
HETATM   19  C   UNL     1     -11.021  16.796  68.284  1.00  0.00    -0.327 C  
HETATM   20  C   UNL     1     -11.901  17.935  68.726  1.00  0.00     3.013 C  
HETATM   21  C   UNL     1      -9.996  16.917  67.414  1.00  0.00    -0.269 C  
HETATM   22  C   UNL     1      -9.608  18.174  66.737  1.00  0.00    -0.301 C  
HETATM   23  O   UNL     1      -8.570  17.989  65.895  1.00  0.00    -0.507 OA 
HETATM   24  O   UNL     1     -10.145  19.259  66.887  1.00  0.00    -0.326 OA 
ENDBRANCH  18  19
ENDBRANCH  15  17
ENDBRANCH  13  14
ENDBRANCH   7  12
ENDBRANCH   2   3
TORSDOF 5
ENDMDL
MODEL      127
REMARK 921   NORMALIZED FREE ENERGY PREDICTED BY IDOCK:    3.68 KCAL/MOL
REMARK 922        TOTAL FREE ENERGY PREDICTED BY IDOCK:    3.97 KCAL/MOL
REMARK 923 INTER-LIGAND FREE ENERGY PREDICTED BY IDOCK:    3.03 KCAL/MOL
REMARK 924 INTRA-LIGAND FREE ENERGY PREDICTED BY IDOCK:    0.94 KCAL/MOL
REMARK 927      BINDING AFFINITY PREDICTED BY RF-SCORE:    0.00 PKD
ROOT
HETATM    1  C   UNL     1     -11.156   4.122  64.123  1.00  0.00     0.194 C  
HETATM    2  O   UNL     1     -10.131   3.936  65.096  1.00  0.00    -0.187 OA 
ENDROOT
BRANCH   2   3
HETATM    3  C   UNL     1      -9.663   5.081  65.690  1.00  0.00    -0.106 A  
HETATM    4  C   UNL     1     -10.610   5.993  66.191  1.00  0.00     0.133 A  
HETATM    5  C   UNL     1     -12.083   5.682  66.079  1.00  0.00     3.118 C  
HETATM    6  C   UNL     1     -10.163   7.205  66.792  1.00  0.00    -0.289 A  
HETATM    7  C   UNL     1      -8.770   7.494  66.866  1.00  0.00    -0.131 A  
HETATM    8  C   UNL     1     -11.155   8.215  67.329  1.00  0.00     0.336 C  
HETATM    9  C   UNL     1      -8.305   5.391  65.748  1.00  0.00    -0.126 A  
HETATM   10  C   UNL     1      -7.841   6.582  66.330  1.00  0.00    -0.104 A  
HETATM   11  C   UNL     1      -6.350   6.793  66.297  1.00  0.00    -0.046 C  
BRANCH   7  12
HETATM   12  C   UNL     1      -8.319   8.797  67.406  1.00  0.00    -0.109 C  
HETATM   13  C   UNL     1      -7.141   9.000  68.022  1.00  0.00    -0.079 C  
BRANCH  13  14
HETATM   14  C   UNL     1      -6.675  10.249  68.642  1.00  0.00    -0.053 C  
HETATM   15  C   UNL     1      -6.916  11.435  68.035  1.00  0.00    -0.069 C  
HETATM   16  C   UNL     1      -5.898  10.195  69.940  1.00  0.00    -0.048 C  
BRANCH  15  17
HETATM   17  C   UNL     1      -6.501  12.727  68.559  1.00  0.00    -0.082 C  
HETATM   18  C   UNL     1      -7.048  13.912  68.244  1.00  0.00    -0.108 C  
BRANCH  18  19
HETATM   19  C   UNL     1      -6.596  15.160  68.853  1.00  0.00    -0.104 C  
HETATM   20  C   UNL     1      -5.130  15.230  69.189  1.00  0.00    -0.095 C  
HETATM   21  C   UNL     1      -7.479  16.157  69.079  1.00  0.00    -0.210 C  
HETATM   22  C   UNL     1      -7.148  17.447  69.722  1.00  0.00     0.424 C  
HETATM   23  O   UNL     1      -8.236  18.235  69.849  1.00  0.00     0.968 OA 
HETATM   24  O   UNL     1      -6.044  17.786  70.112  1.00  0.00    -0.196 OA 
ENDBRANCH  18  19
ENDBRANCH  15  17
ENDBRANCH  13  14
ENDBRANCH   7  12
ENDBRANCH   2   3
TORSDOF 5
ENDMDL
MODEL      128
REMARK 921   NORMALIZED FREE ENERGY PREDICTED BY IDOCK:    3.74 KCAL/MOL
REMARK 922        TOTAL FREE ENERGY PREDICTED BY IDOCK:    4.04 KCAL/MOL
REMARK 923 INTER-LIGAND FREE ENERGY PREDICTED BY IDOCK:    4.23 KCAL/MOL
REMARK 924 INTRA-LIGAND FREE ENERGY PREDICTED BY IDOCK:   -0.19 KCAL/MOL
REMARK 927      BINDING AFFINITY PREDICTED BY RF-SCORE:    0.00 PKD
ROOT
HETATM    1  C   UNL     1     -11.201  20.097  69.156  1.00  0.00     2.058 C  
HETATM    2  O   UNL     1     -10.310  19.454  70.063  1.00  0.00     0.312 OA 
ENDROOT
BRANCH   2   3
HETATM    3  C   UNL     1      -9.883  18.204  69.689  1.00  0.00     0.446 A  
HETATM    4  C   UNL     1     -10.705  17.108  70.009  1.00  0.00     0.332 A  
HETATM    5  C   UNL     1     -12.016  17.338  70.723  1.00  0.00     3.257 C  
HETATM    6  C   UNL     1     -10.284  15.793  69.660  1.00  0.00    -0.289 A  
HETATM    7  C   UNL     1      -9.032  15.593  69.010  1.00  0.00    -0.239 A  
HETATM    8  C   UNL     1     -11.138  14.590  70.002  1.00  0.00    -0.170 C  
HETATM    9  C   UNL     1      -8.650  17.989  69.075  1.00  0.00    -0.014 A  
HETATM   10  C   UNL     1      -8.210  16.701  68.727  1.00  0.00    -0.249 A  
HETATM   11  C   UNL     1      -6.847  16.619  68.094  1.00  0.00    -0.149 C  
BRANCH   7  12
HETATM   12  C   UNL     1      -8.559  14.217  68.736  1.00  0.00    -0.101 C  
HETATM   13  C   UNL     1      -8.619  13.614  67.535  1.00  0.00    -0.197 C  
BRANCH  13  14
HETATM   14  C   UNL     1      -8.236  12.230  67.224  1.00  0.00    -0.182 C  
HETATM   15  C   UNL     1      -8.514  11.711  66.004  1.00  0.00     0.059 C  
HETATM   16  C   UNL     1      -7.564  11.384  68.283  1.00  0.00    -0.113 C  
BRANCH  15  17
HETATM   17  C   UNL     1      -8.180  10.357  65.591  1.00  0.00    -0.158 C  
HETATM   18  C   UNL     1      -6.960   9.799  65.646  1.00  0.00    -0.101 C  
BRANCH  18  19
HETATM   19  C   UNL     1      -6.723   8.413  65.249  1.00  0.00    -0.056 C  
HETATM   20  C   UNL     1      -5.287   7.964  65.265  1.00  0.00    -0.029 C  
HETATM   21  C   UNL     1      -7.765   7.628  64.900  1.00  0.00    -0.107 C  
HETATM   22  C   UNL     1      -7.647   6.225  64.446  1.00  0.00    -0.100 C  
HETATM   23  O   UNL     1      -8.850   5.699  64.131  1.00  0.00     0.061 OA 
HETATM   24  O   UNL     1      -6.609   5.593  64.345  1.00  0.00    -0.042 OA 
ENDBRANCH  18  19
ENDBRANCH  15  17
ENDBRANCH  13  14
ENDBRANCH   7  12
ENDBRANCH   2   3
TORSDOF 5
ENDMDL
MODEL      129
REMARK 921   NORMALIZED FREE ENERGY PREDICTED BY IDOCK:   26.16 KCAL/MOL
REMARK 922        TOTAL FREE ENERGY PREDICTED BY IDOCK:   33.01 KCAL/MOL
REMARK 923 INTER-LIGAND FREE ENERGY PREDICTED BY IDOCK:   33.27 KCAL/MOL
REMARK 924 INTRA-LIGAND FREE ENERGY PREDICTED BY IDOCK:   -0.26 KCAL/MOL
REMARK 927      BINDING AFFINITY PREDICTED BY RF-SCORE:    0.00 PKD
ROOT
HETATM    1  C   UNL     1     -11.625   4.554  73.190  1.00  0.00    -0.122 C  
HETATM    2  O   UNL     1     -11.897   5.799  73.828  1.00  0.00     0.801 OA 
ENDROOT
BRANCH   2   3
HETATM    3  C   UNL     1     -11.474   6.916  73.153  1.00  0.00     0.097 A  
HETATM    4  C   UNL     1     -12.251   8.084  73.269  1.00  0.00     1.061 A  
HETATM    5  C   UNL     1     -13.491   8.077  74.131  1.00  0.00     6.560 C  
HETATM    6  C   UNL     1     -11.859   9.257  72.563  1.00  0.00     0.239 A  
HETATM    7  C   UNL     1     -10.700   9.238  71.733  1.00  0.00    -0.324 A  
HETATM    8  C   UNL     1     -12.679  10.527  72.653  1.00  0.00     1.209 C  
HETATM    9  C   UNL     1     -10.358   6.908  72.319  1.00  0.00    -0.219 A  
HETATM   10  C   UNL     1      -9.955   8.050  71.607  1.00  0.00    -0.237 A  
HETATM   11  C   UNL     1      -8.746   7.884  70.725  1.00  0.00    -0.134 C  
BRANCH   7  12
HETATM   12  C   UNL     1     -10.353  10.432  70.930  1.00  0.00     0.811 C  
HETATM   13  C   UNL     1     -10.056  11.638  71.444  1.00  0.00     8.401 C  
BRANCH  13  14
HETATM   14  C   UNL     1      -9.779  12.872  70.695  1.00  0.00     6.317 C  
HETATM   15  C   UNL     1      -9.552  14.029  71.361  1.00  0.00     6.370 C  
HETATM   16  C   UNL     1      -9.785  12.846  69.182  1.00  0.00     0.506 C  
BRANCH  15  17
HETATM   17  C   UNL     1      -9.268  15.305  70.722  1.00  0.00     1.701 C  
HETATM   18  C   UNL     1      -8.163  15.600  70.020  1.00  0.00     0.466 C  
BRANCH  18  19
HETATM   19  C   UNL     1      -7.981  16.897  69.372  1.00  0.00     0.175 C  
HETATM   20  C   UNL     1      -8.799  17.129  68.130  1.00  0.00    -0.237 C  
HETATM   21  C   UNL     1      -7.121  17.796  69.898  1.00  0.00     0.671 C  
HETATM   22  C   UNL     1      -6.825  19.122  69.314  1.00  0.00    -0.301 C  
HETATM   23  O   UNL     1      -5.900  19.791  70.034  1.00  0.00    -0.249 OA 
HETATM   24  O   UNL     1      -7.326  19.583  68.303  1.00  0.00    -0.289 OA 
ENDBRANCH  18  19
ENDBRANCH  15  17
ENDBRANCH  13  14
ENDBRANCH   7  12
ENDBRANCH   2   3
TORSDOF 5
ENDMDL
MODEL      130
REMARK 921   NORMALIZED FREE ENERGY PREDICTED BY IDOCK:   28.04 KCAL/MOL
REMARK 922        TOTAL FREE ENERGY PREDICTED BY IDOCK:   35.45 KCAL/MOL
REMARK 923 INTER-LIGAND FREE ENERGY PREDICTED BY IDOCK:   34.79 KCAL/MOL
REMARK 924 INTRA-LIGAND FREE ENERGY PREDICTED BY IDOCK:    0.66 KCAL/MOL
REMARK 927      BINDING AFFINITY PREDICTED BY RF-SCORE:    0.00 PKD
ROOT
HETATM    1  C   UNL     1     -11.877   4.100  65.090  1.00  0.00     2.671 C  
HETATM    2  O   UNL     1     -11.468   4.401  66.421  1.00  0.00     1.881 OA 
ENDROOT
BRANCH   2   3
HETATM    3  C   UNL     1     -11.065   5.695  66.639  1.00  0.00     0.075 A  
HETATM    4  C   UNL     1     -12.010   6.718  66.438  1.00  0.00     3.633 A  
HETATM    5  C   UNL     1     -13.416   6.366  66.013  1.00  0.00    12.626 C  
HETATM    6  C   UNL     1     -11.623   8.075  66.630  1.00  0.00     3.231 A  
HETATM    7  C   UNL     1     -10.285   8.389  67.005  1.00  0.00    -0.377 A  
HETATM    8  C   UNL     1     -12.610   9.201  66.407  1.00  0.00    12.521 C  
HETATM    9  C   UNL     1      -9.754   6.021  66.983  1.00  0.00    -0.159 A  
HETATM   10  C   UNL     1      -9.347   7.352  67.171  1.00  0.00    -0.172 A  
HETATM   11  C   UNL     1      -7.894   7.554  67.513  1.00  0.00    -0.116 C  
BRANCH   7  12
HETATM   12  C   UNL     1      -9.866   9.805  67.110  1.00  0.00    -0.238 C  
HETATM   13  C   UNL     1      -8.796  10.235  67.802  1.00  0.00    -0.125 C  
BRANCH  13  14
HETATM   14  C   UNL     1      -8.378  11.630  68.003  1.00  0.00    -0.148 C  
HETATM   15  C   UNL     1      -8.356  12.486  66.953  1.00  0.00    -0.097 C  
HETATM   16  C   UNL     1      -7.942  12.090  69.377  1.00  0.00     0.631 C  
BRANCH  15  17
HETATM   17  C   UNL     1      -7.961  13.883  67.038  1.00  0.00     0.043 C  
HETATM   18  C   UNL     1      -8.482  14.890  66.318  1.00  0.00     0.273 C  
BRANCH  18  19
HETATM   19  C   UNL     1      -8.054  16.274  66.501  1.00  0.00    -0.337 C  
HETATM   20  C   UNL     1      -6.568  16.511  66.459  1.00  0.00     0.076 C  
HETATM   21  C   UNL     1      -8.976  17.243  66.692  1.00  0.00    -0.279 C  
HETATM   22  C   UNL     1      -8.663  18.670  66.925  1.00  0.00    -0.286 C  
HETATM   23  O   UNL     1      -9.781  19.401  67.118  1.00  0.00    -0.311 OA 
HETATM   24  O   UNL     1      -7.547  19.158  66.958  1.00  0.00    -0.224 OA 
ENDBRANCH  18  19
ENDBRANCH  15  17
ENDBRANCH  13  14
ENDBRANCH   7  12
ENDBRANCH   2   3
TORSDOF 5
ENDMDL
MODEL      131
REMARK 921   NORMALIZED FREE ENERGY PREDICTED BY IDOCK:   32.14 KCAL/MOL
REMARK 922        TOTAL FREE ENERGY PREDICTED BY IDOCK:   40.75 KCAL/MOL
REMARK 923 INTER-LIGAND FREE ENERGY PREDICTED BY IDOCK:   39.81 KCAL/MOL
REMARK 924 INTRA-LIGAND FREE ENERGY PREDICTED BY IDOCK:    0.94 KCAL/MOL
REMARK 927      BINDING AFFINITY PREDICTED BY RF-SCORE:    0.00 PKD
ROOT
HETATM    1  C   UNL     1     -11.177  20.258  72.711  1.00  0.00    10.054 C  
HETATM    2  O   UNL     1     -12.240  19.342  72.462  1.00  0.00    10.571 OA 
ENDROOT
BRANCH   2   3
HETATM    3  C   UNL     1     -11.864  18.117  71.970  1.00  0.00     5.302 A  
HETATM    4  C   UNL     1     -11.159  18.088  70.753  1.00  0.00     2.769 A  
HETATM    5  C   UNL     1     -10.828  19.381  70.047  1.00  0.00     1.973 C  
HETATM    6  C   UNL     1     -10.773  16.834  70.199  1.00  0.00     0.016 A  
HETATM    7  C   UNL     1     -11.118  15.622  70.865  1.00  0.00    -0.377 A  
HETATM    8  C   UNL     1     -10.027  16.764  68.883  1.00  0.00    -0.271 C  
HETATM    9  C   UNL     1     -12.214  16.922  72.597  1.00  0.00     0.456 A  
HETATM   10  C   UNL     1     -11.851  15.673  72.066  1.00  0.00    -0.548 A  
HETATM   11  C   UNL     1     -12.321  14.468  72.837  1.00  0.00    -0.259 C  
BRANCH   7  12
HETATM   12  C   UNL     1     -10.797  14.321  70.235  1.00  0.00     0.274 C  
HETATM   13  C   UNL     1     -10.891  13.130  70.853  1.00  0.00     3.085 C  
BRANCH  13  14
HETATM   14  C   UNL     1     -10.515  11.820  70.303  1.00  0.00     1.790 C  
HETATM   15  C   UNL     1     -11.166  11.330  69.220  1.00  0.00    -0.336 C  
HETATM   16  C   UNL     1      -9.424  11.013  70.973  1.00  0.00     5.079 C  
BRANCH  15  17
HETATM   17  C   UNL     1     -10.876  10.049  68.596  1.00  0.00    -0.265 C  
HETATM   18  C   UNL     1     -11.258   8.848  69.058  1.00  0.00     0.267 C  
BRANCH  18  19
HETATM   19  C   UNL     1     -10.960   7.611  68.341  1.00  0.00     0.100 C  
HETATM   20  C   UNL     1     -11.234   6.336  69.092  1.00  0.00    -0.439 C  
HETATM   21  C   UNL     1     -10.470   7.666  67.083  1.00  0.00    -0.412 C  
HETATM   22  C   UNL     1     -10.096   6.487  66.272  1.00  0.00     0.107 C  
HETATM   23  O   UNL     1      -9.602   6.844  65.069  1.00  0.00     1.076 OA 
HETATM   24  O   UNL     1     -10.195   5.322  66.620  1.00  0.00    -0.199 OA 
ENDBRANCH  18  19
ENDBRANCH  15  17
ENDBRANCH  13  14
ENDBRANCH   7  12
ENDBRANCH   2   3
TORSDOF 5
ENDMDL
MODEL      132
REMARK 921   NORMALIZED FREE ENERGY PREDICTED BY IDOCK:   34.63 KCAL/MOL
REMARK 922        TOTAL FREE ENERGY PREDICTED BY IDOCK:   43.97 KCAL/MOL
REMARK 923 INTER-LIGAND FREE ENERGY PREDICTED BY IDOCK:   44.74 KCAL/MOL
REMARK 924 INTRA-LIGAND FREE ENERGY PREDICTED BY IDOCK:   -0.77 KCAL/MOL
REMARK 927      BINDING AFFINITY PREDICTED BY RF-SCORE:    0.00 PKD
ROOT
HETATM    1  C   UNL     1      -9.746  19.281  72.991  1.00  0.00     4.653 C  
HETATM    2  O   UNL     1      -8.454  19.517  72.439  1.00  0.00     3.794 OA 
ENDROOT
BRANCH   2   3
HETATM    3  C   UNL     1      -7.850  18.430  71.858  1.00  0.00     9.306 A  
HETATM    4  C   UNL     1      -7.313  18.591  70.567  1.00  0.00     2.205 A  
HETATM    5  C   UNL     1      -7.401  19.934  69.881  1.00  0.00     0.174 C  
HETATM    6  C   UNL     1      -6.701  17.479  69.921  1.00  0.00     0.280 A  
HETATM    7  C   UNL     1      -6.651  16.213  70.573  1.00  0.00     0.748 A  
HETATM    8  C   UNL     1      -6.127  17.613  68.526  1.00  0.00    -0.179 C  
HETATM    9  C   UNL     1      -7.814  17.179  72.471  1.00  0.00    14.708 A  
HETATM   10  C   UNL     1      -7.221  16.066  71.852  1.00  0.00     5.793 A  
HETATM   11  C   UNL     1      -7.281  14.774  72.622  1.00  0.00     4.074 C  
BRANCH   7  12
HETATM   12  C   UNL     1      -6.098  15.041  69.857  1.00  0.00    -0.143 C  
HETATM   13  C   UNL     1      -6.835  14.150  69.169  1.00  0.00    -0.113 C  
BRANCH  13  14
HETATM   14  C   UNL     1      -6.350  12.931  68.506  1.00  0.00    -0.079 C  
HETATM   15  C   UNL     1      -6.562  12.754  67.180  1.00  0.00     0.044 C  
HETATM   16  C   UNL     1      -5.647  11.866  69.319  1.00  0.00    -0.059 C  
BRANCH  15  17
HETATM   17  C   UNL     1      -6.126  11.590  66.425  1.00  0.00    -0.022 C  
HETATM   18  C   UNL     1      -6.855  10.485  66.200  1.00  0.00    -0.131 C  
BRANCH  18  19
HETATM   19  C   UNL     1      -6.352   9.378  65.390  1.00  0.00    -0.066 C  
HETATM   20  C   UNL     1      -5.820   9.749  64.032  1.00  0.00    -0.108 C  
HETATM   21  C   UNL     1      -6.386   8.119  65.879  1.00  0.00    -0.045 C  
HETATM   22  C   UNL     1      -5.941   6.916  65.141  1.00  0.00    -0.036 C  
HETATM   23  O   UNL     1      -6.125   5.791  65.863  1.00  0.00    -0.027 OA 
HETATM   24  O   UNL     1      -5.474   6.903  64.015  1.00  0.00    -0.027 OA 
ENDBRANCH  18  19
ENDBRANCH  15  17
ENDBRANCH  13  14
ENDBRANCH   7  12
ENDBRANCH   2   3
TORSDOF 5
ENDMDL
MODEL      133
REMARK 921   NORMALIZED FREE ENERGY PREDICTED BY IDOCK:   37.24 KCAL/MOL
REMARK 922        TOTAL FREE ENERGY PREDICTED BY IDOCK:   47.34 KCAL/MOL
REMARK 923 INTER-LIGAND FREE ENERGY PREDICTED BY IDOCK:   47.40 KCAL/MOL
REMARK 924 INTRA-LIGAND FREE ENERGY PREDICTED BY IDOCK:   -0.06 KCAL/MOL
REMARK 927      BINDING AFFINITY PREDICTED BY RF-SCORE:    0.00 PKD
ROOT
HETATM    1  C   UNL     1     -10.530  20.815  73.449  1.00  0.00     8.341 C  
HETATM    2  O   UNL     1      -9.663  20.600  72.339  1.00  0.00     2.054 OA 
ENDROOT
BRANCH   2   3
HETATM    3  C   UNL     1      -9.759  19.369  71.741  1.00  0.00     3.767 A  
HETATM    4  C   UNL     1      -8.583  18.606  71.618  1.00  0.00     8.878 A  
HETATM    5  C   UNL     1      -7.279  19.148  72.154  1.00  0.00     3.773 C  
HETATM    6  C   UNL     1      -8.638  17.334  70.979  1.00  0.00     6.887 A  
HETATM    7  C   UNL     1      -9.872  16.851  70.456  1.00  0.00     2.020 A  
HETATM    8  C   UNL     1      -7.389  16.494  70.817  1.00  0.00     3.074 C  
HETATM    9  C   UNL     1     -10.953  18.892  71.202  1.00  0.00     3.816 A  
HETATM   10  C   UNL     1     -11.031  17.644  70.562  1.00  0.00     1.648 A  
HETATM   11  C   UNL     1     -12.380  17.273  70.006  1.00  0.00     5.082 C  
BRANCH   7  12
HETATM   12  C   UNL     1      -9.903  15.572  69.711  1.00  0.00    -0.268 C  
HETATM   13  C   UNL     1      -8.956  15.172  68.843  1.00  0.00    -0.206 C  
BRANCH  13  14
HETATM   14  C   UNL     1      -8.972  13.952  68.023  1.00  0.00    -0.184 C  
HETATM   15  C   UNL     1      -8.406  12.815  68.493  1.00  0.00    -0.054 C  
HETATM   16  C   UNL     1      -9.592  13.987  66.643  1.00  0.00    -0.299 C  
BRANCH  15  17
HETATM   17  C   UNL     1      -8.366  11.555  67.767  1.00  0.00    -0.136 C  
HETATM   18  C   UNL     1      -8.318  10.333  68.321  1.00  0.00    -0.116 C  
BRANCH  18  19
HETATM   19  C   UNL     1      -8.325   9.116  67.513  1.00  0.00    -0.116 C  
HETATM   20  C   UNL     1      -9.591   8.847  66.745  1.00  0.00    -0.262 C  
HETATM   21  C   UNL     1      -7.235   8.319  67.491  1.00  0.00    -0.088 C  
HETATM   22  C   UNL     1      -7.136   7.046  66.743  1.00  0.00    -0.082 C  
HETATM   23  O   UNL     1      -5.944   6.445  66.935  1.00  0.00    -0.023 OA 
HETATM   24  O   UNL     1      -8.008   6.563  66.041  1.00  0.00    -0.103 OA 
ENDBRANCH  18  19
ENDBRANCH  15  17
ENDBRANCH  13  14
ENDBRANCH   7  12
ENDBRANCH   2   3
TORSDOF 5
ENDMDL
