MODEL        1
REMARK 921   NORMALIZED FREE ENERGY PREDICTED BY IDOCK:   -7.25 KCAL/MOL
REMARK 922        TOTAL FREE ENERGY PREDICTED BY IDOCK:  -11.87 KCAL/MOL
REMARK 923 INTER-LIGAND FREE ENERGY PREDICTED BY IDOCK:  -10.22 KCAL/MOL
REMARK 924 INTRA-LIGAND FREE ENERGY PREDICTED BY IDOCK:   -1.65 KCAL/MOL
REMARK 927      BINDING AFFINITY PREDICTED BY RF-SCORE:    0.00 PKD
ROOT
HETATM    1  O   UNL     1      -8.455  16.477  65.489  1.00  0.00    -0.118 OA 
HETATM    2  C   UNL     1      -9.254  16.085  66.616  1.00  0.00    -0.249 C  
HETATM    3  H   UNL     1      -8.933  17.142  65.007  1.00  0.00     0.000 HD 
HETATM    4  C   UNL     1     -10.534  15.470  66.038  1.00  0.00    -0.323 A  
HETATM    5  C   UNL     1      -9.518  17.368  67.401  1.00  0.00    -0.246 A  
HETATM    6  C   UNL     1      -8.463  14.982  67.415  1.00  0.00    -0.184 C  
HETATM    7  C   UNL     1     -12.666  14.239  65.736  1.00  0.00    -0.340 A  
HETATM    8  C   UNL     1     -10.955  15.428  64.717  1.00  0.00    -0.411 A  
HETATM    9  C   UNL     1     -10.642  18.183  67.374  1.00  0.00    -0.406 A  
HETATM   10  O   UNL     1      -7.708  15.132  68.368  1.00  0.00    -0.111 OA 
HETATM   11  C   UNL     1     -12.172  14.712  64.543  1.00  0.00    -0.473 A  
HETATM   12  C   UNL     1     -10.516  19.348  68.182  1.00  0.00    -0.476 A  
HETATM   13  S   UNL     1      -8.287  18.107  68.359  1.00  0.00    -0.298 SA 
HETATM   14  C   UNL     1      -9.287  19.416  68.793  1.00  0.00    -0.387 A  
HETATM   15  S   UNL     1     -11.695  14.698  67.063  1.00  0.00    -0.321 SA 
ENDROOT
BRANCH   6  16
HETATM   16  O   UNL     1      -8.651  13.738  66.865  1.00  0.00    -0.196 OA 
BRANCH  16  17
HETATM   17  C   UNL     1      -8.510  12.595  67.726  1.00  0.00    -0.172 C  
HETATM   18  N   UNL     1     -10.354  10.848  68.109  1.00  0.00    -0.171 N  
HETATM   19  C   UNL     1      -9.790  12.257  68.535  1.00  0.00    -0.153 C  
HETATM   20  C   UNL     1      -9.253   9.806  68.366  1.00  0.00    -0.130 C  
HETATM   21  C   UNL     1     -10.654  10.914  66.606  1.00  0.00    -0.249 C  
HETATM   22  C   UNL     1      -7.960  10.186  67.662  1.00  0.00    -0.102 C  
HETATM   23  C   UNL     1      -9.349  11.156  65.844  1.00  0.00    -0.235 C  
HETATM   24  C   UNL     1      -8.170  11.420  66.800  1.00  0.00    -0.160 C  
BRANCH  18  25
HETATM   25  C   UNL     1     -11.648  10.609  68.943  1.00  0.00    -0.249 C  
BRANCH  25  26
HETATM   26  C   UNL     1     -11.516  10.563  70.474  1.00  0.00    -0.433 C  
BRANCH  26  27
HETATM   27  C   UNL     1     -12.449  11.516  71.209  1.00  0.00    -0.293 C  
BRANCH  27  28
HETATM   28  O   UNL     1     -12.575  12.766  70.547  1.00  0.00    -0.226 OA 
BRANCH  28  29
HETATM   29  C   UNL     1     -12.486  13.854  71.388  1.00  0.00    -0.340 A  
HETATM   30  C   UNL     1     -11.759  14.924  70.879  1.00  0.00    -0.374 A  
HETATM   31  C   UNL     1     -11.559  16.077  71.645  1.00  0.00    -0.538 A  
HETATM   32  C   UNL     1     -12.107  16.172  72.923  1.00  0.00    -0.643 A  
HETATM   33  C   UNL     1     -12.865  15.126  73.428  1.00  0.00    -0.661 A  
HETATM   34  C   UNL     1     -13.060  13.972  72.662  1.00  0.00    -0.553 A  
ENDBRANCH  28  29
ENDBRANCH  27  28
ENDBRANCH  26  27
ENDBRANCH  25  26
ENDBRANCH  18  25
ENDBRANCH  16  17
ENDBRANCH   6  16
TORSDOF 7
ENDMDL
MODEL        2
REMARK 921   NORMALIZED FREE ENERGY PREDICTED BY IDOCK:   -7.13 KCAL/MOL
REMARK 922        TOTAL FREE ENERGY PREDICTED BY IDOCK:  -11.70 KCAL/MOL
REMARK 923 INTER-LIGAND FREE ENERGY PREDICTED BY IDOCK:  -10.25 KCAL/MOL
REMARK 924 INTRA-LIGAND FREE ENERGY PREDICTED BY IDOCK:   -1.46 KCAL/MOL
REMARK 927      BINDING AFFINITY PREDICTED BY RF-SCORE:    0.00 PKD
ROOT
HETATM    1  O   UNL     1     -10.775   8.423  67.633  1.00  0.00    -0.429 OA 
HETATM    2  C   UNL     1     -10.358   9.645  68.262  1.00  0.00    -0.204 C  
HETATM    3  H   UNL     1     -10.136   7.752  67.840  1.00  0.00     0.000 HD 
HETATM    4  C   UNL     1      -9.012  10.013  67.627  1.00  0.00    -0.131 A  
HETATM    5  C   UNL     1     -10.241   9.323  69.750  1.00  0.00    -0.211 A  
HETATM    6  C   UNL     1     -11.418  10.758  67.916  1.00  0.00    -0.227 C  
HETATM    7  C   UNL     1      -6.972  11.211  66.882  1.00  0.00    -0.131 A  
HETATM    8  C   UNL     1      -8.237   9.271  66.748  1.00  0.00    -0.115 A  
HETATM    9  C   UNL     1      -9.102   9.007  70.479  1.00  0.00    -0.259 A  
HETATM   10  O   UNL     1     -12.400  11.097  68.565  1.00  0.00    -0.561 OA 
HETATM   11  C   UNL     1      -7.073   9.964  66.312  1.00  0.00    -0.101 A  
HETATM   12  C   UNL     1      -9.373   8.688  71.840  1.00  0.00    -0.357 A  
HETATM   13  S   UNL     1     -11.639   9.131  70.743  1.00  0.00    -0.257 SA 
HETATM   14  C   UNL     1     -10.717   8.740  72.121  1.00  0.00    -0.313 A  
HETATM   15  S   UNL     1      -8.246  11.525  67.975  1.00  0.00    -0.151 SA 
ENDROOT
BRANCH   6  16
HETATM   16  O   UNL     1     -11.167  11.319  66.689  1.00  0.00    -0.284 OA 
BRANCH  16  17
HETATM   17  C   UNL     1     -11.937  12.472  66.308  1.00  0.00    -0.343 C  
HETATM   18  N   UNL     1     -11.026  14.874  66.307  1.00  0.00    -0.335 N  
HETATM   19  C   UNL     1     -11.663  13.726  67.179  1.00  0.00    -0.385 C  
HETATM   20  C   UNL     1     -12.009  15.200  65.171  1.00  0.00    -0.051 C  
HETATM   21  C   UNL     1      -9.723  14.322  65.712  1.00  0.00    -0.234 C  
HETATM   22  C   UNL     1     -12.367  13.955  64.376  1.00  0.00    -0.400 C  
HETATM   23  C   UNL     1     -10.052  13.148  64.788  1.00  0.00    -0.244 C  
HETATM   24  C   UNL     1     -11.545  12.769  64.854  1.00  0.00    -0.369 C  
BRANCH  18  25
HETATM   25  C   UNL     1     -10.756  16.072  67.265  1.00  0.00    -0.295 C  
BRANCH  25  26
HETATM   26  C   UNL     1      -9.533  15.986  68.194  1.00  0.00    -0.208 C  
BRANCH  26  27
HETATM   27  C   UNL     1      -9.875  15.720  69.653  1.00  0.00    -0.275 C  
BRANCH  27  28
HETATM   28  O   UNL     1     -11.083  16.354  70.049  1.00  0.00    -0.350 OA 
BRANCH  28  29
HETATM   29  C   UNL     1     -11.819  15.630  70.962  1.00  0.00    -0.400 A  
HETATM   30  C   UNL     1     -12.021  16.267  72.181  1.00  0.00    -0.575 A  
HETATM   31  C   UNL     1     -12.718  15.628  73.211  1.00  0.00    -0.626 A  
HETATM   32  C   UNL     1     -13.239  14.350  73.017  1.00  0.00    -0.547 A  
HETATM   33  C   UNL     1     -13.076  13.719  71.792  1.00  0.00    -0.463 A  
HETATM   34  C   UNL     1     -12.374  14.357  70.765  1.00  0.00    -0.417 A  
ENDBRANCH  28  29
ENDBRANCH  27  28
ENDBRANCH  26  27
ENDBRANCH  25  26
ENDBRANCH  18  25
ENDBRANCH  16  17
ENDBRANCH   6  16
TORSDOF 7
ENDMDL
MODEL        3
REMARK 921   NORMALIZED FREE ENERGY PREDICTED BY IDOCK:   -7.07 KCAL/MOL
REMARK 922        TOTAL FREE ENERGY PREDICTED BY IDOCK:  -11.61 KCAL/MOL
REMARK 923 INTER-LIGAND FREE ENERGY PREDICTED BY IDOCK:   -9.92 KCAL/MOL
REMARK 924 INTRA-LIGAND FREE ENERGY PREDICTED BY IDOCK:   -1.69 KCAL/MOL
REMARK 927      BINDING AFFINITY PREDICTED BY RF-SCORE:    0.00 PKD
ROOT
HETATM    1  O   UNL     1     -11.012   7.897  68.240  1.00  0.00    -0.428 OA 
HETATM    2  C   UNL     1     -10.442   8.458  69.432  1.00  0.00    -0.217 C  
HETATM    3  H   UNL     1     -10.607   7.050  68.091  1.00  0.00     0.000 HD 
HETATM    4  C   UNL     1      -8.950   8.655  69.139  1.00  0.00    -0.142 A  
HETATM    5  C   UNL     1     -10.697   7.433  70.534  1.00  0.00    -0.233 A  
HETATM    6  C   UNL     1     -11.112   9.862  69.679  1.00  0.00    -0.241 C  
HETATM    7  C   UNL     1      -6.575   9.370  69.216  1.00  0.00    -0.048 A  
HETATM    8  C   UNL     1      -8.222   8.241  68.033  1.00  0.00    -0.128 A  
HETATM    9  C   UNL     1      -9.832   6.468  71.035  1.00  0.00    -0.196 A  
HETATM   10  O   UNL     1     -12.090  10.123  70.370  1.00  0.00    -0.272 OA 
HETATM   11  C   UNL     1      -6.863   8.661  68.072  1.00  0.00    -0.070 A  
HETATM   12  C   UNL     1     -10.430   5.626  72.014  1.00  0.00    -0.270 A  
HETATM   13  S   UNL     1     -12.265   7.221  71.222  1.00  0.00    -0.359 SA 
HETATM   14  C   UNL     1     -11.750   5.944  72.226  1.00  0.00    -0.252 A  
HETATM   15  S   UNL     1      -7.923   9.484  70.258  1.00  0.00    -0.181 SA 
ENDROOT
BRANCH   6  16
HETATM   16  O   UNL     1     -10.500  10.843  68.940  1.00  0.00    -0.185 OA 
BRANCH  16  17
HETATM   17  C   UNL     1     -11.222  11.393  67.825  1.00  0.00    -0.283 C  
HETATM   18  N   UNL     1     -10.754  13.706  66.809  1.00  0.00    -0.272 N  
HETATM   19  C   UNL     1     -11.503  12.914  67.948  1.00  0.00    -0.318 C  
HETATM   20  C   UNL     1     -11.251  13.165  65.459  1.00  0.00    -0.281 C  
HETATM   21  C   UNL     1      -9.256  13.409  66.959  1.00  0.00    -0.242 C  
HETATM   22  C   UNL     1     -11.077  11.658  65.371  1.00  0.00    -0.299 C  
HETATM   23  C   UNL     1      -9.017  11.914  66.737  1.00  0.00    -0.196 C  
HETATM   24  C   UNL     1     -10.340  11.138  66.595  1.00  0.00    -0.286 C  
BRANCH  18  25
HETATM   25  C   UNL     1     -11.064  15.216  67.031  1.00  0.00    -0.328 C  
BRANCH  25  26
HETATM   26  C   UNL     1     -10.156  16.001  67.992  1.00  0.00    -0.240 C  
BRANCH  26  27
HETATM   27  C   UNL     1     -10.811  16.359  69.318  1.00  0.00    -0.327 C  
BRANCH  27  28
HETATM   28  O   UNL     1     -12.111  15.801  69.447  1.00  0.00    -0.354 OA 
BRANCH  28  29
HETATM   29  C   UNL     1     -12.431  15.422  70.732  1.00  0.00    -0.423 A  
HETATM   30  C   UNL     1     -11.859  16.206  71.728  1.00  0.00    -0.581 A  
HETATM   31  C   UNL     1     -12.070  15.908  73.077  1.00  0.00    -0.615 A  
HETATM   32  C   UNL     1     -12.877  14.831  73.439  1.00  0.00    -0.597 A  
HETATM   33  C   UNL     1     -13.483  14.062  72.455  1.00  0.00    -0.639 A  
HETATM   34  C   UNL     1     -13.266  14.359  71.106  1.00  0.00    -0.414 A  
ENDBRANCH  28  29
ENDBRANCH  27  28
ENDBRANCH  26  27
ENDBRANCH  25  26
ENDBRANCH  18  25
ENDBRANCH  16  17
ENDBRANCH   6  16
TORSDOF 7
ENDMDL
MODEL        4
REMARK 921   NORMALIZED FREE ENERGY PREDICTED BY IDOCK:   -6.83 KCAL/MOL
REMARK 922        TOTAL FREE ENERGY PREDICTED BY IDOCK:  -11.28 KCAL/MOL
REMARK 923 INTER-LIGAND FREE ENERGY PREDICTED BY IDOCK:   -9.55 KCAL/MOL
REMARK 924 INTRA-LIGAND FREE ENERGY PREDICTED BY IDOCK:   -1.72 KCAL/MOL
REMARK 927      BINDING AFFINITY PREDICTED BY RF-SCORE:    0.00 PKD
ROOT
HETATM    1  O   UNL     1     -10.745  17.641  68.330  1.00  0.00    -0.360 OA 
HETATM    2  C   UNL     1      -9.700  17.289  67.412  1.00  0.00    -0.258 C  
HETATM    3  H   UNL     1     -10.341  17.941  69.136  1.00  0.00     0.000 HD 
HETATM    4  C   UNL     1      -8.937  16.127  68.059  1.00  0.00    -0.185 A  
HETATM    5  C   UNL     1      -8.844  18.545  67.259  1.00  0.00    -0.270 A  
HETATM    6  C   UNL     1     -10.370  16.790  66.077  1.00  0.00    -0.335 C  
HETATM    7  C   UNL     1      -7.463  14.175  68.476  1.00  0.00    -0.123 A  
HETATM    8  C   UNL     1      -9.081  15.600  69.334  1.00  0.00    -0.278 A  
HETATM    9  C   UNL     1      -7.652  18.862  67.898  1.00  0.00    -0.283 A  
HETATM   10  O   UNL     1     -10.637  17.441  65.074  1.00  0.00    -0.617 OA 
HETATM   11  C   UNL     1      -8.244  14.474  69.568  1.00  0.00     0.220 A  
HETATM   12  C   UNL     1      -7.165  20.159  67.572  1.00  0.00    -0.320 A  
HETATM   13  S   UNL     1      -9.386  19.896  66.334  1.00  0.00    -0.388 SA 
HETATM   14  C   UNL     1      -8.005  20.821  66.710  1.00  0.00    -0.030 A  
HETATM   15  S   UNL     1      -7.703  15.278  67.194  1.00  0.00    -0.162 SA 
ENDROOT
BRANCH   6  16
HETATM   16  O   UNL     1     -10.723  15.466  66.162  1.00  0.00    -0.304 OA 
BRANCH  16  17
HETATM   17  C   UNL     1     -10.704  14.687  64.954  1.00  0.00    -0.427 C  
HETATM   18  N   UNL     1     -10.896  12.126  64.891  1.00  0.00    -0.297 N  
HETATM   19  C   UNL     1      -9.924  13.353  65.079  1.00  0.00    -0.155 C  
HETATM   20  C   UNL     1     -11.545  12.252  63.503  1.00  0.00    -0.486 C  
HETATM   21  C   UNL     1     -11.978  12.234  65.973  1.00  0.00    -0.269 C  
HETATM   22  C   UNL     1     -12.223  13.602  63.332  1.00  0.00    -0.236 C  
HETATM   23  C   UNL     1     -12.781  13.518  65.752  1.00  0.00    -0.433 C  
HETATM   24  C   UNL     1     -12.175  14.386  64.633  1.00  0.00    -0.479 C  
BRANCH  18  25
HETATM   25  C   UNL     1     -10.037  10.838  65.066  1.00  0.00    -0.313 C  
BRANCH  25  26
HETATM   26  C   UNL     1     -10.181  10.053  66.380  1.00  0.00    -0.290 C  
BRANCH  26  27
HETATM   27  C   UNL     1      -9.044  10.276  67.367  1.00  0.00    -0.138 C  
BRANCH  27  28
HETATM   28  O   UNL     1      -9.333  11.309  68.299  1.00  0.00    -0.166 OA 
BRANCH  28  29
HETATM   29  C   UNL     1     -10.223  10.939  69.283  1.00  0.00    -0.166 A  
HETATM   30  C   UNL     1     -11.299  11.804  69.448  1.00  0.00    -0.337 A  
HETATM   31  C   UNL     1     -12.257  11.567  70.439  1.00  0.00    -0.442 A  
HETATM   32  C   UNL     1     -12.154  10.446  71.259  1.00  0.00    -0.461 A  
HETATM   33  C   UNL     1     -11.104   9.555  71.080  1.00  0.00    -0.450 A  
HETATM   34  C   UNL     1     -10.145   9.796  70.093  1.00  0.00    -0.317 A  
ENDBRANCH  28  29
ENDBRANCH  27  28
ENDBRANCH  26  27
ENDBRANCH  25  26
ENDBRANCH  18  25
ENDBRANCH  16  17
ENDBRANCH   6  16
TORSDOF 7
ENDMDL
MODEL        5
REMARK 921   NORMALIZED FREE ENERGY PREDICTED BY IDOCK:   -6.80 KCAL/MOL
REMARK 922        TOTAL FREE ENERGY PREDICTED BY IDOCK:  -11.23 KCAL/MOL
REMARK 923 INTER-LIGAND FREE ENERGY PREDICTED BY IDOCK:   -9.89 KCAL/MOL
REMARK 924 INTRA-LIGAND FREE ENERGY PREDICTED BY IDOCK:   -1.35 KCAL/MOL
REMARK 927      BINDING AFFINITY PREDICTED BY RF-SCORE:    0.00 PKD
ROOT
HETATM    1  O   UNL     1     -11.390   9.486  68.100  1.00  0.00    -0.510 OA 
HETATM    2  C   UNL     1     -10.531  10.205  68.998  1.00  0.00    -0.219 C  
HETATM    3  H   UNL     1     -11.052   8.603  68.012  1.00  0.00     0.000 HD 
HETATM    4  C   UNL     1      -9.156  10.256  68.322  1.00  0.00    -0.139 A  
HETATM    5  C   UNL     1     -10.523   9.399  70.295  1.00  0.00    -0.251 A  
HETATM    6  C   UNL     1     -11.093  11.669  69.144  1.00  0.00    -0.245 C  
HETATM    7  C   UNL     1      -6.824  10.823  67.693  1.00  0.00    -0.073 A  
HETATM    8  C   UNL     1      -8.734   9.615  67.167  1.00  0.00    -0.137 A  
HETATM    9  C   UNL     1      -9.578   8.480  70.736  1.00  0.00    -0.217 A  
HETATM   10  O   UNL     1     -11.863  12.104  69.992  1.00  0.00    -0.328 OA 
HETATM   11  C   UNL     1      -7.401   9.951  66.800  1.00  0.00    -0.095 A  
HETATM   12  C   UNL     1      -9.930   7.855  71.966  1.00  0.00    -0.251 A  
HETATM   13  S   UNL     1     -11.874   9.405  71.368  1.00  0.00    -0.400 SA 
HETATM   14  C   UNL     1     -11.149   8.287  72.430  1.00  0.00    -0.377 A  
HETATM   15  S   UNL     1      -7.867  11.196  68.993  1.00  0.00    -0.059 SA 
ENDROOT
BRANCH   6  16
HETATM   16  O   UNL     1     -10.665  12.470  68.114  1.00  0.00    -0.212 OA 
BRANCH  16  17
HETATM   17  C   UNL     1     -11.664  13.080  67.279  1.00  0.00    -0.375 C  
HETATM   18  N   UNL     1     -11.143  14.765  65.410  1.00  0.00    -0.340 N  
HETATM   19  C   UNL     1     -11.387  14.572  66.956  1.00  0.00    -0.349 C  
HETATM   20  C   UNL     1     -12.398  14.269  64.674  1.00  0.00    -0.415 C  
HETATM   21  C   UNL     1      -9.945  13.886  65.027  1.00  0.00    -0.181 C  
HETATM   22  C   UNL     1     -12.740  12.840  65.066  1.00  0.00    -0.455 C  
HETATM   23  C   UNL     1     -10.299  12.418  65.275  1.00  0.00    -0.308 C  
HETATM   24  C   UNL     1     -11.664  12.270  65.975  1.00  0.00    -0.451 C  
BRANCH  18  25
HETATM   25  C   UNL     1     -10.841  16.276  65.186  1.00  0.00    -0.318 C  
BRANCH  25  26
HETATM   26  C   UNL     1     -10.502  17.130  66.418  1.00  0.00    -0.255 C  
BRANCH  26  27
HETATM   27  C   UNL     1     -10.365  18.618  66.127  1.00  0.00    -0.443 C  
BRANCH  27  28
HETATM   28  O   UNL     1     -10.225  19.390  67.311  1.00  0.00    -0.360 OA 
BRANCH  28  29
HETATM   29  C   UNL     1      -8.927  19.761  67.585  1.00  0.00    -0.329 A  
HETATM   30  C   UNL     1      -8.366  19.137  68.693  1.00  0.00    -0.403 A  
HETATM   31  C   UNL     1      -7.067  19.451  69.105  1.00  0.00    -0.384 A  
HETATM   32  C   UNL     1      -6.312  20.381  68.393  1.00  0.00    -0.350 A  
HETATM   33  C   UNL     1      -6.848  20.984  67.263  1.00  0.00    -0.434 A  
HETATM   34  C   UNL     1      -8.148  20.672  66.856  1.00  0.00    -0.225 A  
ENDBRANCH  28  29
ENDBRANCH  27  28
ENDBRANCH  26  27
ENDBRANCH  25  26
ENDBRANCH  18  25
ENDBRANCH  16  17
ENDBRANCH   6  16
TORSDOF 7
ENDMDL
MODEL        6
REMARK 921   NORMALIZED FREE ENERGY PREDICTED BY IDOCK:   -6.66 KCAL/MOL
REMARK 922        TOTAL FREE ENERGY PREDICTED BY IDOCK:  -11.03 KCAL/MOL
REMARK 923 INTER-LIGAND FREE ENERGY PREDICTED BY IDOCK:   -9.05 KCAL/MOL
REMARK 924 INTRA-LIGAND FREE ENERGY PREDICTED BY IDOCK:   -1.98 KCAL/MOL
REMARK 927      BINDING AFFINITY PREDICTED BY RF-SCORE:    0.00 PKD
ROOT
HETATM    1  O   UNL     1     -11.185  16.269  66.398  1.00  0.00     0.039 OA 
HETATM    2  C   UNL     1     -10.216  16.268  67.457  1.00  0.00    -0.270 C  
HETATM    3  H   UNL     1     -11.896  16.847  66.650  1.00  0.00     0.000 HD 
HETATM    4  C   UNL     1     -10.928  15.691  68.687  1.00  0.00    -0.294 A  
HETATM    5  C   UNL     1      -9.807  17.728  67.642  1.00  0.00    -0.299 A  
HETATM    6  C   UNL     1      -9.039  15.309  67.041  1.00  0.00    -0.225 C  
HETATM    7  C   UNL     1     -11.441  14.695  70.900  1.00  0.00    -0.165 A  
HETATM    8  C   UNL     1     -12.269  15.377  68.842  1.00  0.00    -0.118 A  
HETATM    9  C   UNL     1     -10.267  18.643  68.581  1.00  0.00    -0.359 A  
HETATM   10  O   UNL     1      -7.992  15.596  66.472  1.00  0.00    -0.223 OA 
HETATM   11  C   UNL     1     -12.561  14.795  70.108  1.00  0.00    -0.319 A  
HETATM   12  C   UNL     1      -9.720  19.946  68.415  1.00  0.00    -0.446 A  
HETATM   13  S   UNL     1      -8.773  18.524  66.513  1.00  0.00    -0.265 SA 
HETATM   14  C   UNL     1      -8.872  20.012  67.336  1.00  0.00    -0.346 A  
HETATM   15  S   UNL     1     -10.056  15.346  70.141  1.00  0.00     0.014 SA 
ENDROOT
BRANCH   6  16
HETATM   16  O   UNL     1      -9.337  14.000  67.331  1.00  0.00    -0.205 OA 
BRANCH  16  17
HETATM   17  C   UNL     1      -9.245  13.039  66.267  1.00  0.00    -0.065 C  
HETATM   18  N   UNL     1      -9.958  10.580  66.484  1.00  0.00    -0.207 N  
HETATM   19  C   UNL     1      -8.805  11.626  66.733  1.00  0.00    -0.184 C  
HETATM   20  C   UNL     1     -10.278  10.585  64.981  1.00  0.00    -0.295 C  
HETATM   21  C   UNL     1     -11.185  11.062  67.269  1.00  0.00    -0.258 C  
HETATM   22  C   UNL     1     -10.607  11.986  64.491  1.00  0.00    -0.356 C  
HETATM   23  C   UNL     1     -11.638  12.413  66.712  1.00  0.00    -0.444 C  
HETATM   24  C   UNL     1     -10.652  12.957  65.660  1.00  0.00    -0.295 C  
BRANCH  18  25
HETATM   25  C   UNL     1      -9.443   9.207  67.011  1.00  0.00    -0.154 C  
BRANCH  25  26
HETATM   26  C   UNL     1     -10.203   8.556  68.178  1.00  0.00    -0.254 C  
BRANCH  26  27
HETATM   27  C   UNL     1      -9.421   8.513  69.484  1.00  0.00    -0.165 C  
BRANCH  27  28
HETATM   28  O   UNL     1      -9.615   9.681  70.269  1.00  0.00    -0.241 OA 
BRANCH  28  29
HETATM   29  C   UNL     1     -10.864   9.763  70.846  1.00  0.00    -0.328 A  
HETATM   30  C   UNL     1     -11.202   8.684  71.655  1.00  0.00    -0.379 A  
HETATM   31  C   UNL     1     -12.456   8.622  72.270  1.00  0.00    -0.460 A  
HETATM   32  C   UNL     1     -13.374   9.657  72.097  1.00  0.00    -0.545 A  
HETATM   33  C   UNL     1     -13.033  10.757  71.321  1.00  0.00    -0.502 A  
HETATM   34  C   UNL     1     -11.781  10.814  70.702  1.00  0.00    -0.442 A  
ENDBRANCH  28  29
ENDBRANCH  27  28
ENDBRANCH  26  27
ENDBRANCH  25  26
ENDBRANCH  18  25
ENDBRANCH  16  17
ENDBRANCH   6  16
TORSDOF 7
ENDMDL
MODEL        7
REMARK 921   NORMALIZED FREE ENERGY PREDICTED BY IDOCK:   -6.59 KCAL/MOL
REMARK 922        TOTAL FREE ENERGY PREDICTED BY IDOCK:  -10.93 KCAL/MOL
REMARK 923 INTER-LIGAND FREE ENERGY PREDICTED BY IDOCK:   -9.69 KCAL/MOL
REMARK 924 INTRA-LIGAND FREE ENERGY PREDICTED BY IDOCK:   -1.24 KCAL/MOL
REMARK 927      BINDING AFFINITY PREDICTED BY RF-SCORE:    0.00 PKD
ROOT
HETATM    1  O   UNL     1     -10.939   7.353  68.427  1.00  0.00    -0.423 OA 
HETATM    2  C   UNL     1     -10.368   8.016  69.565  1.00  0.00    -0.221 C  
HETATM    3  H   UNL     1     -10.546   6.490  68.360  1.00  0.00     0.000 HD 
HETATM    4  C   UNL     1      -8.872   8.164  69.265  1.00  0.00    -0.144 A  
HETATM    5  C   UNL     1     -10.644   7.101  70.756  1.00  0.00    -0.222 A  
HETATM    6  C   UNL     1     -11.020   9.445  69.675  1.00  0.00    -0.197 C  
HETATM    7  C   UNL     1      -6.488   8.851  69.291  1.00  0.00    -0.042 A  
HETATM    8  C   UNL     1      -8.144   7.638  68.208  1.00  0.00    -0.124 A  
HETATM    9  C   UNL     1      -9.795   6.176  71.351  1.00  0.00    -0.200 A  
HETATM   10  O   UNL     1     -11.998   9.783  70.331  1.00  0.00    -0.235 OA 
HETATM   11  C   UNL     1      -6.779   8.042  68.217  1.00  0.00    -0.067 A  
HETATM   12  C   UNL     1     -10.411   5.438  72.401  1.00  0.00    -0.267 A  
HETATM   13  S   UNL     1     -12.219   6.976  71.450  1.00  0.00    -0.380 SA 
HETATM   14  C   UNL     1     -11.727   5.793  72.573  1.00  0.00    -0.225 A  
HETATM   15  S   UNL     1      -7.840   9.081  70.309  1.00  0.00    -0.127 SA 
ENDROOT
BRANCH   6  16
HETATM   16  O   UNL     1     -10.389  10.344  68.851  1.00  0.00    -0.186 OA 
BRANCH  16  17
HETATM   17  C   UNL     1     -10.967  10.590  67.558  1.00  0.00    -0.303 C  
HETATM   18  N   UNL     1     -10.917  12.867  66.369  1.00  0.00    -0.280 N  
HETATM   19  C   UNL     1     -11.661  11.971  67.432  1.00  0.00    -0.281 C  
HETATM   20  C   UNL     1     -10.942  12.118  65.027  1.00  0.00    -0.309 C  
HETATM   21  C   UNL     1      -9.465  13.021  66.842  1.00  0.00    -0.242 C  
HETATM   22  C   UNL     1     -10.360  10.721  65.164  1.00  0.00    -0.341 C  
HETATM   23  C   UNL     1      -8.796  11.645  66.860  1.00  0.00    -0.190 C  
HETATM   24  C   UNL     1      -9.801  10.516  66.562  1.00  0.00    -0.255 C  
BRANCH  18  25
HETATM   25  C   UNL     1     -11.658  14.237  66.336  1.00  0.00    -0.372 C  
BRANCH  25  26
HETATM   26  C   UNL     1     -11.393  15.166  65.140  1.00  0.00    -0.357 C  
BRANCH  26  27
HETATM   27  C   UNL     1     -10.316  16.213  65.389  1.00  0.00    -0.330 C  
BRANCH  27  28
HETATM   28  O   UNL     1     -10.783  17.534  65.158  1.00  0.00    -0.673 OA 
BRANCH  28  29
HETATM   29  C   UNL     1     -10.488  18.415  66.176  1.00  0.00    -0.395 A  
HETATM   30  C   UNL     1     -10.555  17.870  67.453  1.00  0.00    -0.370 A  
HETATM   31  C   UNL     1     -10.318  18.665  68.579  1.00  0.00    -0.311 A  
HETATM   32  C   UNL     1      -9.988  20.011  68.430  1.00  0.00    -0.481 A  
HETATM   33  C   UNL     1      -9.881  20.557  67.158  1.00  0.00    -0.567 A  
HETATM   34  C   UNL     1     -10.125  19.763  66.034  1.00  0.00    -0.574 A  
ENDBRANCH  28  29
ENDBRANCH  27  28
ENDBRANCH  26  27
ENDBRANCH  25  26
ENDBRANCH  18  25
ENDBRANCH  16  17
ENDBRANCH   6  16
TORSDOF 7
ENDMDL
MODEL        8
REMARK 921   NORMALIZED FREE ENERGY PREDICTED BY IDOCK:   -6.57 KCAL/MOL
REMARK 922        TOTAL FREE ENERGY PREDICTED BY IDOCK:  -10.90 KCAL/MOL
REMARK 923 INTER-LIGAND FREE ENERGY PREDICTED BY IDOCK:   -8.93 KCAL/MOL
REMARK 924 INTRA-LIGAND FREE ENERGY PREDICTED BY IDOCK:   -1.98 KCAL/MOL
REMARK 927      BINDING AFFINITY PREDICTED BY RF-SCORE:    0.00 PKD
ROOT
HETATM    1  O   UNL     1      -8.275  15.277  66.084  1.00  0.00    -0.273 OA 
HETATM    2  C   UNL     1      -9.441  15.241  66.919  1.00  0.00    -0.234 C  
HETATM    3  H   UNL     1      -8.459  15.844  65.344  1.00  0.00     0.000 HD 
HETATM    4  C   UNL     1     -10.556  14.618  66.070  1.00  0.00    -0.309 A  
HETATM    5  C   UNL     1      -9.725  16.694  67.293  1.00  0.00    -0.245 A  
HETATM    6  C   UNL     1      -9.136  14.301  68.145  1.00  0.00    -0.193 C  
HETATM    7  C   UNL     1     -12.655  13.543  65.302  1.00  0.00    -0.468 A  
HETATM    8  C   UNL     1     -10.538  14.295  64.721  1.00  0.00    -0.434 A  
HETATM    9  C   UNL     1     -10.634  17.573  66.718  1.00  0.00    -0.201 A  
HETATM   10  O   UNL     1      -8.707  14.611  69.250  1.00  0.00    -0.092 OA 
HETATM   11  C   UNL     1     -11.738  13.667  64.285  1.00  0.00    -0.438 A  
HETATM   12  C   UNL     1     -10.580  18.884  67.271  1.00  0.00    -0.529 A  
HETATM   13  S   UNL     1      -8.757  17.533  68.450  1.00  0.00    -0.278 SA 
HETATM   14  C   UNL     1      -9.614  18.991  68.242  1.00  0.00    -0.355 A  
HETATM   15  S   UNL     1     -12.091  14.224  66.763  1.00  0.00    -0.341 SA 
ENDROOT
BRANCH   6  16
HETATM   16  O   UNL     1      -9.342  12.982  67.823  1.00  0.00    -0.185 OA 
BRANCH  16  17
HETATM   17  C   UNL     1      -8.191  12.124  67.734  1.00  0.00    -0.154 C  
HETATM   18  N   UNL     1      -8.233   9.605  68.237  1.00  0.00    -0.105 N  
HETATM   19  C   UNL     1      -8.119  11.052  68.853  1.00  0.00    -0.135 C  
HETATM   20  C   UNL     1      -7.079   9.431  67.237  1.00  0.00    -0.086 C  
HETATM   21  C   UNL     1      -9.572   9.533  67.491  1.00  0.00    -0.144 C  
HETATM   22  C   UNL     1      -7.078  10.540  66.197  1.00  0.00    -0.135 C  
HETATM   23  C   UNL     1      -9.559  10.542  66.340  1.00  0.00    -0.220 C  
HETATM   24  C   UNL     1      -8.299  11.428  66.371  1.00  0.00    -0.140 C  
BRANCH  18  25
HETATM   25  C   UNL     1      -8.186   8.603  69.428  1.00  0.00    -0.113 C  
BRANCH  25  26
HETATM   26  C   UNL     1      -9.504   7.940  69.860  1.00  0.00    -0.160 C  
BRANCH  26  27
HETATM   27  C   UNL     1     -10.232   8.670  70.980  1.00  0.00    -0.220 C  
BRANCH  27  28
HETATM   28  O   UNL     1     -11.607   8.875  70.687  1.00  0.00    -0.271 OA 
BRANCH  28  29
HETATM   29  C   UNL     1     -12.030  10.173  70.877  1.00  0.00    -0.365 A  
HETATM   30  C   UNL     1     -11.501  11.094  69.980  1.00  0.00    -0.376 A  
HETATM   31  C   UNL     1     -11.818  12.451  70.085  1.00  0.00    -0.341 A  
HETATM   32  C   UNL     1     -12.687  12.893  71.081  1.00  0.00    -0.366 A  
HETATM   33  C   UNL     1     -13.251  11.978  71.959  1.00  0.00    -0.481 A  
HETATM   34  C   UNL     1     -12.929  10.622  71.856  1.00  0.00    -0.542 A  
ENDBRANCH  28  29
ENDBRANCH  27  28
ENDBRANCH  26  27
ENDBRANCH  25  26
ENDBRANCH  18  25
ENDBRANCH  16  17
ENDBRANCH   6  16
TORSDOF 7
ENDMDL
MODEL        9
REMARK 921   NORMALIZED FREE ENERGY PREDICTED BY IDOCK:   -6.50 KCAL/MOL
REMARK 922        TOTAL FREE ENERGY PREDICTED BY IDOCK:  -10.81 KCAL/MOL
REMARK 923 INTER-LIGAND FREE ENERGY PREDICTED BY IDOCK:   -9.42 KCAL/MOL
REMARK 924 INTRA-LIGAND FREE ENERGY PREDICTED BY IDOCK:   -1.39 KCAL/MOL
REMARK 927      BINDING AFFINITY PREDICTED BY RF-SCORE:    0.00 PKD
ROOT
HETATM    1  O   UNL     1      -8.725  13.592  66.313  1.00  0.00    -0.427 OA 
HETATM    2  C   UNL     1     -10.132  13.845  66.444  1.00  0.00    -0.295 C  
HETATM    3  H   UNL     1      -8.426  14.000  65.509  1.00  0.00     0.000 HD 
HETATM    4  C   UNL     1     -10.802  13.156  65.250  1.00  0.00    -0.297 A  
HETATM    5  C   UNL     1     -10.284  15.364  66.412  1.00  0.00    -0.286 A  
HETATM    6  C   UNL     1     -10.627  13.169  67.778  1.00  0.00    -0.234 C  
HETATM    7  C   UNL     1     -12.442  12.133  63.695  1.00  0.00    -0.549 A  
HETATM    8  C   UNL     1     -10.206  12.547  64.155  1.00  0.00    -0.376 A  
HETATM    9  C   UNL     1     -10.628  16.176  65.338  1.00  0.00    -0.399 A  
HETATM   10  O   UNL     1     -10.726  13.671  68.891  1.00  0.00    -0.245 OA 
HETATM   11  C   UNL     1     -11.147  11.950  63.270  1.00  0.00    -0.390 A  
HETATM   12  C   UNL     1     -10.601  17.565  65.649  1.00  0.00    -0.144 A  
HETATM   13  S   UNL     1      -9.846  16.342  67.763  1.00  0.00    -0.242 SA 
HETATM   14  C   UNL     1     -10.212  17.792  66.947  1.00  0.00    -0.346 A  
HETATM   15  S   UNL     1     -12.525  13.061  65.126  1.00  0.00    -0.469 SA 
ENDROOT
BRANCH   6  16
HETATM   16  O   UNL     1     -10.897  11.836  67.590  1.00  0.00    -0.199 OA 
BRANCH  16  17
HETATM   17  C   UNL     1     -10.318  10.897  68.511  1.00  0.00    -0.187 C  
HETATM   18  N   UNL     1     -10.044   8.388  68.027  1.00  0.00    -0.191 N  
HETATM   19  C   UNL     1     -11.025   9.516  68.528  1.00  0.00    -0.065 C  
HETATM   20  C   UNL     1      -8.819   8.388  68.955  1.00  0.00    -0.146 C  
HETATM   21  C   UNL     1      -9.607   8.766  66.605  1.00  0.00    -0.220 C  
HETATM   22  C   UNL     1      -8.181   9.765  69.028  1.00  0.00    -0.121 C  
HETATM   23  C   UNL     1      -8.834  10.086  66.652  1.00  0.00    -0.145 C  
HETATM   24  C   UNL     1      -8.863  10.715  68.058  1.00  0.00    -0.130 C  
BRANCH  18  25
HETATM   25  C   UNL     1     -10.845   7.053  68.045  1.00  0.00    -0.163 C  
BRANCH  25  26
HETATM   26  C   UNL     1     -10.251   5.871  68.830  1.00  0.00    -0.254 C  
BRANCH  26  27
HETATM   27  C   UNL     1     -10.834   5.694  70.225  1.00  0.00    -0.266 C  
BRANCH  27  28
HETATM   28  O   UNL     1     -10.556   6.801  71.072  1.00  0.00    -0.217 OA 
BRANCH  28  29
HETATM   29  C   UNL     1     -11.667   7.551  71.392  1.00  0.00    -0.283 A  
HETATM   30  C   UNL     1     -12.883   6.931  71.126  1.00  0.00    -0.289 A  
HETATM   31  C   UNL     1     -14.088   7.596  71.367  1.00  0.00    -0.479 A  
HETATM   32  C   UNL     1     -14.083   8.884  71.900  1.00  0.00    -0.453 A  
HETATM   33  C   UNL     1     -12.877   9.499  72.205  1.00  0.00    -0.471 A  
HETATM   34  C   UNL     1     -11.672   8.834  71.957  1.00  0.00    -0.442 A  
ENDBRANCH  28  29
ENDBRANCH  27  28
ENDBRANCH  26  27
ENDBRANCH  25  26
ENDBRANCH  18  25
ENDBRANCH  16  17
ENDBRANCH   6  16
TORSDOF 7
ENDMDL
MODEL       10
REMARK 921   NORMALIZED FREE ENERGY PREDICTED BY IDOCK:   -6.49 KCAL/MOL
REMARK 922        TOTAL FREE ENERGY PREDICTED BY IDOCK:  -10.79 KCAL/MOL
REMARK 923 INTER-LIGAND FREE ENERGY PREDICTED BY IDOCK:   -8.70 KCAL/MOL
REMARK 924 INTRA-LIGAND FREE ENERGY PREDICTED BY IDOCK:   -2.10 KCAL/MOL
REMARK 927      BINDING AFFINITY PREDICTED BY RF-SCORE:    0.00 PKD
ROOT
HETATM    1  O   UNL     1      -9.918  11.447  69.009  1.00  0.00    -0.355 OA 
HETATM    2  C   UNL     1      -9.522  11.105  67.672  1.00  0.00    -0.166 C  
HETATM    3  H   UNL     1     -10.790  11.100  69.155  1.00  0.00     0.000 HD 
HETATM    4  C   UNL     1     -10.512  11.814  66.740  1.00  0.00    -0.225 A  
HETATM    5  C   UNL     1      -9.618   9.583  67.588  1.00  0.00    -0.136 A  
HETATM    6  C   UNL     1      -8.076  11.681  67.429  1.00  0.00    -0.153 C  
HETATM    7  C   UNL     1     -11.636  12.818  64.769  1.00  0.00    -0.325 A  
HETATM    8  C   UNL     1     -11.663  12.513  67.070  1.00  0.00    -0.437 A  
HETATM    9  C   UNL     1     -10.649   8.810  67.071  1.00  0.00    -0.283 A  
HETATM   10  O   UNL     1      -7.000  11.117  67.584  1.00  0.00    -0.078 OA 
HETATM   11  C   UNL     1     -12.301  13.098  65.940  1.00  0.00    -0.462 A  
HETATM   12  C   UNL     1     -10.438   7.410  67.226  1.00  0.00    -0.385 A  
HETATM   13  S   UNL     1      -8.447   8.564  68.340  1.00  0.00    -0.139 SA 
HETATM   14  C   UNL     1      -9.262   7.140  67.884  1.00  0.00    -0.129 A  
HETATM   15  S   UNL     1     -10.279  11.813  65.025  1.00  0.00    -0.282 SA 
ENDROOT
BRANCH   6  16
HETATM   16  O   UNL     1      -8.122  13.004  67.064  1.00  0.00    -0.138 OA 
BRANCH  16  17
HETATM   17  C   UNL     1      -7.818  13.988  68.066  1.00  0.00    -0.152 C  
HETATM   18  N   UNL     1      -6.996  16.366  67.543  1.00  0.00    -0.134 N  
HETATM   19  C   UNL     1      -6.577  14.858  67.735  1.00  0.00    -0.168 C  
HETATM   20  C   UNL     1      -7.662  16.835  68.847  1.00  0.00    -0.242 C  
HETATM   21  C   UNL     1      -8.021  16.410  66.402  1.00  0.00    -0.294 C  
HETATM   22  C   UNL     1      -8.815  15.924  69.237  1.00  0.00    -0.249 C  
HETATM   23  C   UNL     1      -9.264  15.617  66.812  1.00  0.00    -0.275 C  
HETATM   24  C   UNL     1      -9.059  14.887  68.154  1.00  0.00    -0.177 C  
BRANCH  18  25
HETATM   25  C   UNL     1      -5.701  17.152  67.183  1.00  0.00    -0.156 C  
BRANCH  25  26
HETATM   26  C   UNL     1      -5.520  18.553  67.791  1.00  0.00    -0.164 C  
BRANCH  26  27
HETATM   27  C   UNL     1      -5.982  19.689  66.889  1.00  0.00    -0.172 C  
BRANCH  27  28
HETATM   28  O   UNL     1      -6.946  20.521  67.518  1.00  0.00    -0.282 OA 
BRANCH  28  29
HETATM   29  C   UNL     1      -8.248  20.115  67.319  1.00  0.00    -0.336 A  
HETATM   30  C   UNL     1      -8.944  19.805  68.481  1.00  0.00    -0.291 A  
HETATM   31  C   UNL     1     -10.262  19.342  68.419  1.00  0.00    -0.516 A  
HETATM   32  C   UNL     1     -10.900  19.208  67.187  1.00  0.00    -0.507 A  
HETATM   33  C   UNL     1     -10.228  19.550  66.022  1.00  0.00    -0.567 A  
HETATM   34  C   UNL     1      -8.908  20.007  66.086  1.00  0.00    -0.320 A  
ENDBRANCH  28  29
ENDBRANCH  27  28
ENDBRANCH  26  27
ENDBRANCH  25  26
ENDBRANCH  18  25
ENDBRANCH  16  17
ENDBRANCH   6  16
TORSDOF 7
ENDMDL
MODEL       11
REMARK 921   NORMALIZED FREE ENERGY PREDICTED BY IDOCK:   -6.46 KCAL/MOL
REMARK 922        TOTAL FREE ENERGY PREDICTED BY IDOCK:  -10.75 KCAL/MOL
REMARK 923 INTER-LIGAND FREE ENERGY PREDICTED BY IDOCK:   -9.40 KCAL/MOL
REMARK 924 INTRA-LIGAND FREE ENERGY PREDICTED BY IDOCK:   -1.36 KCAL/MOL
REMARK 927      BINDING AFFINITY PREDICTED BY RF-SCORE:    0.00 PKD
ROOT
HETATM    1  O   UNL     1      -9.630  12.976  68.799  1.00  0.00    -0.402 OA 
HETATM    2  C   UNL     1     -10.981  12.857  68.328  1.00  0.00    -0.256 C  
HETATM    3  H   UNL     1      -9.410  13.899  68.832  1.00  0.00     0.000 HD 
HETATM    4  C   UNL     1     -10.989  13.430  66.906  1.00  0.00    -0.284 A  
HETATM    5  C   UNL     1     -11.830  13.675  69.299  1.00  0.00    -0.346 A  
HETATM    6  C   UNL     1     -11.346  11.326  68.274  1.00  0.00    -0.289 C  
HETATM    7  C   UNL     1     -11.596  14.030  64.577  1.00  0.00    -0.391 A  
HETATM    8  C   UNL     1      -9.971  14.088  66.232  1.00  0.00    -0.317 A  
HETATM    9  C   UNL     1     -12.299  14.975  69.154  1.00  0.00    -0.094 A  
HETATM   10  O   UNL     1     -11.892  10.646  69.134  1.00  0.00    -0.276 OA 
HETATM   11  C   UNL     1     -10.316  14.421  64.892  1.00  0.00    -0.419 A  
HETATM   12  C   UNL     1     -13.001  15.453  70.296  1.00  0.00    -0.207 A  
HETATM   13  S   UNL     1     -12.190  13.101  70.886  1.00  0.00    -0.112 SA 
HETATM   14  C   UNL     1     -13.033  14.521  71.305  1.00  0.00    -0.333 A  
HETATM   15  S   UNL     1     -12.394  13.310  65.904  1.00  0.00    -0.376 SA 
ENDROOT
BRANCH   6  16
HETATM   16  O   UNL     1     -10.904  10.750  67.108  1.00  0.00    -0.266 OA 
BRANCH  16  17
HETATM   17  C   UNL     1      -9.587  10.172  67.103  1.00  0.00    -0.169 C  
HETATM   18  N   UNL     1      -8.898   8.151  68.531  1.00  0.00    -0.134 N  
HETATM   19  C   UNL     1      -9.097   9.715  68.501  1.00  0.00    -0.131 C  
HETATM   20  C   UNL     1      -7.872   7.789  67.445  1.00  0.00    -0.118 C  
HETATM   21  C   UNL     1     -10.252   7.515  68.186  1.00  0.00    -0.189 C  
HETATM   22  C   UNL     1      -8.293   8.327  66.087  1.00  0.00    -0.125 C  
HETATM   23  C   UNL     1     -10.649   7.920  66.765  1.00  0.00    -0.234 C  
HETATM   24  C   UNL     1      -9.674   8.955  66.172  1.00  0.00    -0.338 C  
BRANCH  18  25
HETATM   25  C   UNL     1      -8.441   7.780  69.973  1.00  0.00    -0.135 C  
BRANCH  25  26
HETATM   26  C   UNL     1      -8.487   8.882  71.044  1.00  0.00    -0.244 C  
BRANCH  26  27
HETATM   27  C   UNL     1      -9.548   8.667  72.115  1.00  0.00    -0.307 C  
BRANCH  27  28
HETATM   28  O   UNL     1     -10.344   7.518  71.864  1.00  0.00    -0.190 OA 
BRANCH  28  29
HETATM   29  C   UNL     1     -11.697   7.775  71.826  1.00  0.00    -0.284 A  
HETATM   30  C   UNL     1     -12.044   9.101  72.062  1.00  0.00    -0.431 A  
HETATM   31  C   UNL     1     -13.386   9.491  72.091  1.00  0.00    -0.545 A  
HETATM   32  C   UNL     1     -14.393   8.555  71.860  1.00  0.00    -0.536 A  
HETATM   33  C   UNL     1     -14.058   7.236  71.587  1.00  0.00    -0.522 A  
HETATM   34  C   UNL     1     -12.716   6.847  71.564  1.00  0.00    -0.396 A  
ENDBRANCH  28  29
ENDBRANCH  27  28
ENDBRANCH  26  27
ENDBRANCH  25  26
ENDBRANCH  18  25
ENDBRANCH  16  17
ENDBRANCH   6  16
TORSDOF 7
ENDMDL
MODEL       12
REMARK 921   NORMALIZED FREE ENERGY PREDICTED BY IDOCK:   -6.42 KCAL/MOL
REMARK 922        TOTAL FREE ENERGY PREDICTED BY IDOCK:  -10.69 KCAL/MOL
REMARK 923 INTER-LIGAND FREE ENERGY PREDICTED BY IDOCK:   -8.93 KCAL/MOL
REMARK 924 INTRA-LIGAND FREE ENERGY PREDICTED BY IDOCK:   -1.76 KCAL/MOL
REMARK 927      BINDING AFFINITY PREDICTED BY RF-SCORE:    0.00 PKD
ROOT
HETATM    1  O   UNL     1     -12.012   7.880  70.210  1.00  0.00    -0.478 OA 
HETATM    2  C   UNL     1     -10.616   7.558  70.298  1.00  0.00    -0.229 C  
HETATM    3  H   UNL     1     -12.493   7.071  70.080  1.00  0.00     0.000 HD 
HETATM    4  C   UNL     1     -10.231   6.954  68.943  1.00  0.00    -0.177 A  
HETATM    5  C   UNL     1     -10.494   6.559  71.447  1.00  0.00    -0.213 A  
HETATM    6  C   UNL     1      -9.819   8.899  70.514  1.00  0.00    -0.200 C  
HETATM    7  C   UNL     1      -8.981   6.101  66.977  1.00  0.00    -0.114 A  
HETATM    8  C   UNL     1     -11.056   6.613  67.881  1.00  0.00    -0.310 A  
HETATM    9  C   UNL     1     -10.417   5.173  71.383  1.00  0.00    -0.249 A  
HETATM   10  O   UNL     1      -9.472   9.413  71.571  1.00  0.00    -0.259 OA 
HETATM   11  C   UNL     1     -10.337   6.136  66.750  1.00  0.00    -0.292 A  
HETATM   12  C   UNL     1     -10.388   4.550  72.662  1.00  0.00    -0.252 A  
HETATM   13  S   UNL     1     -10.621   7.059  73.093  1.00  0.00    -0.346 SA 
HETATM   14  C   UNL     1     -10.471   5.467  73.682  1.00  0.00    -0.262 A  
HETATM   15  S   UNL     1      -8.582   6.595  68.562  1.00  0.00    -0.124 SA 
ENDROOT
BRANCH   6  16
HETATM   16  O   UNL     1      -9.583   9.535  69.320  1.00  0.00    -0.162 OA 
BRANCH  16  17
HETATM   17  C   UNL     1     -10.377  10.692  69.008  1.00  0.00    -0.218 C  
HETATM   18  N   UNL     1      -9.526  12.695  67.642  1.00  0.00    -0.183 N  
HETATM   19  C   UNL     1      -9.592  12.028  69.070  1.00  0.00     0.251 C  
HETATM   20  C   UNL     1     -10.970  12.930  67.169  1.00  0.00    -0.262 C  
HETATM   21  C   UNL     1      -8.837  11.694  66.705  1.00  0.00    -0.184 C  
HETATM   22  C   UNL     1     -11.779  11.644  67.206  1.00  0.00    -0.255 C  
HETATM   23  C   UNL     1      -9.695  10.431  66.603  1.00  0.00    -0.236 C  
HETATM   24  C   UNL     1     -10.888  10.470  67.578  1.00  0.00    -0.357 C  
BRANCH  18  25
HETATM   25  C   UNL     1      -8.696  14.004  67.793  1.00  0.00    -0.185 C  
BRANCH  25  26
HETATM   26  C   UNL     1      -9.461  15.337  67.848  1.00  0.00    -0.197 C  
BRANCH  26  27
HETATM   27  C   UNL     1      -9.937  15.725  69.241  1.00  0.00    -0.262 C  
BRANCH  27  28
HETATM   28  O   UNL     1     -11.353  15.807  69.324  1.00  0.00    -0.300 OA 
BRANCH  28  29
HETATM   29  C   UNL     1     -11.871  15.320  70.504  1.00  0.00    -0.324 A  
HETATM   30  C   UNL     1     -12.385  14.030  70.425  1.00  0.00    -0.429 A  
HETATM   31  C   UNL     1     -12.976  13.430  71.541  1.00  0.00    -0.429 A  
HETATM   32  C   UNL     1     -13.037  14.113  72.754  1.00  0.00    -0.573 A  
HETATM   33  C   UNL     1     -12.494  15.387  72.856  1.00  0.00    -0.523 A  
HETATM   34  C   UNL     1     -11.908  15.988  71.738  1.00  0.00    -0.599 A  
ENDBRANCH  28  29
ENDBRANCH  27  28
ENDBRANCH  26  27
ENDBRANCH  25  26
ENDBRANCH  18  25
ENDBRANCH  16  17
ENDBRANCH   6  16
TORSDOF 7
ENDMDL
MODEL       13
REMARK 921   NORMALIZED FREE ENERGY PREDICTED BY IDOCK:   -6.41 KCAL/MOL
REMARK 922        TOTAL FREE ENERGY PREDICTED BY IDOCK:  -10.68 KCAL/MOL
REMARK 923 INTER-LIGAND FREE ENERGY PREDICTED BY IDOCK:   -9.36 KCAL/MOL
REMARK 924 INTRA-LIGAND FREE ENERGY PREDICTED BY IDOCK:   -1.33 KCAL/MOL
REMARK 927      BINDING AFFINITY PREDICTED BY RF-SCORE:    0.00 PKD
ROOT
HETATM    1  O   UNL     1     -11.205   7.880  68.796  1.00  0.00    -0.377 OA 
HETATM    2  C   UNL     1     -10.523   8.939  69.484  1.00  0.00    -0.226 C  
HETATM    3  H   UNL     1     -10.679   7.092  68.871  1.00  0.00     0.000 HD 
HETATM    4  C   UNL     1      -9.197   9.144  68.742  1.00  0.00    -0.136 A  
HETATM    5  C   UNL     1     -10.329   8.443  70.915  1.00  0.00    -0.194 A  
HETATM    6  C   UNL     1     -11.396  10.244  69.359  1.00  0.00    -0.221 C  
HETATM    7  C   UNL     1      -7.053  10.059  67.893  1.00  0.00    -0.085 A  
HETATM    8  C   UNL     1      -8.649   8.383  67.721  1.00  0.00    -0.130 A  
HETATM    9  C   UNL     1      -9.202   7.864  71.485  1.00  0.00    -0.171 A  
HETATM   10  O   UNL     1     -12.239  10.670  70.139  1.00  0.00    -0.300 OA 
HETATM   11  C   UNL     1      -7.426   8.915  67.226  1.00  0.00    -0.084 A  
HETATM   12  C   UNL     1      -9.399   7.450  72.832  1.00  0.00    -0.210 A  
HETATM   13  S   UNL     1     -11.642   8.381  72.033  1.00  0.00    -0.379 SA 
HETATM   14  C   UNL     1     -10.681   7.694  73.261  1.00  0.00    -0.350 A  
HETATM   15  S   UNL     1      -8.147  10.461  69.141  1.00  0.00    -0.156 SA 
ENDROOT
BRANCH   6  16
HETATM   16  O   UNL     1     -11.162  10.886  68.167  1.00  0.00    -0.255 OA 
BRANCH  16  17
HETATM   17  C   UNL     1     -11.550  12.266  68.061  1.00  0.00    -0.349 C  
HETATM   18  N   UNL     1      -9.948  14.163  67.399  1.00  0.00    -0.238 N  
HETATM   19  C   UNL     1     -10.479  13.260  68.579  1.00  0.00    -0.250 C  
HETATM   20  C   UNL     1     -11.152  14.913  66.807  1.00  0.00    -0.335 C  
HETATM   21  C   UNL     1      -9.361  13.223  66.338  1.00  0.00    -0.174 C  
HETATM   22  C   UNL     1     -12.254  13.951  66.394  1.00  0.00    -0.487 C  
HETATM   23  C   UNL     1     -10.474  12.326  65.791  1.00  0.00    -0.287 C  
HETATM   24  C   UNL     1     -11.792  12.514  66.566  1.00  0.00    -0.434 C  
BRANCH  18  25
HETATM   25  C   UNL     1      -8.860  15.100  68.001  1.00  0.00    -0.170 C  
BRANCH  25  26
HETATM   26  C   UNL     1      -7.504  15.179  67.281  1.00  0.00    -0.228 C  
BRANCH  26  27
HETATM   27  C   UNL     1      -7.130  16.576  66.807  1.00  0.00    -0.218 C  
BRANCH  27  28
HETATM   28  O   UNL     1      -8.055  17.090  65.859  1.00  0.00    -0.494 OA 
BRANCH  28  29
HETATM   29  C   UNL     1      -8.723  18.217  66.287  1.00  0.00    -0.178 A  
HETATM   30  C   UNL     1      -7.919  19.170  66.903  1.00  0.00    -0.273 A  
HETATM   31  C   UNL     1      -8.476  20.344  67.419  1.00  0.00    -0.394 A  
HETATM   32  C   UNL     1      -9.844  20.582  67.299  1.00  0.00    -0.581 A  
HETATM   33  C   UNL     1     -10.651  19.656  66.653  1.00  0.00    -0.599 A  
HETATM   34  C   UNL     1     -10.093  18.480  66.143  1.00  0.00    -0.391 A  
ENDBRANCH  28  29
ENDBRANCH  27  28
ENDBRANCH  26  27
ENDBRANCH  25  26
ENDBRANCH  18  25
ENDBRANCH  16  17
ENDBRANCH   6  16
TORSDOF 7
ENDMDL
MODEL       14
REMARK 921   NORMALIZED FREE ENERGY PREDICTED BY IDOCK:   -6.41 KCAL/MOL
REMARK 922        TOTAL FREE ENERGY PREDICTED BY IDOCK:  -10.68 KCAL/MOL
REMARK 923 INTER-LIGAND FREE ENERGY PREDICTED BY IDOCK:   -9.35 KCAL/MOL
REMARK 924 INTRA-LIGAND FREE ENERGY PREDICTED BY IDOCK:   -1.33 KCAL/MOL
REMARK 927      BINDING AFFINITY PREDICTED BY RF-SCORE:    0.00 PKD
ROOT
HETATM    1  O   UNL     1     -11.151   8.410  68.136  1.00  0.00    -0.443 OA 
HETATM    2  C   UNL     1     -10.498   8.860  69.334  1.00  0.00    -0.222 C  
HETATM    3  H   UNL     1     -10.730   7.605  67.856  1.00  0.00     0.000 HD 
HETATM    4  C   UNL     1      -9.046   9.157  68.942  1.00  0.00    -0.139 A  
HETATM    5  C   UNL     1     -10.618   7.705  70.327  1.00  0.00    -0.230 A  
HETATM    6  C   UNL     1     -11.195  10.193  69.798  1.00  0.00    -0.272 C  
HETATM    7  C   UNL     1      -6.702   9.968  68.903  1.00  0.00    -0.053 A  
HETATM    8  C   UNL     1      -8.405   8.904  67.739  1.00  0.00    -0.110 A  
HETATM    9  C   UNL     1      -9.677   6.731  70.637  1.00  0.00    -0.180 A  
HETATM   10  O   UNL     1     -12.117  10.330  70.593  1.00  0.00    -0.291 OA 
HETATM   11  C   UNL     1      -7.064   9.380  67.713  1.00  0.00    -0.082 A  
HETATM   12  C   UNL     1     -10.156   5.758  71.559  1.00  0.00    -0.246 A  
HETATM   13  S   UNL     1     -12.110   7.345  71.114  1.00  0.00    -0.314 SA 
HETATM   14  C   UNL     1     -11.463   5.989  71.916  1.00  0.00    -0.269 A  
HETATM   15  S   UNL     1      -7.956   9.902  70.060  1.00  0.00    -0.150 SA 
ENDROOT
BRANCH   6  16
HETATM   16  O   UNL     1     -10.687  11.279  69.128  1.00  0.00    -0.215 OA 
BRANCH  16  17
HETATM   17  C   UNL     1     -11.590  12.055  68.322  1.00  0.00    -0.334 C  
HETATM   18  N   UNL     1     -11.103  14.443  67.510  1.00  0.00    -0.292 N  
HETATM   19  C   UNL     1     -11.636  13.558  68.701  1.00  0.00    -0.330 C  
HETATM   20  C   UNL     1     -11.986  14.159  66.284  1.00  0.00    -0.429 C  
HETATM   21  C   UNL     1      -9.665  13.992  67.218  1.00  0.00    -0.237 C  
HETATM   22  C   UNL     1     -12.032  12.673  65.969  1.00  0.00    -0.478 C  
HETATM   23  C   UNL     1      -9.680  12.533  66.759  1.00  0.00    -0.234 C  
HETATM   24  C   UNL     1     -11.084  11.910  66.880  1.00  0.00    -0.356 C  
BRANCH  18  25
HETATM   25  C   UNL     1     -11.154  15.924  67.989  1.00  0.00    -0.334 C  
BRANCH  25  26
HETATM   26  C   UNL     1     -10.173  16.919  67.348  1.00  0.00    -0.298 C  
BRANCH  26  27
HETATM   27  C   UNL     1     -10.573  18.379  67.509  1.00  0.00    -0.416 C  
BRANCH  27  28
HETATM   28  O   UNL     1      -9.935  18.995  68.619  1.00  0.00    -0.383 OA 
BRANCH  28  29
HETATM   29  C   UNL     1      -8.667  19.459  68.347  1.00  0.00    -0.356 A  
HETATM   30  C   UNL     1      -8.584  20.324  67.261  1.00  0.00    -0.425 A  
HETATM   31  C   UNL     1      -7.349  20.836  66.852  1.00  0.00    -0.312 A  
HETATM   32  C   UNL     1      -6.188  20.502  67.545  1.00  0.00    -0.283 A  
HETATM   33  C   UNL     1      -6.262  19.669  68.653  1.00  0.00    -0.283 A  
HETATM   34  C   UNL     1      -7.496  19.153  69.057  1.00  0.00    -0.353 A  
ENDBRANCH  28  29
ENDBRANCH  27  28
ENDBRANCH  26  27
ENDBRANCH  25  26
ENDBRANCH  18  25
ENDBRANCH  16  17
ENDBRANCH   6  16
TORSDOF 7
ENDMDL
MODEL       15
REMARK 921   NORMALIZED FREE ENERGY PREDICTED BY IDOCK:   -6.40 KCAL/MOL
REMARK 922        TOTAL FREE ENERGY PREDICTED BY IDOCK:  -10.66 KCAL/MOL
REMARK 923 INTER-LIGAND FREE ENERGY PREDICTED BY IDOCK:   -9.79 KCAL/MOL
REMARK 924 INTRA-LIGAND FREE ENERGY PREDICTED BY IDOCK:   -0.87 KCAL/MOL
REMARK 927      BINDING AFFINITY PREDICTED BY RF-SCORE:    0.00 PKD
ROOT
HETATM    1  O   UNL     1      -8.939  12.051  68.045  1.00  0.00    -0.173 OA 
HETATM    2  C   UNL     1      -9.711  11.427  67.008  1.00  0.00    -0.190 C  
HETATM    3  H   UNL     1      -8.360  12.686  67.640  1.00  0.00     0.000 HD 
HETATM    4  C   UNL     1      -8.707  10.695  66.110  1.00  0.00    -0.170 A  
HETATM    5  C   UNL     1     -10.429  12.566  66.286  1.00  0.00    -0.246 A  
HETATM    6  C   UNL     1     -10.670  10.375  67.680  1.00  0.00    -0.286 C  
HETATM    7  C   UNL     1      -7.645   9.202  64.438  1.00  0.00    -0.115 A  
HETATM    8  C   UNL     1      -7.321  10.734  66.150  1.00  0.00    -0.127 A  
HETATM    9  C   UNL     1     -10.069  13.204  65.106  1.00  0.00    -0.239 A  
HETATM   10  O   UNL     1     -11.828  10.531  68.050  1.00  0.00    -0.425 OA 
HETATM   11  C   UNL     1      -6.713   9.868  65.199  1.00  0.00    -0.109 A  
HETATM   12  C   UNL     1     -10.932  14.281  64.760  1.00  0.00    -0.408 A  
HETATM   13  S   UNL     1     -11.780  13.371  66.994  1.00  0.00    -0.393 SA 
HETATM   14  C   UNL     1     -11.922  14.465  65.696  1.00  0.00    -0.354 A  
HETATM   15  S   UNL     1      -9.243   9.656  64.835  1.00  0.00    -0.228 SA 
ENDROOT
BRANCH   6  16
HETATM   16  O   UNL     1     -10.025   9.182  67.899  1.00  0.00    -0.168 OA 
BRANCH  16  17
HETATM   17  C   UNL     1      -9.494   8.937  69.212  1.00  0.00    -0.161 C  
HETATM   18  N   UNL     1     -10.906   8.158  71.212  1.00  0.00    -0.232 N  
HETATM   19  C   UNL     1     -10.427   9.397  70.362  1.00  0.00    -0.256 C  
HETATM   20  C   UNL     1      -9.653   7.461  71.768  1.00  0.00    -0.149 C  
HETATM   21  C   UNL     1     -11.638   7.208  70.256  1.00  0.00    -0.217 C  
HETATM   22  C   UNL     1      -8.682   7.101  70.655  1.00  0.00    -0.148 C  
HETATM   23  C   UNL     1     -10.655   6.708  69.195  1.00  0.00    -0.280 C  
HETATM   24  C   UNL     1      -9.291   7.418  69.300  1.00  0.00    -0.154 C  
BRANCH  18  25
HETATM   25  C   UNL     1     -11.858   8.708  72.315  1.00  0.00    -0.366 C  
BRANCH  25  26
HETATM   26  C   UNL     1     -13.229   9.247  71.875  1.00  0.00    -0.493 C  
BRANCH  26  27
HETATM   27  C   UNL     1     -13.399  10.748  72.065  1.00  0.00    -0.298 C  
BRANCH  27  28
HETATM   28  O   UNL     1     -12.597  11.500  71.166  1.00  0.00    -0.389 OA 
BRANCH  28  29
HETATM   29  C   UNL     1     -12.800  12.861  71.244  1.00  0.00    -0.270 A  
HETATM   30  C   UNL     1     -13.652  13.264  72.266  1.00  0.00    -0.703 A  
HETATM   31  C   UNL     1     -13.974  14.615  72.432  1.00  0.00    -0.578 A  
HETATM   32  C   UNL     1     -13.424  15.576  71.586  1.00  0.00    -0.584 A  
HETATM   33  C   UNL     1     -12.542  15.190  70.586  1.00  0.00    -0.450 A  
HETATM   34  C   UNL     1     -12.226  13.839  70.417  1.00  0.00    -0.433 A  
ENDBRANCH  28  29
ENDBRANCH  27  28
ENDBRANCH  26  27
ENDBRANCH  25  26
ENDBRANCH  18  25
ENDBRANCH  16  17
ENDBRANCH   6  16
TORSDOF 7
ENDMDL
MODEL       16
REMARK 921   NORMALIZED FREE ENERGY PREDICTED BY IDOCK:   -6.39 KCAL/MOL
REMARK 922        TOTAL FREE ENERGY PREDICTED BY IDOCK:  -10.65 KCAL/MOL
REMARK 923 INTER-LIGAND FREE ENERGY PREDICTED BY IDOCK:   -8.27 KCAL/MOL
REMARK 924 INTRA-LIGAND FREE ENERGY PREDICTED BY IDOCK:   -2.38 KCAL/MOL
REMARK 927      BINDING AFFINITY PREDICTED BY RF-SCORE:    0.00 PKD
ROOT
HETATM    1  O   UNL     1     -12.110  10.638  67.840  1.00  0.00    -0.649 OA 
HETATM    2  C   UNL     1     -11.104  11.015  68.793  1.00  0.00    -0.239 C  
HETATM    3  H   UNL     1     -11.980   9.722  67.622  1.00  0.00     0.000 HD 
HETATM    4  C   UNL     1      -9.757  10.852  68.079  1.00  0.00    -0.165 A  
HETATM    5  C   UNL     1     -11.269  10.055  69.970  1.00  0.00    -0.288 A  
HETATM    6  C   UNL     1     -11.320  12.532  69.154  1.00  0.00    -0.274 C  
HETATM    7  C   UNL     1      -7.362  10.967  67.443  1.00  0.00    -0.105 A  
HETATM    8  C   UNL     1      -9.499  10.300  66.833  1.00  0.00    -0.200 A  
HETATM    9  C   UNL     1     -10.554   8.898  70.248  1.00  0.00    -0.246 A  
HETATM   10  O   UNL     1     -11.966  13.007  70.081  1.00  0.00    -0.336 OA 
HETATM   11  C   UNL     1      -8.127  10.378  66.464  1.00  0.00    -0.122 A  
HETATM   12  C   UNL     1     -11.029   8.203  71.396  1.00  0.00    -0.282 A  
HETATM   13  S   UNL     1     -12.577  10.213  71.084  1.00  0.00    -0.419 SA 
HETATM   14  C   UNL     1     -12.116   8.826  71.959  1.00  0.00    -0.377 A  
HETATM   15  S   UNL     1      -8.285  11.380  68.820  1.00  0.00    -0.059 SA 
ENDROOT
BRANCH   6  16
HETATM   16  O   UNL     1     -10.729  13.354  68.226  1.00  0.00    -0.243 OA 
BRANCH  16  17
HETATM   17  C   UNL     1     -11.587  14.073  67.323  1.00  0.00    -0.369 C  
HETATM   18  N   UNL     1     -10.808  16.026  65.848  1.00  0.00    -0.257 N  
HETATM   19  C   UNL     1     -11.314  15.599  67.279  1.00  0.00    -0.122 C  
HETATM   20  C   UNL     1     -11.893  15.634  64.832  1.00  0.00     0.041 C  
HETATM   21  C   UNL     1      -9.529  15.229  65.562  1.00  0.00    -0.106 C  
HETATM   22  C   UNL     1     -12.245  14.160  64.941  1.00  0.00    -0.451 C  
HETATM   23  C   UNL     1      -9.866  13.736  65.523  1.00  0.00    -0.189 C  
HETATM   24  C   UNL     1     -11.326  13.470  65.936  1.00  0.00    -0.321 C  
BRANCH  18  25
HETATM   25  C   UNL     1     -10.528  17.557  65.907  1.00  0.00    -0.249 C  
BRANCH  25  26
HETATM   26  C   UNL     1     -10.658  18.258  67.269  1.00  0.00    -0.406 C  
BRANCH  26  27
HETATM   27  C   UNL     1      -9.444  19.088  67.661  1.00  0.00    -0.306 C  
BRANCH  27  28
HETATM   28  O   UNL     1      -8.768  18.557  68.792  1.00  0.00    -0.313 OA 
BRANCH  28  29
HETATM   29  C   UNL     1      -8.094  17.382  68.537  1.00  0.00    -0.270 A  
HETATM   30  C   UNL     1      -7.088  17.485  67.583  1.00  0.00    -0.180 A  
HETATM   31  C   UNL     1      -6.352  16.359  67.202  1.00  0.00    -0.215 A  
HETATM   32  C   UNL     1      -6.605  15.123  67.794  1.00  0.00    -0.186 A  
HETATM   33  C   UNL     1      -7.582  15.015  68.774  1.00  0.00    -0.137 A  
HETATM   34  C   UNL     1      -8.321  16.141  69.150  1.00  0.00    -0.230 A  
ENDBRANCH  28  29
ENDBRANCH  27  28
ENDBRANCH  26  27
ENDBRANCH  25  26
ENDBRANCH  18  25
ENDBRANCH  16  17
ENDBRANCH   6  16
TORSDOF 7
ENDMDL
MODEL       17
REMARK 921   NORMALIZED FREE ENERGY PREDICTED BY IDOCK:   -6.35 KCAL/MOL
REMARK 922        TOTAL FREE ENERGY PREDICTED BY IDOCK:  -10.60 KCAL/MOL
REMARK 923 INTER-LIGAND FREE ENERGY PREDICTED BY IDOCK:   -8.89 KCAL/MOL
REMARK 924 INTRA-LIGAND FREE ENERGY PREDICTED BY IDOCK:   -1.71 KCAL/MOL
REMARK 927      BINDING AFFINITY PREDICTED BY RF-SCORE:    0.00 PKD
ROOT
HETATM    1  O   UNL     1     -10.677  16.435  68.194  1.00  0.00    -0.309 OA 
HETATM    2  C   UNL     1      -9.543  16.579  67.326  1.00  0.00    -0.242 C  
HETATM    3  H   UNL     1     -10.526  16.967  68.968  1.00  0.00     0.000 HD 
HETATM    4  C   UNL     1      -8.342  16.019  68.097  1.00  0.00    -0.160 A  
HETATM    5  C   UNL     1      -9.422  18.076  67.050  1.00  0.00    -0.273 A  
HETATM    6  C   UNL     1      -9.795  15.698  66.045  1.00  0.00    -0.333 C  
HETATM    7  C   UNL     1      -6.119  15.117  68.726  1.00  0.00    -0.087 A  
HETATM    8  C   UNL     1      -8.279  15.604  69.419  1.00  0.00    -0.236 A  
HETATM    9  C   UNL     1      -8.588  19.004  67.662  1.00  0.00    -0.317 A  
HETATM   10  O   UNL     1     -10.291  16.037  64.978  1.00  0.00    -0.543 OA 
HETATM   11  C   UNL     1      -7.007  15.075  69.776  1.00  0.00    -0.182 A  
HETATM   12  C   UNL     1      -8.794  20.336  67.206  1.00  0.00    -0.454 A  
HETATM   13  S   UNL     1     -10.510  18.887  65.985  1.00  0.00    -0.352 SA 
HETATM   14  C   UNL     1      -9.800  20.409  66.273  1.00  0.00    -0.237 A  
HETATM   15  S   UNL     1      -6.800  15.835  67.335  1.00  0.00    -0.192 SA 
ENDROOT
BRANCH   6  16
HETATM   16  O   UNL     1      -9.444  14.389  66.265  1.00  0.00    -0.290 OA 
BRANCH  16  17
HETATM   17  C   UNL     1     -10.501  13.422  66.384  1.00  0.00    -0.286 C  
HETATM   18  N   UNL     1     -10.121  10.883  66.497  1.00  0.00    -0.215 N  
HETATM   19  C   UNL     1     -10.270  12.135  65.550  1.00  0.00    -0.265 C  
HETATM   20  C   UNL     1     -11.407  10.772  67.332  1.00  0.00    -0.160 C  
HETATM   21  C   UNL     1      -8.930  11.158  67.426  1.00  0.00    -0.139 C  
HETATM   22  C   UNL     1     -11.699  12.068  68.071  1.00  0.00    -0.398 C  
HETATM   23  C   UNL     1      -9.243  12.379  68.294  1.00  0.00    -0.189 C  
HETATM   24  C   UNL     1     -10.561  13.056  67.874  1.00  0.00    -0.239 C  
BRANCH  18  25
HETATM   25  C   UNL     1      -9.860   9.652  65.581  1.00  0.00    -0.299 C  
BRANCH  25  26
HETATM   26  C   UNL     1      -9.016   8.500  66.150  1.00  0.00    -0.220 C  
BRANCH  26  27
HETATM   27  C   UNL     1      -9.811   7.484  66.958  1.00  0.00    -0.214 C  
BRANCH  27  28
HETATM   28  O   UNL     1      -9.292   7.309  68.268  1.00  0.00    -0.136 OA 
BRANCH  28  29
HETATM   29  C   UNL     1     -10.232   7.457  69.265  1.00  0.00    -0.199 A  
HETATM   30  C   UNL     1     -10.214   8.693  69.902  1.00  0.00    -0.206 A  
HETATM   31  C   UNL     1     -11.089   8.961  70.958  1.00  0.00    -0.340 A  
HETATM   32  C   UNL     1     -12.008   7.997  71.369  1.00  0.00    -0.328 A  
HETATM   33  C   UNL     1     -12.061   6.773  70.717  1.00  0.00    -0.402 A  
HETATM   34  C   UNL     1     -11.181   6.504  69.665  1.00  0.00    -0.446 A  
ENDBRANCH  28  29
ENDBRANCH  27  28
ENDBRANCH  26  27
ENDBRANCH  25  26
ENDBRANCH  18  25
ENDBRANCH  16  17
ENDBRANCH   6  16
TORSDOF 7
ENDMDL
MODEL       18
REMARK 921   NORMALIZED FREE ENERGY PREDICTED BY IDOCK:   -6.34 KCAL/MOL
REMARK 922        TOTAL FREE ENERGY PREDICTED BY IDOCK:  -10.59 KCAL/MOL
REMARK 923 INTER-LIGAND FREE ENERGY PREDICTED BY IDOCK:   -8.99 KCAL/MOL
REMARK 924 INTRA-LIGAND FREE ENERGY PREDICTED BY IDOCK:   -1.60 KCAL/MOL
REMARK 927      BINDING AFFINITY PREDICTED BY RF-SCORE:    0.00 PKD
ROOT
HETATM    1  O   UNL     1     -11.217  18.535  67.653  1.00  0.00    -0.126 OA 
HETATM    2  C   UNL     1     -10.140  17.586  67.621  1.00  0.00    -0.328 C  
HETATM    3  H   UNL     1     -11.231  18.935  68.515  1.00  0.00     0.000 HD 
HETATM    4  C   UNL     1     -10.482  16.519  68.667  1.00  0.00    -0.304 A  
HETATM    5  C   UNL     1      -8.882  18.377  67.972  1.00  0.00    -0.287 A  
HETATM    6  C   UNL     1     -10.116  16.924  66.192  1.00  0.00    -0.333 C  
HETATM    7  C   UNL     1     -10.555  14.445  70.027  1.00  0.00     0.248 A  
HETATM    8  C   UNL     1     -11.515  16.513  69.593  1.00  0.00     0.024 A  
HETATM    9  C   UNL     1      -8.242  18.483  69.201  1.00  0.00     0.013 A  
HETATM   10  O   UNL     1      -9.465  17.261  65.211  1.00  0.00     0.038 OA 
HETATM   11  C   UNL     1     -11.563  15.318  70.364  1.00  0.00    -0.341 A  
HETATM   12  C   UNL     1      -7.130  19.372  69.184  1.00  0.00    -0.384 A  
HETATM   13  S   UNL     1      -8.147  19.451  66.839  1.00  0.00    -0.290 SA 
HETATM   14  C   UNL     1      -6.955  19.950  67.950  1.00  0.00    -0.273 A  
HETATM   15  S   UNL     1      -9.527  15.084  68.823  1.00  0.00    -0.215 SA 
ENDROOT
BRANCH   6  16
HETATM   16  O   UNL     1     -11.015  15.888  66.109  1.00  0.00    -0.254 OA 
BRANCH  16  17
HETATM   17  C   UNL     1     -10.859  14.949  65.032  1.00  0.00    -0.423 C  
HETATM   18  N   UNL     1     -10.778  12.401  65.346  1.00  0.00    -0.274 N  
HETATM   19  C   UNL     1      -9.949  13.742  65.378  1.00  0.00    -0.229 C  
HETATM   20  C   UNL     1     -11.372  12.252  63.936  1.00  0.00    -0.429 C  
HETATM   21  C   UNL     1     -11.914  12.545  66.367  1.00  0.00    -0.318 C  
HETATM   22  C   UNL     1     -12.179  13.479  63.545  1.00  0.00    -0.410 C  
HETATM   23  C   UNL     1     -12.836  13.687  65.933  1.00  0.00    -0.328 C  
HETATM   24  C   UNL     1     -12.273  14.444  64.715  1.00  0.00    -0.458 C  
BRANCH  18  25
HETATM   25  C   UNL     1      -9.798  11.255  65.736  1.00  0.00    -0.232 C  
BRANCH  25  26
HETATM   26  C   UNL     1     -10.308  10.173  66.702  1.00  0.00    -0.274 C  
BRANCH  26  27
HETATM   27  C   UNL     1      -9.583  10.139  68.040  1.00  0.00    -0.145 C  
BRANCH  27  28
HETATM   28  O   UNL     1     -10.102  11.089  68.961  1.00  0.00    -0.205 OA 
BRANCH  28  29
HETATM   29  C   UNL     1     -10.903  10.538  69.937  1.00  0.00    -0.276 A  
HETATM   30  C   UNL     1     -12.087  11.228  70.175  1.00  0.00    -0.448 A  
HETATM   31  C   UNL     1     -12.973  10.799  71.168  1.00  0.00    -0.467 A  
HETATM   32  C   UNL     1     -12.687   9.658  71.916  1.00  0.00    -0.499 A  
HETATM   33  C   UNL     1     -11.527   8.940  71.663  1.00  0.00    -0.409 A  
HETATM   34  C   UNL     1     -10.639   9.374  70.674  1.00  0.00    -0.354 A  
ENDBRANCH  28  29
ENDBRANCH  27  28
ENDBRANCH  26  27
ENDBRANCH  25  26
ENDBRANCH  18  25
ENDBRANCH  16  17
ENDBRANCH   6  16
TORSDOF 7
ENDMDL
MODEL       19
REMARK 921   NORMALIZED FREE ENERGY PREDICTED BY IDOCK:   -6.34 KCAL/MOL
REMARK 922        TOTAL FREE ENERGY PREDICTED BY IDOCK:  -10.59 KCAL/MOL
REMARK 923 INTER-LIGAND FREE ENERGY PREDICTED BY IDOCK:   -9.29 KCAL/MOL
REMARK 924 INTRA-LIGAND FREE ENERGY PREDICTED BY IDOCK:   -1.30 KCAL/MOL
REMARK 927      BINDING AFFINITY PREDICTED BY RF-SCORE:    0.00 PKD
ROOT
HETATM    1  O   UNL     1      -8.187   7.334  68.700  1.00  0.00    -0.123 OA 
HETATM    2  C   UNL     1      -9.558   6.951  68.886  1.00  0.00    -0.139 C  
HETATM    3  H   UNL     1      -7.673   6.932  69.391  1.00  0.00     0.000 HD 
HETATM    4  C   UNL     1      -9.984   7.535  70.239  1.00  0.00    -0.192 A  
HETATM    5  C   UNL     1      -9.566   5.424  68.873  1.00  0.00    -0.141 A  
HETATM    6  C   UNL     1     -10.410   7.618  67.741  1.00  0.00    -0.219 C  
HETATM    7  C   UNL     1     -11.293   8.346  72.183  1.00  0.00    -0.366 A  
HETATM    8  C   UNL     1      -9.201   8.164  71.195  1.00  0.00    -0.185 A  
HETATM    9  C   UNL     1      -9.575   4.550  69.953  1.00  0.00    -0.269 A  
HETATM   10  O   UNL     1     -10.725   7.143  66.657  1.00  0.00    -0.245 OA 
HETATM   11  C   UNL     1      -9.955   8.639  72.305  1.00  0.00    -0.361 A  
HETATM   12  C   UNL     1      -9.502   3.181  69.571  1.00  0.00    -0.190 A  
HETATM   13  S   UNL     1      -9.375   4.535  67.407  1.00  0.00    -0.158 SA 
HETATM   14  C   UNL     1      -9.412   3.032  68.208  1.00  0.00    -0.154 A  
HETATM   15  S   UNL     1     -11.631   7.459  70.763  1.00  0.00    -0.270 SA 
ENDROOT
BRANCH   6  16
HETATM   16  O   UNL     1     -10.742   8.912  68.057  1.00  0.00    -0.200 OA 
BRANCH  16  17
HETATM   17  C   UNL     1      -9.905   9.964  67.547  1.00  0.00    -0.169 C  
HETATM   18  N   UNL     1     -10.788  12.225  66.707  1.00  0.00    -0.244 N  
HETATM   19  C   UNL     1     -10.512  10.717  66.336  1.00  0.00    -0.233 C  
HETATM   20  C   UNL     1      -9.451  12.855  67.130  1.00  0.00    -0.229 C  
HETATM   21  C   UNL     1     -11.754  12.229  67.899  1.00  0.00    -0.347 C  
HETATM   22  C   UNL     1      -8.795  12.060  68.247  1.00  0.00    -0.182 C  
HETATM   23  C   UNL     1     -11.077  11.559  69.096  1.00  0.00    -0.316 C  
HETATM   24  C   UNL     1      -9.717  10.945  68.713  1.00  0.00    -0.196 C  
BRANCH  18  25
HETATM   25  C   UNL     1     -11.424  12.890  65.450  1.00  0.00    -0.324 C  
BRANCH  25  26
HETATM   26  C   UNL     1     -10.665  14.055  64.793  1.00  0.00    -0.442 C  
BRANCH  26  27
HETATM   27  C   UNL     1     -11.345  15.408  64.948  1.00  0.00    -0.363 C  
BRANCH  27  28
HETATM   28  O   UNL     1     -10.424  16.487  64.874  1.00  0.00    -0.653 OA 
BRANCH  28  29
HETATM   29  C   UNL     1     -10.365  17.249  66.020  1.00  0.00    -0.305 A  
HETATM   30  C   UNL     1     -10.627  18.602  65.832  1.00  0.00    -0.365 A  
HETATM   31  C   UNL     1     -10.562  19.495  66.906  1.00  0.00    -0.602 A  
HETATM   32  C   UNL     1     -10.254  19.032  68.184  1.00  0.00    -0.472 A  
HETATM   33  C   UNL     1     -10.027  17.679  68.391  1.00  0.00    -0.356 A  
HETATM   34  C   UNL     1     -10.087  16.788  67.315  1.00  0.00    -0.281 A  
ENDBRANCH  28  29
ENDBRANCH  27  28
ENDBRANCH  26  27
ENDBRANCH  25  26
ENDBRANCH  18  25
ENDBRANCH  16  17
ENDBRANCH   6  16
TORSDOF 7
ENDMDL
MODEL       20
REMARK 921   NORMALIZED FREE ENERGY PREDICTED BY IDOCK:   -6.28 KCAL/MOL
REMARK 922        TOTAL FREE ENERGY PREDICTED BY IDOCK:  -10.50 KCAL/MOL
REMARK 923 INTER-LIGAND FREE ENERGY PREDICTED BY IDOCK:   -8.94 KCAL/MOL
REMARK 924 INTRA-LIGAND FREE ENERGY PREDICTED BY IDOCK:   -1.57 KCAL/MOL
REMARK 927      BINDING AFFINITY PREDICTED BY RF-SCORE:    0.00 PKD
ROOT
HETATM    1  O   UNL     1      -9.357   7.133  71.813  1.00  0.00    -0.148 OA 
HETATM    2  C   UNL     1     -10.553   6.479  71.365  1.00  0.00    -0.228 C  
HETATM    3  H   UNL     1      -9.392   7.195  72.761  1.00  0.00     0.000 HD 
HETATM    4  C   UNL     1     -11.716   7.393  71.769  1.00  0.00    -0.286 A  
HETATM    5  C   UNL     1     -10.582   5.132  72.086  1.00  0.00    -0.211 A  
HETATM    6  C   UNL     1     -10.495   6.376  69.795  1.00  0.00    -0.215 C  
HETATM    7  C   UNL     1     -13.934   8.484  71.979  1.00  0.00    -0.433 A  
HETATM    8  C   UNL     1     -11.686   8.538  72.551  1.00  0.00    -0.390 A  
HETATM    9  C   UNL     1     -11.278   4.782  73.236  1.00  0.00    -0.421 A  
HETATM   10  O   UNL     1     -10.077   5.450  69.111  1.00  0.00    -0.184 OA 
HETATM   11  C   UNL     1     -12.956   9.170  72.661  1.00  0.00    -0.320 A  
HETATM   12  C   UNL     1     -11.011   3.454  73.675  1.00  0.00    -0.329 A  
HETATM   13  S   UNL     1      -9.539   3.839  71.620  1.00  0.00    -0.165 SA 
HETATM   14  C   UNL     1     -10.096   2.822  72.868  1.00  0.00    -0.142 A  
HETATM   15  S   UNL     1     -13.333   7.060  71.252  1.00  0.00    -0.069 SA 
ENDROOT
BRANCH   6  16
HETATM   16  O   UNL     1     -10.925   7.539  69.204  1.00  0.00    -0.138 OA 
BRANCH  16  17
HETATM   17  C   UNL     1     -10.133   8.082  68.134  1.00  0.00    -0.197 C  
HETATM   18  N   UNL     1     -10.011  10.583  67.562  1.00  0.00    -0.168 N  
HETATM   19  C   UNL     1     -10.821   9.244  67.372  1.00  0.00    -0.095 C  
HETATM   20  C   UNL     1      -8.586  10.348  67.033  1.00  0.00    -0.130 C  
HETATM   21  C   UNL     1      -9.955  10.869  69.069  1.00  0.00    -0.191 C  
HETATM   22  C   UNL     1      -7.942   9.143  67.700  1.00  0.00    -0.100 C  
HETATM   23  C   UNL     1      -9.188   9.744  69.765  1.00  0.00    -0.248 C  
HETATM   24  C   UNL     1      -8.846   8.598  68.793  1.00  0.00    -0.139 C  
BRANCH  18  25
HETATM   25  C   UNL     1     -10.788  11.694  66.796  1.00  0.00    -0.277 C  
BRANCH  25  26
HETATM   26  C   UNL     1     -10.690  13.134  67.326  1.00  0.00    -0.262 C  
BRANCH  26  27
HETATM   27  C   UNL     1     -12.003  13.695  67.852  1.00  0.00    -0.347 C  
BRANCH  27  28
HETATM   28  O   UNL     1     -11.809  14.639  68.895  1.00  0.00    -0.305 OA 
BRANCH  28  29
HETATM   29  C   UNL     1     -12.457  14.317  70.067  1.00  0.00    -0.300 A  
HETATM   30  C   UNL     1     -13.131  15.374  70.669  1.00  0.00    -0.405 A  
HETATM   31  C   UNL     1     -13.798  15.192  71.884  1.00  0.00    -0.607 A  
HETATM   32  C   UNL     1     -13.814  13.940  72.495  1.00  0.00    -0.620 A  
HETATM   33  C   UNL     1     -13.176  12.868  71.886  1.00  0.00    -0.521 A  
HETATM   34  C   UNL     1     -12.504  13.053  70.674  1.00  0.00    -0.347 A  
ENDBRANCH  28  29
ENDBRANCH  27  28
ENDBRANCH  26  27
ENDBRANCH  25  26
ENDBRANCH  18  25
ENDBRANCH  16  17
ENDBRANCH   6  16
TORSDOF 7
ENDMDL
MODEL       21
REMARK 921   NORMALIZED FREE ENERGY PREDICTED BY IDOCK:   -6.28 KCAL/MOL
REMARK 922        TOTAL FREE ENERGY PREDICTED BY IDOCK:  -10.49 KCAL/MOL
REMARK 923 INTER-LIGAND FREE ENERGY PREDICTED BY IDOCK:   -8.49 KCAL/MOL
REMARK 924 INTRA-LIGAND FREE ENERGY PREDICTED BY IDOCK:   -2.00 KCAL/MOL
REMARK 927      BINDING AFFINITY PREDICTED BY RF-SCORE:    0.00 PKD
ROOT
HETATM    1  O   UNL     1      -8.023   9.111  71.575  1.00  0.00    -0.335 OA 
HETATM    2  C   UNL     1      -8.618   7.905  71.073  1.00  0.00    -0.131 C  
HETATM    3  H   UNL     1      -8.227   9.178  72.500  1.00  0.00     0.000 HD 
HETATM    4  C   UNL     1     -10.133   8.073  71.246  1.00  0.00    -0.185 A  
HETATM    5  C   UNL     1      -8.047   6.776  71.927  1.00  0.00    -0.101 A  
HETATM    6  C   UNL     1      -8.280   7.797  69.538  1.00  0.00    -0.128 C  
HETATM    7  C   UNL     1     -12.596   7.821  71.094  1.00  0.00    -0.198 A  
HETATM    8  C   UNL     1     -10.823   9.084  71.898  1.00  0.00    -0.413 A  
HETATM    9  C   UNL     1      -8.620   6.148  73.026  1.00  0.00    -0.118 A  
HETATM   10  O   UNL     1      -7.343   7.213  69.008  1.00  0.00    -0.087 OA 
HETATM   11  C   UNL     1     -12.235   8.945  71.800  1.00  0.00    -0.429 A  
HETATM   12  C   UNL     1      -7.768   5.182  73.632  1.00  0.00    -0.099 A  
HETATM   13  S   UNL     1      -6.426   6.222  71.721  1.00  0.00    -0.051 SA 
HETATM   14  C   UNL     1      -6.549   5.108  73.004  1.00  0.00    -0.066 A  
HETATM   15  S   UNL     1     -11.238   6.912  70.595  1.00  0.00    -0.320 SA 
ENDROOT
BRANCH   6  16
HETATM   16  O   UNL     1      -9.161   8.530  68.782  1.00  0.00    -0.142 OA 
BRANCH  16  17
HETATM   17  C   UNL     1      -8.638   9.637  68.028  1.00  0.00    -0.119 C  
HETATM   18  N   UNL     1      -9.906  10.809  66.126  1.00  0.00    -0.212 N  
HETATM   19  C   UNL     1      -8.987   9.589  66.518  1.00  0.00    -0.148 C  
HETATM   20  C   UNL     1      -9.144  12.098  66.471  1.00  0.00    -0.199 C  
HETATM   21  C   UNL     1     -11.173  10.718  66.988  1.00  0.00    -0.089 C  
HETATM   22  C   UNL     1      -8.703  12.107  67.926  1.00  0.00    -0.176 C  
HETATM   23  C   UNL     1     -10.788  10.864  68.462  1.00  0.00    -0.262 C  
HETATM   24  C   UNL     1      -9.259  10.894  68.653  1.00  0.00    -0.187 C  
BRANCH  18  25
HETATM   25  C   UNL     1     -10.232  10.660  64.610  1.00  0.00    -0.334 C  
BRANCH  25  26
HETATM   26  C   UNL     1     -10.518  11.941  63.809  1.00  0.00    -0.468 C  
BRANCH  26  27
HETATM   27  C   UNL     1     -11.997  12.207  63.564  1.00  0.00    -0.524 C  
BRANCH  27  28
HETATM   28  O   UNL     1     -12.325  13.584  63.680  1.00  0.00    -0.687 OA 
BRANCH  28  29
HETATM   29  C   UNL     1     -11.975  14.140  64.892  1.00  0.00    -0.417 A  
HETATM   30  C   UNL     1     -10.982  15.111  64.820  1.00  0.00    -0.394 A  
HETATM   31  C   UNL     1     -10.506  15.728  65.980  1.00  0.00    -0.350 A  
HETATM   32  C   UNL     1     -11.040  15.391  67.223  1.00  0.00    -0.302 A  
HETATM   33  C   UNL     1     -12.057  14.450  67.304  1.00  0.00    -0.358 A  
HETATM   34  C   UNL     1     -12.528  13.830  66.143  1.00  0.00    -0.466 A  
ENDBRANCH  28  29
ENDBRANCH  27  28
ENDBRANCH  26  27
ENDBRANCH  25  26
ENDBRANCH  18  25
ENDBRANCH  16  17
ENDBRANCH   6  16
TORSDOF 7
ENDMDL
MODEL       22
REMARK 921   NORMALIZED FREE ENERGY PREDICTED BY IDOCK:   -6.26 KCAL/MOL
REMARK 922        TOTAL FREE ENERGY PREDICTED BY IDOCK:  -10.47 KCAL/MOL
REMARK 923 INTER-LIGAND FREE ENERGY PREDICTED BY IDOCK:   -9.02 KCAL/MOL
REMARK 924 INTRA-LIGAND FREE ENERGY PREDICTED BY IDOCK:   -1.45 KCAL/MOL
REMARK 927      BINDING AFFINITY PREDICTED BY RF-SCORE:    0.00 PKD
ROOT
HETATM    1  O   UNL     1      -8.153   6.377  69.374  1.00  0.00    -0.114 OA 
HETATM    2  C   UNL     1      -9.513   5.951  69.551  1.00  0.00    -0.138 C  
HETATM    3  H   UNL     1      -7.628   5.976  70.058  1.00  0.00     0.000 HD 
HETATM    4  C   UNL     1      -9.956   6.495  70.914  1.00  0.00    -0.184 A  
HETATM    5  C   UNL     1      -9.476   4.425  69.507  1.00  0.00    -0.181 A  
HETATM    6  C   UNL     1     -10.383   6.615  68.419  1.00  0.00    -0.193 C  
HETATM    7  C   UNL     1     -11.290   7.228  72.873  1.00  0.00    -0.246 A  
HETATM    8  C   UNL     1      -9.193   7.127  71.884  1.00  0.00    -0.149 A  
HETATM    9  C   UNL     1      -9.461   3.529  70.569  1.00  0.00    -0.249 A  
HETATM   10  O   UNL     1     -10.684   6.153  67.325  1.00  0.00    -0.258 OA 
HETATM   11  C   UNL     1      -9.960   7.558  73.002  1.00  0.00    -0.321 A  
HETATM   12  C   UNL     1      -9.348   2.170  70.161  1.00  0.00    -0.173 A  
HETATM   13  S   UNL     1      -9.260   3.571  68.024  1.00  0.00    -0.184 SA 
HETATM   14  C   UNL     1      -9.253   2.052  68.795  1.00  0.00    -0.161 A  
HETATM   15  S   UNL     1     -11.601   6.360  71.436  1.00  0.00    -0.292 SA 
ENDROOT
BRANCH   6  16
HETATM   16  O   UNL     1     -10.753   7.892  68.760  1.00  0.00    -0.164 OA 
BRANCH  16  17
HETATM   17  C   UNL     1      -9.976   8.980  68.231  1.00  0.00    -0.173 C  
HETATM   18  N   UNL     1     -10.798  11.412  68.117  1.00  0.00    -0.200 N  
HETATM   19  C   UNL     1     -10.806  10.002  67.410  1.00  0.00    -0.249 C  
HETATM   20  C   UNL     1      -9.335  11.866  68.239  1.00  0.00    -0.193 C  
HETATM   21  C   UNL     1     -11.392  11.219  69.519  1.00  0.00    -0.294 C  
HETATM   22  C   UNL     1      -8.490  10.821  68.949  1.00  0.00    -0.149 C  
HETATM   23  C   UNL     1     -10.491  10.278  70.321  1.00  0.00    -0.207 C  
HETATM   24  C   UNL     1      -9.366   9.685  69.450  1.00  0.00    -0.201 C  
BRANCH  18  25
HETATM   25  C   UNL     1     -11.677  12.358  67.246  1.00  0.00    -0.349 C  
BRANCH  25  26
HETATM   26  C   UNL     1     -11.406  13.869  67.331  1.00  0.00    -0.349 C  
BRANCH  26  27
HETATM   27  C   UNL     1     -12.124  14.567  68.478  1.00  0.00    -0.222 C  
BRANCH  27  28
HETATM   28  O   UNL     1     -11.279  14.772  69.601  1.00  0.00    -0.256 OA 
BRANCH  28  29
HETATM   29  C   UNL     1     -11.951  14.824  70.802  1.00  0.00    -0.310 A  
HETATM   30  C   UNL     1     -11.604  15.897  71.616  1.00  0.00    -0.541 A  
HETATM   31  C   UNL     1     -12.183  16.048  72.880  1.00  0.00    -0.621 A  
HETATM   32  C   UNL     1     -13.134  15.133  73.328  1.00  0.00    -0.622 A  
HETATM   33  C   UNL     1     -13.516  14.079  72.511  1.00  0.00    -0.661 A  
HETATM   34  C   UNL     1     -12.932  13.926  71.250  1.00  0.00    -0.414 A  
ENDBRANCH  28  29
ENDBRANCH  27  28
ENDBRANCH  26  27
ENDBRANCH  25  26
ENDBRANCH  18  25
ENDBRANCH  16  17
ENDBRANCH   6  16
TORSDOF 7
ENDMDL
MODEL       23
REMARK 921   NORMALIZED FREE ENERGY PREDICTED BY IDOCK:   -6.25 KCAL/MOL
REMARK 922        TOTAL FREE ENERGY PREDICTED BY IDOCK:  -10.45 KCAL/MOL
REMARK 923 INTER-LIGAND FREE ENERGY PREDICTED BY IDOCK:   -8.31 KCAL/MOL
REMARK 924 INTRA-LIGAND FREE ENERGY PREDICTED BY IDOCK:   -2.14 KCAL/MOL
REMARK 927      BINDING AFFINITY PREDICTED BY RF-SCORE:    0.00 PKD
ROOT
HETATM    1  O   UNL     1      -9.215   7.092  71.749  1.00  0.00    -0.140 OA 
HETATM    2  C   UNL     1     -10.432   6.495  71.277  1.00  0.00    -0.215 C  
HETATM    3  H   UNL     1      -9.272   7.169  72.695  1.00  0.00     0.000 HD 
HETATM    4  C   UNL     1     -11.555   7.474  71.639  1.00  0.00    -0.268 A  
HETATM    5  C   UNL     1     -10.550   5.162  72.013  1.00  0.00    -0.200 A  
HETATM    6  C   UNL     1     -10.337   6.369  69.710  1.00  0.00    -0.200 C  
HETATM    7  C   UNL     1     -13.718   8.681  71.775  1.00  0.00    -0.417 A  
HETATM    8  C   UNL     1     -11.486   8.626  72.407  1.00  0.00    -0.369 A  
HETATM    9  C   UNL     1     -11.294   4.863  73.147  1.00  0.00    -0.395 A  
HETATM   10  O   UNL     1      -9.950   5.413  69.049  1.00  0.00    -0.159 OA 
HETATM   11  C   UNL     1     -12.724   9.324  72.475  1.00  0.00    -0.310 A  
HETATM   12  C   UNL     1     -11.109   3.529  73.609  1.00  0.00    -0.314 A  
HETATM   13  S   UNL     1      -9.564   3.810  71.591  1.00  0.00    -0.165 SA 
HETATM   14  C   UNL     1     -10.207   2.840  72.835  1.00  0.00    -0.149 A  
HETATM   15  S   UNL     1     -13.174   7.218  71.082  1.00  0.00    -0.090 SA 
ENDROOT
BRANCH   6  16
HETATM   16  O   UNL     1     -10.690   7.544  69.094  1.00  0.00    -0.214 OA 
BRANCH  16  17
HETATM   17  C   UNL     1      -9.639   8.357  68.545  1.00  0.00    -0.149 C  
HETATM   18  N   UNL     1     -10.000  10.147  66.738  1.00  0.00    -0.202 N  
HETATM   19  C   UNL     1      -9.774   8.612  67.021  1.00  0.00    -0.201 C  
HETATM   20  C   UNL     1      -8.799  10.911  67.317  1.00  0.00    -0.134 C  
HETATM   21  C   UNL     1     -11.277  10.562  67.482  1.00  0.00    -0.224 C  
HETATM   22  C   UNL     1      -8.593  10.584  68.787  1.00  0.00    -0.146 C  
HETATM   23  C   UNL     1     -11.062  10.381  68.986  1.00  0.00    -0.297 C  
HETATM   24  C   UNL     1      -9.717   9.695  69.293  1.00  0.00    -0.191 C  
BRANCH  18  25
HETATM   25  C   UNL     1     -10.158  10.303  65.197  1.00  0.00    -0.285 C  
BRANCH  25  26
HETATM   26  C   UNL     1      -9.694  11.622  64.558  1.00  0.00    -0.203 C  
BRANCH  26  27
HETATM   27  C   UNL     1     -10.823  12.595  64.244  1.00  0.00    -0.379 C  
BRANCH  27  28
HETATM   28  O   UNL     1     -10.550  13.908  64.711  1.00  0.00    -0.391 OA 
BRANCH  28  29
HETATM   29  C   UNL     1     -10.741  14.070  66.066  1.00  0.00    -0.294 A  
HETATM   30  C   UNL     1      -9.604  14.441  66.773  1.00  0.00    -0.279 A  
HETATM   31  C   UNL     1      -9.650  14.601  68.161  1.00  0.00    -0.213 A  
HETATM   32  C   UNL     1     -10.847  14.411  68.849  1.00  0.00    -0.266 A  
HETATM   33  C   UNL     1     -11.998  14.077  68.149  1.00  0.00    -0.382 A  
HETATM   34  C   UNL     1     -11.949  13.912  66.762  1.00  0.00    -0.472 A  
ENDBRANCH  28  29
ENDBRANCH  27  28
ENDBRANCH  26  27
ENDBRANCH  25  26
ENDBRANCH  18  25
ENDBRANCH  16  17
ENDBRANCH   6  16
TORSDOF 7
ENDMDL
MODEL       24
REMARK 921   NORMALIZED FREE ENERGY PREDICTED BY IDOCK:   -6.19 KCAL/MOL
REMARK 922        TOTAL FREE ENERGY PREDICTED BY IDOCK:  -10.38 KCAL/MOL
REMARK 923 INTER-LIGAND FREE ENERGY PREDICTED BY IDOCK:   -9.46 KCAL/MOL
REMARK 924 INTRA-LIGAND FREE ENERGY PREDICTED BY IDOCK:   -0.92 KCAL/MOL
REMARK 927      BINDING AFFINITY PREDICTED BY RF-SCORE:    0.00 PKD
ROOT
HETATM    1  O   UNL     1      -7.485  16.490  66.193  1.00  0.00    -0.168 OA 
HETATM    2  C   UNL     1      -8.260  16.634  67.393  1.00  0.00    -0.169 C  
HETATM    3  H   UNL     1      -6.933  17.258  66.104  1.00  0.00     0.000 HD 
HETATM    4  C   UNL     1      -9.143  17.870  67.184  1.00  0.00    -0.251 A  
HETATM    5  C   UNL     1      -7.245  16.817  68.519  1.00  0.00    -0.194 A  
HETATM    6  C   UNL     1      -9.174  15.361  67.539  1.00  0.00    -0.199 C  
HETATM    7  C   UNL     1     -10.904  19.606  67.377  1.00  0.00    -0.371 A  
HETATM    8  C   UNL     1      -9.117  18.787  66.144  1.00  0.00    -0.152 A  
HETATM    9  C   UNL     1      -6.814  17.997  69.112  1.00  0.00    -0.226 A  
HETATM   10  O   UNL     1      -8.943  14.328  68.156  1.00  0.00    -0.174 OA 
HETATM   11  C   UNL     1     -10.136  19.775  66.249  1.00  0.00    -0.601 A  
HETATM   12  C   UNL     1      -5.796  17.799  70.088  1.00  0.00    -0.189 A  
HETATM   13  S   UNL     1      -6.315  15.492  69.118  1.00  0.00    -0.128 SA 
HETATM   14  C   UNL     1      -5.447  16.476  70.204  1.00  0.00    -0.200 A  
HETATM   15  S   UNL     1     -10.370  18.293  68.328  1.00  0.00    -0.322 SA 
ENDROOT
BRANCH   6  16
HETATM   16  O   UNL     1     -10.324  15.486  66.798  1.00  0.00    -0.275 OA 
BRANCH  16  17
HETATM   17  C   UNL     1     -10.406  14.762  65.559  1.00  0.00    -0.364 C  
HETATM   18  N   UNL     1     -10.927  12.251  65.392  1.00  0.00    -0.291 N  
HETATM   19  C   UNL     1      -9.804  13.334  65.625  1.00  0.00    -0.162 C  
HETATM   20  C   UNL     1     -11.555  12.518  64.014  1.00  0.00    -0.413 C  
HETATM   21  C   UNL     1     -11.987  12.455  66.484  1.00  0.00    -0.252 C  
HETATM   22  C   UNL     1     -12.052  13.950  63.902  1.00  0.00    -0.387 C  
HETATM   23  C   UNL     1     -12.616  13.840  66.320  1.00  0.00    -0.372 C  
HETATM   24  C   UNL     1     -11.903  14.667  65.234  1.00  0.00    -0.324 C  
BRANCH  18  25
HETATM   25  C   UNL     1     -10.242  10.858  65.510  1.00  0.00    -0.271 C  
BRANCH  25  26
HETATM   26  C   UNL     1      -9.375  10.587  66.750  1.00  0.00    -0.180 C  
BRANCH  26  27
HETATM   27  C   UNL     1     -10.021   9.664  67.774  1.00  0.00    -0.171 C  
BRANCH  27  28
HETATM   28  O   UNL     1      -9.654   9.993  69.106  1.00  0.00    -0.186 OA 
BRANCH  28  29
HETATM   29  C   UNL     1     -10.711  10.001  69.990  1.00  0.00    -0.299 A  
HETATM   30  C   UNL     1     -11.489  11.153  69.954  1.00  0.00    -0.386 A  
HETATM   31  C   UNL     1     -12.571  11.308  70.826  1.00  0.00    -0.425 A  
HETATM   32  C   UNL     1     -12.894  10.296  71.728  1.00  0.00    -0.565 A  
HETATM   33  C   UNL     1     -12.148   9.126  71.748  1.00  0.00    -0.446 A  
HETATM   34  C   UNL     1     -11.063   8.975  70.879  1.00  0.00    -0.343 A  
ENDBRANCH  28  29
ENDBRANCH  27  28
ENDBRANCH  26  27
ENDBRANCH  25  26
ENDBRANCH  18  25
ENDBRANCH  16  17
ENDBRANCH   6  16
TORSDOF 7
ENDMDL
MODEL       25
REMARK 921   NORMALIZED FREE ENERGY PREDICTED BY IDOCK:   -6.18 KCAL/MOL
REMARK 922        TOTAL FREE ENERGY PREDICTED BY IDOCK:  -10.35 KCAL/MOL
REMARK 923 INTER-LIGAND FREE ENERGY PREDICTED BY IDOCK:   -8.43 KCAL/MOL
REMARK 924 INTRA-LIGAND FREE ENERGY PREDICTED BY IDOCK:   -1.92 KCAL/MOL
REMARK 927      BINDING AFFINITY PREDICTED BY RF-SCORE:    0.00 PKD
ROOT
HETATM    1  O   UNL     1      -8.785  15.106  66.283  1.00  0.00    -0.437 OA 
HETATM    2  C   UNL     1      -9.496  14.057  66.957  1.00  0.00    -0.250 C  
HETATM    3  H   UNL     1      -9.420  15.744  65.978  1.00  0.00     0.000 HD 
HETATM    4  C   UNL     1     -10.399  13.408  65.902  1.00  0.00    -0.290 A  
HETATM    5  C   UNL     1     -10.286  14.743  68.070  1.00  0.00    -0.237 A  
HETATM    6  C   UNL     1      -8.443  13.000  67.462  1.00  0.00    -0.190 C  
HETATM    7  C   UNL     1     -11.895  11.866  64.662  1.00  0.00    -0.205 A  
HETATM    8  C   UNL     1     -10.640  13.816  64.599  1.00  0.00    -0.443 A  
HETATM    9  C   UNL     1     -11.621  15.127  68.071  1.00  0.00    -0.345 A  
HETATM   10  O   UNL     1      -7.895  12.939  68.556  1.00  0.00    -0.134 OA 
HETATM   11  C   UNL     1     -11.488  12.925  63.884  1.00  0.00    -0.504 A  
HETATM   12  C   UNL     1     -12.010  15.814  69.256  1.00  0.00    -0.305 A  
HETATM   13  S   UNL     1      -9.513  15.321  69.499  1.00  0.00    -0.150 SA 
HETATM   14  C   UNL     1     -10.959  15.967  70.128  1.00  0.00    -0.367 A  
HETATM   15  S   UNL     1     -11.297  11.972  66.258  1.00  0.00    -0.338 SA 
ENDROOT
BRANCH   6  16
HETATM   16  O   UNL     1      -8.109  12.116  66.465  1.00  0.00    -0.051 OA 
BRANCH  16  17
HETATM   17  C   UNL     1      -7.578  10.838  66.853  1.00  0.00    -0.123 C  
HETATM   18  N   UNL     1      -8.807   8.607  66.512  1.00  0.00    -0.131 N  
HETATM   19  C   UNL     1      -8.638   9.870  67.441  1.00  0.00    -0.125 C  
HETATM   20  C   UNL     1      -7.437   7.919  66.404  1.00  0.00    -0.087 C  
HETATM   21  C   UNL     1      -9.234   9.116  65.128  1.00  0.00    -0.153 C  
HETATM   22  C   UNL     1      -6.368   8.889  65.929  1.00  0.00    -0.056 C  
HETATM   23  C   UNL     1      -8.118   9.989  64.549  1.00  0.00    -0.156 C  
HETATM   24  C   UNL     1      -6.991  10.229  65.572  1.00  0.00    -0.138 C  
BRANCH  18  25
HETATM   25  C   UNL     1      -9.907   7.715  67.159  1.00  0.00    -0.202 C  
BRANCH  25  26
HETATM   26  C   UNL     1      -9.661   7.193  68.584  1.00  0.00    -0.140 C  
BRANCH  26  27
HETATM   27  C   UNL     1     -10.773   7.522  69.570  1.00  0.00    -0.217 C  
BRANCH  27  28
HETATM   28  O   UNL     1     -10.345   8.410  70.592  1.00  0.00    -0.192 OA 
BRANCH  28  29
HETATM   29  C   UNL     1     -11.130   9.535  70.718  1.00  0.00    -0.323 A  
HETATM   30  C   UNL     1     -12.093   9.463  71.718  1.00  0.00    -0.454 A  
HETATM   31  C   UNL     1     -12.982  10.522  71.927  1.00  0.00    -0.553 A  
HETATM   32  C   UNL     1     -12.898  11.673  71.146  1.00  0.00    -0.392 A  
HETATM   33  C   UNL     1     -11.917  11.772  70.168  1.00  0.00    -0.421 A  
HETATM   34  C   UNL     1     -11.032  10.710  69.957  1.00  0.00    -0.325 A  
ENDBRANCH  28  29
ENDBRANCH  27  28
ENDBRANCH  26  27
ENDBRANCH  25  26
ENDBRANCH  18  25
ENDBRANCH  16  17
ENDBRANCH   6  16
TORSDOF 7
ENDMDL
MODEL       26
REMARK 921   NORMALIZED FREE ENERGY PREDICTED BY IDOCK:   -6.17 KCAL/MOL
REMARK 922        TOTAL FREE ENERGY PREDICTED BY IDOCK:  -10.35 KCAL/MOL
REMARK 923 INTER-LIGAND FREE ENERGY PREDICTED BY IDOCK:   -9.11 KCAL/MOL
REMARK 924 INTRA-LIGAND FREE ENERGY PREDICTED BY IDOCK:   -1.24 KCAL/MOL
REMARK 927      BINDING AFFINITY PREDICTED BY RF-SCORE:    0.00 PKD
ROOT
HETATM    1  O   UNL     1     -12.020   8.049  70.383  1.00  0.00    -0.481 OA 
HETATM    2  C   UNL     1     -10.652   7.615  70.389  1.00  0.00    -0.230 C  
HETATM    3  H   UNL     1     -12.574   7.278  70.351  1.00  0.00     0.000 HD 
HETATM    4  C   UNL     1     -10.430   6.886  69.058  1.00  0.00    -0.208 A  
HETATM    5  C   UNL     1     -10.517   6.691  71.597  1.00  0.00    -0.207 A  
HETATM    6  C   UNL     1      -9.734   8.893  70.440  1.00  0.00    -0.191 C  
HETATM    7  C   UNL     1      -9.418   5.794  67.073  1.00  0.00    -0.124 A  
HETATM    8  C   UNL     1     -11.364   6.545  68.091  1.00  0.00    -0.105 A  
HETATM    9  C   UNL     1     -10.558   5.303  71.633  1.00  0.00    -0.261 A  
HETATM   10  O   UNL     1      -9.261   9.448  71.425  1.00  0.00    -0.277 OA 
HETATM   11  C   UNL     1     -10.781   5.930  66.948  1.00  0.00    -0.395 A  
HETATM   12  C   UNL     1     -10.475   4.770  72.951  1.00  0.00    -0.257 A  
HETATM   13  S   UNL     1     -10.468   7.314  73.206  1.00  0.00    -0.389 SA 
HETATM   14  C   UNL     1     -10.399   5.759  73.901  1.00  0.00    -0.272 A  
HETATM   15  S   UNL     1      -8.852   6.361  68.581  1.00  0.00    -0.119 SA 
ENDROOT
BRANCH   6  16
HETATM   16  O   UNL     1      -9.547   9.422  69.187  1.00  0.00    -0.156 OA 
BRANCH  16  17
HETATM   17  C   UNL     1     -10.245  10.636  68.859  1.00  0.00    -0.201 C  
HETATM   18  N   UNL     1      -9.366  12.400  67.211  1.00  0.00    -0.179 N  
HETATM   19  C   UNL     1      -9.318  11.868  68.695  1.00  0.00    -0.069 C  
HETATM   20  C   UNL     1     -10.825  12.765  66.892  1.00  0.00    -0.253 C  
HETATM   21  C   UNL     1      -8.918  11.248  66.301  1.00  0.00    -0.197 C  
HETATM   22  C   UNL     1     -11.757  11.593  67.153  1.00  0.00    -0.215 C  
HETATM   23  C   UNL     1      -9.913  10.092  66.428  1.00  0.00    -0.295 C  
HETATM   24  C   UNL     1     -10.958  10.356  67.529  1.00  0.00    -0.358 C  
BRANCH  18  25
HETATM   25  C   UNL     1      -8.386  13.607  67.132  1.00  0.00    -0.137 C  
BRANCH  25  26
HETATM   26  C   UNL     1      -8.972  15.019  67.301  1.00  0.00    -0.212 C  
BRANCH  26  27
HETATM   27  C   UNL     1      -9.165  15.775  65.994  1.00  0.00    -0.344 C  
BRANCH  27  28
HETATM   28  O   UNL     1      -8.394  16.967  65.941  1.00  0.00    -0.515 OA 
BRANCH  28  29
HETATM   29  C   UNL     1      -8.967  18.031  66.604  1.00  0.00    -0.273 A  
HETATM   30  C   UNL     1      -8.234  18.503  67.687  1.00  0.00    -0.267 A  
HETATM   31  C   UNL     1      -8.721  19.555  68.470  1.00  0.00    -0.388 A  
HETATM   32  C   UNL     1      -9.938  20.157  68.158  1.00  0.00    -0.486 A  
HETATM   33  C   UNL     1     -10.661  19.719  67.057  1.00  0.00    -0.586 A  
HETATM   34  C   UNL     1     -10.176  18.664  66.278  1.00  0.00    -0.462 A  
ENDBRANCH  28  29
ENDBRANCH  27  28
ENDBRANCH  26  27
ENDBRANCH  25  26
ENDBRANCH  18  25
ENDBRANCH  16  17
ENDBRANCH   6  16
TORSDOF 7
ENDMDL
MODEL       27
REMARK 921   NORMALIZED FREE ENERGY PREDICTED BY IDOCK:   -6.16 KCAL/MOL
REMARK 922        TOTAL FREE ENERGY PREDICTED BY IDOCK:  -10.32 KCAL/MOL
REMARK 923 INTER-LIGAND FREE ENERGY PREDICTED BY IDOCK:   -9.56 KCAL/MOL
REMARK 924 INTRA-LIGAND FREE ENERGY PREDICTED BY IDOCK:   -0.77 KCAL/MOL
REMARK 927      BINDING AFFINITY PREDICTED BY RF-SCORE:    0.00 PKD
ROOT
HETATM    1  O   UNL     1     -11.769   6.712  68.897  1.00  0.00    -0.575 OA 
HETATM    2  C   UNL     1     -10.449   6.819  69.451  1.00  0.00    -0.217 C  
HETATM    3  H   UNL     1     -12.062   5.814  69.004  1.00  0.00     0.000 HD 
HETATM    4  C   UNL     1      -9.559   5.894  68.613  1.00  0.00    -0.123 A  
HETATM    5  C   UNL     1     -10.573   6.364  70.904  1.00  0.00    -0.236 A  
HETATM    6  C   UNL     1      -9.965   8.307  69.273  1.00  0.00    -0.192 C  
HETATM    7  C   UNL     1      -7.625   4.755  67.557  1.00  0.00    -0.082 A  
HETATM    8  C   UNL     1      -9.932   4.995  67.625  1.00  0.00    -0.202 A  
HETATM    9  C   UNL     1     -10.284   5.118  71.447  1.00  0.00    -0.282 A  
HETATM   10  O   UNL     1     -10.061   9.236  70.067  1.00  0.00    -0.187 OA 
HETATM   11  C   UNL     1      -8.821   4.351  67.012  1.00  0.00    -0.116 A  
HETATM   12  C   UNL     1     -10.591   5.022  72.834  1.00  0.00    -0.280 A  
HETATM   13  S   UNL     1     -11.303   7.366  72.103  1.00  0.00    -0.284 SA 
HETATM   14  C   UNL     1     -11.132   6.187  73.320  1.00  0.00    -0.132 A  
HETATM   15  S   UNL     1      -7.843   5.867  68.834  1.00  0.00    -0.096 SA 
ENDROOT
BRANCH   6  16
HETATM   16  O   UNL     1      -9.442   8.514  68.020  1.00  0.00    -0.139 OA 
BRANCH  16  17
HETATM   17  C   UNL     1     -10.265   9.185  67.051  1.00  0.00    -0.263 C  
HETATM   18  N   UNL     1     -10.719  11.714  67.054  1.00  0.00    -0.240 N  
HETATM   19  C   UNL     1     -11.142  10.316  67.649  1.00  0.00    -0.251 C  
HETATM   20  C   UNL     1     -10.882  11.642  65.527  1.00  0.00    -0.279 C  
HETATM   21  C   UNL     1      -9.238  11.924  67.400  1.00  0.00    -0.177 C  
HETATM   22  C   UNL     1     -10.111  10.469  64.944  1.00  0.00    -0.403 C  
HETATM   23  C   UNL     1      -8.404  10.840  66.713  1.00  0.00    -0.136 C  
HETATM   24  C   UNL     1      -9.293   9.784  66.027  1.00  0.00    -0.249 C  
BRANCH  18  25
HETATM   25  C   UNL     1     -11.623  12.785  67.731  1.00  0.00    -0.353 C  
BRANCH  25  26
HETATM   26  C   UNL     1     -11.219  13.286  69.128  1.00  0.00    -0.305 C  
BRANCH  26  27
HETATM   27  C   UNL     1     -10.895  14.772  69.188  1.00  0.00    -0.260 C  
BRANCH  27  28
HETATM   28  O   UNL     1     -12.043  15.566  69.451  1.00  0.00    -0.336 OA 
BRANCH  28  29
HETATM   29  C   UNL     1     -12.395  15.614  70.782  1.00  0.00    -0.419 A  
HETATM   30  C   UNL     1     -13.712  15.258  71.049  1.00  0.00    -0.452 A  
HETATM   31  C   UNL     1     -14.211  15.301  72.354  1.00  0.00    -0.579 A  
HETATM   32  C   UNL     1     -13.382  15.680  73.408  1.00  0.00    -0.553 A  
HETATM   33  C   UNL     1     -12.054  16.001  73.161  1.00  0.00    -0.616 A  
HETATM   34  C   UNL     1     -11.559  15.963  71.854  1.00  0.00    -0.542 A  
ENDBRANCH  28  29
ENDBRANCH  27  28
ENDBRANCH  26  27
ENDBRANCH  25  26
ENDBRANCH  18  25
ENDBRANCH  16  17
ENDBRANCH   6  16
TORSDOF 7
ENDMDL
MODEL       28
REMARK 921   NORMALIZED FREE ENERGY PREDICTED BY IDOCK:   -6.13 KCAL/MOL
REMARK 922        TOTAL FREE ENERGY PREDICTED BY IDOCK:  -10.28 KCAL/MOL
REMARK 923 INTER-LIGAND FREE ENERGY PREDICTED BY IDOCK:   -9.42 KCAL/MOL
REMARK 924 INTRA-LIGAND FREE ENERGY PREDICTED BY IDOCK:   -0.86 KCAL/MOL
REMARK 927      BINDING AFFINITY PREDICTED BY RF-SCORE:    0.00 PKD
ROOT
HETATM    1  O   UNL     1      -7.857   7.518  68.760  1.00  0.00    -0.116 OA 
HETATM    2  C   UNL     1      -9.249   7.199  68.909  1.00  0.00    -0.137 C  
HETATM    3  H   UNL     1      -7.364   6.973  69.362  1.00  0.00     0.000 HD 
HETATM    4  C   UNL     1      -9.620   7.573  70.350  1.00  0.00    -0.168 A  
HETATM    5  C   UNL     1      -9.360   5.700  68.640  1.00  0.00    -0.123 A  
HETATM    6  C   UNL     1     -10.066   8.103  67.912  1.00  0.00    -0.196 C  
HETATM    7  C   UNL     1     -10.850   8.126  72.431  1.00  0.00    -0.339 A  
HETATM    8  C   UNL     1      -8.786   7.979  71.381  1.00  0.00    -0.170 A  
HETATM    9  C   UNL     1      -9.417   4.659  69.558  1.00  0.00    -0.236 A  
HETATM   10  O   UNL     1     -10.424   7.840  66.770  1.00  0.00    -0.321 OA 
HETATM   11  C   UNL     1      -9.494   8.308  72.571  1.00  0.00    -0.356 A  
HETATM   12  C   UNL     1      -9.441   3.372  68.950  1.00  0.00    -0.201 A  
HETATM   13  S   UNL     1      -9.246   5.061  67.041  1.00  0.00    -0.125 SA 
HETATM   14  C   UNL     1      -9.375   3.450  67.580  1.00  0.00    -0.199 A  
HETATM   15  S   UNL     1     -11.262   7.516  70.890  1.00  0.00    -0.272 SA 
ENDROOT
BRANCH   6  16
HETATM   16  O   UNL     1     -10.306   9.344  68.448  1.00  0.00    -0.191 OA 
BRANCH  16  17
HETATM   17  C   UNL     1     -11.187  10.226  67.731  1.00  0.00    -0.190 C  
HETATM   18  N   UNL     1     -11.429  12.735  68.231  1.00  0.00    -0.290 N  
HETATM   19  C   UNL     1     -11.888  11.279  68.629  1.00  0.00    -0.300 C  
HETATM   20  C   UNL     1     -11.789  12.950  66.751  1.00  0.00    -0.385 C  
HETATM   21  C   UNL     1      -9.905  12.793  68.400  1.00  0.00    -0.196 C  
HETATM   22  C   UNL     1     -11.194  11.860  65.875  1.00  0.00    -0.373 C  
HETATM   23  C   UNL     1      -9.255  11.805  67.429  1.00  0.00    -0.174 C  
HETATM   24  C   UNL     1     -10.305  10.944  66.700  1.00  0.00    -0.289 C  
BRANCH  18  25
HETATM   25  C   UNL     1     -12.152  13.716  69.200  1.00  0.00    -0.319 C  
BRANCH  25  26
HETATM   26  C   UNL     1     -11.323  14.857  69.814  1.00  0.00    -0.314 C  
BRANCH  26  27
HETATM   27  C   UNL     1     -11.494  16.198  69.115  1.00  0.00    -0.311 C  
BRANCH  27  28
HETATM   28  O   UNL     1     -10.442  17.103  69.417  1.00  0.00    -0.321 OA 
BRANCH  28  29
HETATM   29  C   UNL     1     -10.267  18.091  68.473  1.00  0.00    -0.385 A  
HETATM   30  C   UNL     1     -10.603  17.720  67.175  1.00  0.00    -0.292 A  
HETATM   31  C   UNL     1     -10.437  18.616  66.114  1.00  0.00    -0.473 A  
HETATM   32  C   UNL     1      -9.953  19.901  66.351  1.00  0.00    -0.593 A  
HETATM   33  C   UNL     1      -9.649  20.295  67.647  1.00  0.00    -0.530 A  
HETATM   34  C   UNL     1      -9.810  19.397  68.706  1.00  0.00    -0.530 A  
ENDBRANCH  28  29
ENDBRANCH  27  28
ENDBRANCH  26  27
ENDBRANCH  25  26
ENDBRANCH  18  25
ENDBRANCH  16  17
ENDBRANCH   6  16
TORSDOF 7
ENDMDL
MODEL       29
REMARK 921   NORMALIZED FREE ENERGY PREDICTED BY IDOCK:   -6.08 KCAL/MOL
REMARK 922        TOTAL FREE ENERGY PREDICTED BY IDOCK:  -10.21 KCAL/MOL
REMARK 923 INTER-LIGAND FREE ENERGY PREDICTED BY IDOCK:   -9.16 KCAL/MOL
REMARK 924 INTRA-LIGAND FREE ENERGY PREDICTED BY IDOCK:   -1.05 KCAL/MOL
REMARK 927      BINDING AFFINITY PREDICTED BY RF-SCORE:    0.00 PKD
ROOT
HETATM    1  O   UNL     1      -9.577  13.306  69.093  1.00  0.00    -0.340 OA 
HETATM    2  C   UNL     1     -10.856  13.358  68.443  1.00  0.00    -0.264 C  
HETATM    3  H   UNL     1      -9.358  14.183  69.384  1.00  0.00     0.000 HD 
HETATM    4  C   UNL     1     -10.675  14.265  67.220  1.00  0.00    -0.277 A  
HETATM    5  C   UNL     1     -11.819  13.941  69.475  1.00  0.00    -0.329 A  
HETATM    6  C   UNL     1     -11.218  11.903  67.962  1.00  0.00    -0.257 C  
HETATM    7  C   UNL     1     -10.972  15.447  65.059  1.00  0.00    -0.436 A  
HETATM    8  C   UNL     1      -9.576  15.032  66.865  1.00  0.00    -0.251 A  
HETATM    9  C   UNL     1     -12.259  15.252  69.603  1.00  0.00    -0.304 A  
HETATM   10  O   UNL     1     -11.874  11.052  68.550  1.00  0.00    -0.460 OA 
HETATM   11  C   UNL     1      -9.742  15.700  65.620  1.00  0.00    -0.348 A  
HETATM   12  C   UNL     1     -13.101  15.458  70.732  1.00  0.00    -0.479 A  
HETATM   13  S   UNL     1     -12.385  13.005  70.809  1.00  0.00    -0.204 SA 
HETATM   14  C   UNL     1     -13.269  14.307  71.463  1.00  0.00    -0.348 A  
HETATM   15  S   UNL     1     -11.939  14.450  66.053  1.00  0.00    -0.333 SA 
ENDROOT
BRANCH   6  16
HETATM   16  O   UNL     1     -10.630  11.618  66.754  1.00  0.00    -0.225 OA 
BRANCH  16  17
HETATM   17  C   UNL     1      -9.246  11.232  66.755  1.00  0.00    -0.175 C  
HETATM   18  N   UNL     1      -8.418   8.848  67.239  1.00  0.00    -0.114 N  
HETATM   19  C   UNL     1      -8.878  10.218  67.870  1.00  0.00    -0.122 C  
HETATM   20  C   UNL     1      -7.207   9.133  66.335  1.00  0.00    -0.091 C  
HETATM   21  C   UNL     1      -9.582   8.329  66.384  1.00  0.00    -0.230 C  
HETATM   22  C   UNL     1      -7.526  10.204  65.306  1.00  0.00    -0.145 C  
HETATM   23  C   UNL     1      -9.846   9.316  65.244  1.00  0.00     0.042 C  
HETATM   24  C   UNL     1      -8.993  10.591  65.383  1.00  0.00    -0.207 C  
BRANCH  18  25
HETATM   25  C   UNL     1      -8.104   7.888  68.423  1.00  0.00    -0.123 C  
BRANCH  25  26
HETATM   26  C   UNL     1      -9.291   7.249  69.163  1.00  0.00    -0.146 C  
BRANCH  26  27
HETATM   27  C   UNL     1      -9.637   7.921  70.484  1.00  0.00    -0.170 C  
BRANCH  27  28
HETATM   28  O   UNL     1     -10.518   7.136  71.275  1.00  0.00    -0.206 OA 
BRANCH  28  29
HETATM   29  C   UNL     1     -11.733   7.738  71.521  1.00  0.00    -0.280 A  
HETATM   30  C   UNL     1     -12.830   6.887  71.442  1.00  0.00    -0.365 A  
HETATM   31  C   UNL     1     -14.126   7.377  71.631  1.00  0.00    -0.552 A  
HETATM   32  C   UNL     1     -14.329   8.724  71.924  1.00  0.00    -0.441 A  
HETATM   33  C   UNL     1     -13.240   9.577  72.042  1.00  0.00    -0.539 A  
HETATM   34  C   UNL     1     -11.945   9.086  71.847  1.00  0.00    -0.445 A  
ENDBRANCH  28  29
ENDBRANCH  27  28
ENDBRANCH  26  27
ENDBRANCH  25  26
ENDBRANCH  18  25
ENDBRANCH  16  17
ENDBRANCH   6  16
TORSDOF 7
ENDMDL
MODEL       30
REMARK 921   NORMALIZED FREE ENERGY PREDICTED BY IDOCK:   -6.05 KCAL/MOL
REMARK 922        TOTAL FREE ENERGY PREDICTED BY IDOCK:  -10.18 KCAL/MOL
REMARK 923 INTER-LIGAND FREE ENERGY PREDICTED BY IDOCK:   -9.02 KCAL/MOL
REMARK 924 INTRA-LIGAND FREE ENERGY PREDICTED BY IDOCK:   -1.16 KCAL/MOL
REMARK 927      BINDING AFFINITY PREDICTED BY RF-SCORE:    0.00 PKD
ROOT
HETATM    1  O   UNL     1      -9.462   7.933  65.390  1.00  0.00    -0.305 OA 
HETATM    2  C   UNL     1      -9.121   8.648  66.587  1.00  0.00    -0.165 C  
HETATM    3  H   UNL     1      -8.751   7.335  65.191  1.00  0.00     0.000 HD 
HETATM    4  C   UNL     1      -7.859   9.455  66.256  1.00  0.00    -0.100 A  
HETATM    5  C   UNL     1      -8.877   7.580  67.651  1.00  0.00    -0.128 A  
HETATM    6  C   UNL     1     -10.300   9.639  66.916  1.00  0.00    -0.238 C  
HETATM    7  C   UNL     1      -5.993  11.088  66.290  1.00  0.00    -0.143 A  
HETATM    8  C   UNL     1      -7.078   9.409  65.112  1.00  0.00    -0.100 A  
HETATM    9  C   UNL     1      -7.668   7.049  68.082  1.00  0.00    -0.113 A  
HETATM   10  O   UNL     1     -11.265   9.453  67.647  1.00  0.00    -0.030 OA 
HETATM   11  C   UNL     1      -6.014  10.355  65.127  1.00  0.00    -0.133 A  
HETATM   12  C   UNL     1      -7.819   6.008  69.042  1.00  0.00    -0.096 A  
HETATM   13  S   UNL     1     -10.184   6.718  68.377  1.00  0.00    -0.191 SA 
HETATM   14  C   UNL     1      -9.141   5.745  69.309  1.00  0.00    -0.118 A  
HETATM   15  S   UNL     1      -7.217  10.605  67.378  1.00  0.00    -0.094 SA 
ENDROOT
BRANCH   6  16
HETATM   16  O   UNL     1     -10.183  10.806  66.201  1.00  0.00    -0.237 OA 
BRANCH  16  17
HETATM   17  C   UNL     1     -11.280  11.733  66.245  1.00  0.00    -0.312 C  
HETATM   18  N   UNL     1     -11.054  14.252  65.791  1.00  0.00    -0.304 N  
HETATM   19  C   UNL     1     -10.916  13.107  66.866  1.00  0.00    -0.276 C  
HETATM   20  C   UNL     1     -12.506  14.247  65.286  1.00  0.00    -0.421 C  
HETATM   21  C   UNL     1     -10.109  13.903  64.633  1.00  0.00    -0.109 C  
HETATM   22  C   UNL     1     -12.907  12.873  64.772  1.00  0.00    -0.359 C  
HETATM   23  C   UNL     1     -10.564  12.589  63.993  1.00  0.00    -0.451 C  
HETATM   24  C   UNL     1     -11.712  11.935  64.786  1.00  0.00    -0.282 C  
BRANCH  18  25
HETATM   25  C   UNL     1     -10.639  15.580  66.489  1.00  0.00    -0.307 C  
BRANCH  25  26
HETATM   26  C   UNL     1     -10.292  15.525  67.986  1.00  0.00    -0.247 C  
BRANCH  26  27
HETATM   27  C   UNL     1     -11.345  16.146  68.894  1.00  0.00    -0.350 C  
BRANCH  27  28
HETATM   28  O   UNL     1     -12.284  15.190  69.365  1.00  0.00    -0.275 OA 
BRANCH  28  29
HETATM   29  C   UNL     1     -12.546  15.285  70.715  1.00  0.00    -0.417 A  
HETATM   30  C   UNL     1     -11.758  16.206  71.396  1.00  0.00    -0.506 A  
HETATM   31  C   UNL     1     -11.894  16.373  72.778  1.00  0.00    -0.531 A  
HETATM   32  C   UNL     1     -12.839  15.633  73.484  1.00  0.00    -0.696 A  
HETATM   33  C   UNL     1     -13.657  14.737  72.809  1.00  0.00    -0.542 A  
HETATM   34  C   UNL     1     -13.516  14.566  71.429  1.00  0.00    -0.445 A  
ENDBRANCH  28  29
ENDBRANCH  27  28
ENDBRANCH  26  27
ENDBRANCH  25  26
ENDBRANCH  18  25
ENDBRANCH  16  17
ENDBRANCH   6  16
TORSDOF 7
ENDMDL
MODEL       31
REMARK 921   NORMALIZED FREE ENERGY PREDICTED BY IDOCK:   -6.02 KCAL/MOL
REMARK 922        TOTAL FREE ENERGY PREDICTED BY IDOCK:  -10.13 KCAL/MOL
REMARK 923 INTER-LIGAND FREE ENERGY PREDICTED BY IDOCK:   -8.74 KCAL/MOL
REMARK 924 INTRA-LIGAND FREE ENERGY PREDICTED BY IDOCK:   -1.38 KCAL/MOL
REMARK 927      BINDING AFFINITY PREDICTED BY RF-SCORE:    0.00 PKD
ROOT
HETATM    1  O   UNL     1     -10.652   8.071  71.068  1.00  0.00    -0.210 OA 
HETATM    2  C   UNL     1      -9.384   7.728  70.489  1.00  0.00    -0.163 C  
HETATM    3  H   UNL     1     -11.138   7.267  71.211  1.00  0.00     0.000 HD 
HETATM    4  C   UNL     1      -9.696   7.078  69.135  1.00  0.00    -0.156 A  
HETATM    5  C   UNL     1      -8.729   6.761  71.472  1.00  0.00    -0.127 A  
HETATM    6  C   UNL     1      -8.580   9.061  70.252  1.00  0.00    -0.178 C  
HETATM    7  C   UNL     1      -9.540   6.148  66.841  1.00  0.00    -0.142 A  
HETATM    8  C   UNL     1     -10.929   6.722  68.610  1.00  0.00    -0.261 A  
HETATM    9  C   UNL     1      -8.694   5.373  71.425  1.00  0.00    -0.136 A  
HETATM   10  O   UNL     1      -7.769   9.599  70.996  1.00  0.00    -0.323 OA 
HETATM   11  C   UNL     1     -10.839   6.199  67.289  1.00  0.00    -0.438 A  
HETATM   12  C   UNL     1      -8.057   4.786  72.555  1.00  0.00    -0.111 A  
HETATM   13  S   UNL     1      -8.052   7.310  72.961  1.00  0.00    -0.109 SA 
HETATM   14  C   UNL     1      -7.641   5.734  73.459  1.00  0.00    -0.101 A  
HETATM   15  S   UNL     1      -8.430   6.681  68.025  1.00  0.00    -0.115 SA 
ENDROOT
BRANCH   6  16
HETATM   16  O   UNL     1      -8.943   9.658  69.070  1.00  0.00    -0.136 OA 
BRANCH  16  17
HETATM   17  C   UNL     1      -9.721  10.866  69.139  1.00  0.00    -0.122 C  
HETATM   18  N   UNL     1     -10.103  12.446  67.150  1.00  0.00    -0.212 N  
HETATM   19  C   UNL     1      -9.128  12.042  68.322  1.00  0.00    -0.190 C  
HETATM   20  C   UNL     1     -11.450  12.840  67.778  1.00  0.00    -0.326 C  
HETATM   21  C   UNL     1     -10.294  11.204  66.270  1.00  0.00    -0.249 C  
HETATM   22  C   UNL     1     -11.989  11.731  68.668  1.00  0.00    -0.299 C  
HETATM   23  C   UNL     1     -10.966  10.103  67.093  1.00  0.00    -0.204 C  
HETATM   24  C   UNL     1     -11.102  10.501  68.576  1.00  0.00    -0.329 C  
BRANCH  18  25
HETATM   25  C   UNL     1      -9.415  13.604  66.368  1.00  0.00    -0.234 C  
BRANCH  25  26
HETATM   26  C   UNL     1     -10.269  14.402  65.370  1.00  0.00    -0.408 C  
BRANCH  26  27
HETATM   27  C   UNL     1     -10.166  15.912  65.528  1.00  0.00    -0.365 C  
BRANCH  27  28
HETATM   28  O   UNL     1     -10.746  16.369  66.742  1.00  0.00    -0.281 OA 
BRANCH  28  29
HETATM   29  C   UNL     1     -10.385  17.654  67.083  1.00  0.00    -0.343 A  
HETATM   30  C   UNL     1     -10.526  18.588  66.062  1.00  0.00    -0.433 A  
HETATM   31  C   UNL     1     -10.158  19.922  66.263  1.00  0.00    -0.613 A  
HETATM   32  C   UNL     1      -9.667  20.335  67.500  1.00  0.00    -0.575 A  
HETATM   33  C   UNL     1      -9.557  19.420  68.538  1.00  0.00    -0.472 A  
HETATM   34  C   UNL     1      -9.919  18.086  68.334  1.00  0.00    -0.382 A  
ENDBRANCH  28  29
ENDBRANCH  27  28
ENDBRANCH  26  27
ENDBRANCH  25  26
ENDBRANCH  18  25
ENDBRANCH  16  17
ENDBRANCH   6  16
TORSDOF 7
ENDMDL
MODEL       32
REMARK 921   NORMALIZED FREE ENERGY PREDICTED BY IDOCK:   -5.99 KCAL/MOL
REMARK 922        TOTAL FREE ENERGY PREDICTED BY IDOCK:  -10.10 KCAL/MOL
REMARK 923 INTER-LIGAND FREE ENERGY PREDICTED BY IDOCK:   -8.68 KCAL/MOL
REMARK 924 INTRA-LIGAND FREE ENERGY PREDICTED BY IDOCK:   -1.42 KCAL/MOL
REMARK 927      BINDING AFFINITY PREDICTED BY RF-SCORE:    0.00 PKD
ROOT
HETATM    1  O   UNL     1      -9.500  14.479  69.603  1.00  0.00    -0.386 OA 
HETATM    2  C   UNL     1     -10.914  14.503  69.356  1.00  0.00    -0.249 C  
HETATM    3  H   UNL     1      -9.335  13.865  70.309  1.00  0.00     0.000 HD 
HETATM    4  C   UNL     1     -11.563  15.026  70.643  1.00  0.00    -0.311 A  
HETATM    5  C   UNL     1     -11.304  13.060  69.043  1.00  0.00    -0.289 A  
HETATM    6  C   UNL     1     -11.188  15.520  68.185  1.00  0.00    -0.343 C  
HETATM    7  C   UNL     1     -13.144  15.960  72.311  1.00  0.00    -0.391 A  
HETATM    8  C   UNL     1     -10.970  15.278  71.871  1.00  0.00    -0.025 A  
HETATM    9  C   UNL     1     -11.856  12.109  69.892  1.00  0.00    -0.392 A  
HETATM   10  O   UNL     1     -11.274  15.290  66.985  1.00  0.00    -0.330 OA 
HETATM   11  C   UNL     1     -11.875  15.825  72.823  1.00  0.00    -0.584 A  
HETATM   12  C   UNL     1     -12.021  10.834  69.282  1.00  0.00    -0.334 A  
HETATM   13  S   UNL     1     -10.915  12.330  67.528  1.00  0.00    -0.269 SA 
HETATM   14  C   UNL     1     -11.568  10.824  67.985  1.00  0.00    -0.163 A  
HETATM   15  S   UNL     1     -13.255  15.384  70.707  1.00  0.00    -0.278 SA 
ENDROOT
BRANCH   6  16
HETATM   16  O   UNL     1     -11.261  16.809  68.653  1.00  0.00    -0.298 OA 
BRANCH  16  17
HETATM   17  C   UNL     1     -10.030  17.532  68.825  1.00  0.00    -0.342 C  
HETATM   18  N   UNL     1      -8.589  18.399  66.882  1.00  0.00    -0.263 N  
HETATM   19  C   UNL     1      -8.934  17.159  67.792  1.00  0.00    -0.226 C  
HETATM   20  C   UNL     1      -8.112  19.536  67.801  1.00  0.00    -0.296 C  
HETATM   21  C   UNL     1      -9.887  18.821  66.180  1.00  0.00    -0.299 C  
HETATM   22  C   UNL     1      -9.136  19.837  68.883  1.00  0.00    -0.198 C  
HETATM   23  C   UNL     1     -10.904  19.268  67.232  1.00  0.00    -0.554 C  
HETATM   24  C   UNL     1     -10.395  19.014  68.663  1.00  0.00    -0.273 C  
BRANCH  18  25
HETATM   25  C   UNL     1      -7.513  17.925  65.861  1.00  0.00    -0.177 C  
BRANCH  25  26
HETATM   26  C   UNL     1      -6.043  18.268  66.158  1.00  0.00    -0.235 C  
BRANCH  26  27
HETATM   27  C   UNL     1      -5.302  17.201  66.952  1.00  0.00    -0.170 C  
BRANCH  27  28
HETATM   28  O   UNL     1      -5.870  15.910  66.783  1.00  0.00    -0.219 OA 
BRANCH  28  29
HETATM   29  C   UNL     1      -5.881  15.151  67.934  1.00  0.00    -0.143 A  
HETATM   30  C   UNL     1      -5.747  15.879  69.111  1.00  0.00    -0.116 A  
HETATM   31  C   UNL     1      -5.703  15.229  70.348  1.00  0.00    -0.132 A  
HETATM   32  C   UNL     1      -5.816  13.842  70.415  1.00  0.00    -0.162 A  
HETATM   33  C   UNL     1      -5.987  13.107  69.249  1.00  0.00    -0.095 A  
HETATM   34  C   UNL     1      -6.025  13.758  68.013  1.00  0.00    -0.135 A  
ENDBRANCH  28  29
ENDBRANCH  27  28
ENDBRANCH  26  27
ENDBRANCH  25  26
ENDBRANCH  18  25
ENDBRANCH  16  17
ENDBRANCH   6  16
TORSDOF 7
ENDMDL
MODEL       33
REMARK 921   NORMALIZED FREE ENERGY PREDICTED BY IDOCK:   -5.98 KCAL/MOL
REMARK 922        TOTAL FREE ENERGY PREDICTED BY IDOCK:  -10.08 KCAL/MOL
REMARK 923 INTER-LIGAND FREE ENERGY PREDICTED BY IDOCK:   -8.83 KCAL/MOL
REMARK 924 INTRA-LIGAND FREE ENERGY PREDICTED BY IDOCK:   -1.25 KCAL/MOL
REMARK 927      BINDING AFFINITY PREDICTED BY RF-SCORE:    0.00 PKD
ROOT
HETATM    1  O   UNL     1     -11.367   7.333  68.585  1.00  0.00    -0.440 OA 
HETATM    2  C   UNL     1     -10.526   7.841  69.632  1.00  0.00    -0.229 C  
HETATM    3  H   UNL     1     -11.081   6.450  68.379  1.00  0.00     0.000 HD 
HETATM    4  C   UNL     1      -9.107   7.891  69.052  1.00  0.00    -0.144 A  
HETATM    5  C   UNL     1     -10.658   6.850  70.786  1.00  0.00    -0.220 A  
HETATM    6  C   UNL     1     -11.000   9.304  69.971  1.00  0.00    -0.229 C  
HETATM    7  C   UNL     1      -6.706   8.371  68.654  1.00  0.00    -0.059 A  
HETATM    8  C   UNL     1      -8.650   7.403  67.837  1.00  0.00    -0.125 A  
HETATM    9  C   UNL     1      -9.808   5.807  71.132  1.00  0.00    -0.227 A  
HETATM   10  O   UNL     1     -11.796   9.662  70.831  1.00  0.00    -0.287 OA 
HETATM   11  C   UNL     1      -7.276   7.690  67.604  1.00  0.00    -0.087 A  
HETATM   12  C   UNL     1     -10.282   5.031  72.227  1.00  0.00    -0.257 A  
HETATM   13  S   UNL     1     -12.076   6.794  71.767  1.00  0.00    -0.354 SA 
HETATM   14  C   UNL     1     -11.499   5.478  72.682  1.00  0.00    -0.272 A  
HETATM   15  S   UNL     1      -7.809   8.621  69.933  1.00  0.00    -0.097 SA 
ENDROOT
BRANCH   6  16
HETATM   16  O   UNL     1     -10.452  10.218  69.105  1.00  0.00    -0.196 OA 
BRANCH  16  17
HETATM   17  C   UNL     1     -11.323  10.840  68.146  1.00  0.00    -0.308 C  
HETATM   18  N   UNL     1     -11.268  13.342  67.563  1.00  0.00    -0.274 N  
HETATM   19  C   UNL     1     -11.811  12.252  68.565  1.00  0.00    -0.307 C  
HETATM   20  C   UNL     1     -11.776  12.981  66.158  1.00  0.00    -0.394 C  
HETATM   21  C   UNL     1      -9.736  13.258  67.590  1.00  0.00    -0.219 C  
HETATM   22  C   UNL     1     -11.393  11.559  65.781  1.00  0.00    -0.160 C  
HETATM   23  C   UNL     1      -9.300  11.883  67.081  1.00  0.00    -0.180 C  
HETATM   24  C   UNL     1     -10.505  10.950  66.853  1.00  0.00    -0.299 C  
BRANCH  18  25
HETATM   25  C   UNL     1     -11.776  14.721  68.078  1.00  0.00    -0.333 C  
BRANCH  25  26
HETATM   26  C   UNL     1     -11.177  15.264  69.386  1.00  0.00    -0.291 C  
BRANCH  26  27
HETATM   27  C   UNL     1     -10.829  16.745  69.346  1.00  0.00    -0.250 C  
BRANCH  27  28
HETATM   28  O   UNL     1      -9.513  16.978  68.865  1.00  0.00    -0.266 OA 
BRANCH  28  29
HETATM   29  C   UNL     1      -9.415  18.051  68.006  1.00  0.00    -0.284 A  
HETATM   30  C   UNL     1     -10.532  18.256  67.202  1.00  0.00    -0.417 A  
HETATM   31  C   UNL     1     -10.549  19.286  66.258  1.00  0.00    -0.545 A  
HETATM   32  C   UNL     1      -9.452  20.136  66.128  1.00  0.00    -0.403 A  
HETATM   33  C   UNL     1      -8.347  19.965  66.949  1.00  0.00    -0.366 A  
HETATM   34  C   UNL     1      -8.329  18.930  67.889  1.00  0.00    -0.310 A  
ENDBRANCH  28  29
ENDBRANCH  27  28
ENDBRANCH  26  27
ENDBRANCH  25  26
ENDBRANCH  18  25
ENDBRANCH  16  17
ENDBRANCH   6  16
TORSDOF 7
ENDMDL
MODEL       34
REMARK 921   NORMALIZED FREE ENERGY PREDICTED BY IDOCK:   -5.97 KCAL/MOL
REMARK 922        TOTAL FREE ENERGY PREDICTED BY IDOCK:  -10.06 KCAL/MOL
REMARK 923 INTER-LIGAND FREE ENERGY PREDICTED BY IDOCK:   -8.24 KCAL/MOL
REMARK 924 INTRA-LIGAND FREE ENERGY PREDICTED BY IDOCK:   -1.82 KCAL/MOL
REMARK 927      BINDING AFFINITY PREDICTED BY RF-SCORE:    0.00 PKD
ROOT
HETATM    1  O   UNL     1      -8.058   7.290  68.876  1.00  0.00    -0.124 OA 
HETATM    2  C   UNL     1      -9.445   6.945  69.007  1.00  0.00    -0.137 C  
HETATM    3  H   UNL     1      -7.582   6.875  69.587  1.00  0.00     0.000 HD 
HETATM    4  C   UNL     1      -9.909   7.540  70.342  1.00  0.00    -0.183 A  
HETATM    5  C   UNL     1      -9.493   5.418  68.993  1.00  0.00    -0.133 A  
HETATM    6  C   UNL     1     -10.232   7.633  67.830  1.00  0.00    -0.201 C  
HETATM    7  C   UNL     1     -11.272   8.387  72.233  1.00  0.00    -0.376 A  
HETATM    8  C   UNL     1      -9.148   8.149  71.329  1.00  0.00    -0.185 A  
HETATM    9  C   UNL     1      -9.569   4.545  70.071  1.00  0.00    -0.267 A  
HETATM   10  O   UNL     1     -10.517   7.166  66.733  1.00  0.00    -0.271 OA 
HETATM   11  C   UNL     1      -9.932   8.645  72.408  1.00  0.00    -0.320 A  
HETATM   12  C   UNL     1      -9.518   3.174  69.692  1.00  0.00    -0.191 A  
HETATM   13  S   UNL     1      -9.269   4.523  67.535  1.00  0.00    -0.147 SA 
HETATM   14  C   UNL     1      -9.377   3.023  68.334  1.00  0.00    -0.187 A  
HETATM   15  S   UNL     1     -11.577   7.509  70.801  1.00  0.00    -0.248 SA 
ENDROOT
BRANCH   6  16
HETATM   16  O   UNL     1     -10.542   8.936  68.133  1.00  0.00    -0.214 OA 
BRANCH  16  17
HETATM   17  C   UNL     1      -9.727   9.971  67.557  1.00  0.00    -0.159 C  
HETATM   18  N   UNL     1     -10.665  12.099  66.465  1.00  0.00    -0.247 N  
HETATM   19  C   UNL     1     -10.311  10.577  66.254  1.00  0.00    -0.212 C  
HETATM   20  C   UNL     1      -9.375  12.826  66.878  1.00  0.00    -0.234 C  
HETATM   21  C   UNL     1     -11.683  12.173  67.611  1.00  0.00    -0.316 C  
HETATM   22  C   UNL     1      -8.738  12.173  68.093  1.00  0.00    -0.185 C  
HETATM   23  C   UNL     1     -11.032  11.652  68.894  1.00  0.00    -0.282 C  
HETATM   24  C   UNL     1      -9.632  11.066  68.628  1.00  0.00    -0.198 C  
BRANCH  18  25
HETATM   25  C   UNL     1     -11.272  12.611  65.126  1.00  0.00    -0.301 C  
BRANCH  25  26
HETATM   26  C   UNL     1     -10.648  13.864  64.489  1.00  0.00    -0.375 C  
BRANCH  26  27
HETATM   27  C   UNL     1     -11.496  15.121  64.626  1.00  0.00    -0.362 C  
BRANCH  27  28
HETATM   28  O   UNL     1     -10.725  16.256  64.994  1.00  0.00    -0.600 OA 
BRANCH  28  29
HETATM   29  C   UNL     1     -10.267  16.221  66.293  1.00  0.00    -0.327 A  
HETATM   30  C   UNL     1      -8.914  16.507  66.440  1.00  0.00    -0.340 A  
HETATM   31  C   UNL     1      -8.312  16.467  67.702  1.00  0.00    -0.175 A  
HETATM   32  C   UNL     1      -9.069  16.162  68.831  1.00  0.00    -0.246 A  
HETATM   33  C   UNL     1     -10.428  15.911  68.702  1.00  0.00    -0.240 A  
HETATM   34  C   UNL     1     -11.028  15.945  67.439  1.00  0.00    -0.257 A  
ENDBRANCH  28  29
ENDBRANCH  27  28
ENDBRANCH  26  27
ENDBRANCH  25  26
ENDBRANCH  18  25
ENDBRANCH  16  17
ENDBRANCH   6  16
TORSDOF 7
ENDMDL
MODEL       35
REMARK 921   NORMALIZED FREE ENERGY PREDICTED BY IDOCK:   -5.95 KCAL/MOL
REMARK 922        TOTAL FREE ENERGY PREDICTED BY IDOCK:  -10.04 KCAL/MOL
REMARK 923 INTER-LIGAND FREE ENERGY PREDICTED BY IDOCK:   -8.53 KCAL/MOL
REMARK 924 INTRA-LIGAND FREE ENERGY PREDICTED BY IDOCK:   -1.51 KCAL/MOL
REMARK 927      BINDING AFFINITY PREDICTED BY RF-SCORE:    0.00 PKD
ROOT
HETATM    1  O   UNL     1      -8.174   6.208  69.960  1.00  0.00    -0.119 OA 
HETATM    2  C   UNL     1      -9.566   5.856  69.949  1.00  0.00    -0.158 C  
HETATM    3  H   UNL     1      -7.811   5.947  70.798  1.00  0.00     0.000 HD 
HETATM    4  C   UNL     1     -10.222   6.679  71.064  1.00  0.00    -0.191 A  
HETATM    5  C   UNL     1      -9.614   4.354  70.217  1.00  0.00    -0.193 A  
HETATM    6  C   UNL     1     -10.169   6.291  68.560  1.00  0.00    -0.176 C  
HETATM    7  C   UNL     1     -11.851   7.829  72.541  1.00  0.00    -0.302 A  
HETATM    8  C   UNL     1      -9.616   7.482  72.019  1.00  0.00    -0.189 A  
HETATM    9  C   UNL     1      -9.851   3.697  71.418  1.00  0.00    -0.219 A  
HETATM   10  O   UNL     1     -10.287   5.619  67.542  1.00  0.00    -0.186 OA 
HETATM   11  C   UNL     1     -10.552   8.150  72.858  1.00  0.00    -0.327 A  
HETATM   12  C   UNL     1      -9.746   2.281  71.317  1.00  0.00    -0.201 A  
HETATM   13  S   UNL     1      -9.177   3.208  69.004  1.00  0.00    -0.162 SA 
HETATM   14  C   UNL     1      -9.405   1.881  70.047  1.00  0.00    -0.097 A  
HETATM   15  S   UNL     1     -11.940   6.690  71.271  1.00  0.00    -0.325 SA 
ENDROOT
BRANCH   6  16
HETATM   16  O   UNL     1     -10.518   7.619  68.563  1.00  0.00    -0.200 OA 
BRANCH  16  17
HETATM   17  C   UNL     1      -9.940   8.467  67.555  1.00  0.00    -0.200 C  
HETATM   18  N   UNL     1     -10.293  11.009  67.441  1.00  0.00    -0.198 N  
HETATM   19  C   UNL     1     -10.885   9.596  67.069  1.00  0.00    -0.078 C  
HETATM   20  C   UNL     1      -8.911  11.126  66.777  1.00  0.00    -0.165 C  
HETATM   21  C   UNL     1     -10.131  11.045  68.967  1.00  0.00    -0.180 C  
HETATM   22  C   UNL     1      -8.012   9.964  67.165  1.00  0.00    -0.109 C  
HETATM   23  C   UNL     1      -9.120   9.977  69.389  1.00  0.00    -0.228 C  
HETATM   24  C   UNL     1      -8.696   9.090  68.203  1.00  0.00    -0.130 C  
BRANCH  18  25
HETATM   25  C   UNL     1     -11.317  12.073  66.948  1.00  0.00    -0.341 C  
BRANCH  25  26
HETATM   26  C   UNL     1     -10.886  13.548  66.968  1.00  0.00    -0.287 C  
BRANCH  26  27
HETATM   27  C   UNL     1     -11.701  14.423  67.910  1.00  0.00    -0.356 C  
BRANCH  27  28
HETATM   28  O   UNL     1     -11.124  14.509  69.205  1.00  0.00    -0.244 OA 
BRANCH  28  29
HETATM   29  C   UNL     1     -12.040  14.419  70.230  1.00  0.00    -0.331 A  
HETATM   30  C   UNL     1     -12.240  13.132  70.719  1.00  0.00    -0.375 A  
HETATM   31  C   UNL     1     -13.171  12.894  71.735  1.00  0.00    -0.479 A  
HETATM   32  C   UNL     1     -13.895  13.951  72.284  1.00  0.00    -0.669 A  
HETATM   33  C   UNL     1     -13.677  15.244  71.830  1.00  0.00    -0.605 A  
HETATM   34  C   UNL     1     -12.750  15.480  70.811  1.00  0.00    -0.511 A  
ENDBRANCH  28  29
ENDBRANCH  27  28
ENDBRANCH  26  27
ENDBRANCH  25  26
ENDBRANCH  18  25
ENDBRANCH  16  17
ENDBRANCH   6  16
TORSDOF 7
ENDMDL
MODEL       36
REMARK 921   NORMALIZED FREE ENERGY PREDICTED BY IDOCK:   -5.94 KCAL/MOL
REMARK 922        TOTAL FREE ENERGY PREDICTED BY IDOCK:  -10.03 KCAL/MOL
REMARK 923 INTER-LIGAND FREE ENERGY PREDICTED BY IDOCK:   -9.02 KCAL/MOL
REMARK 924 INTRA-LIGAND FREE ENERGY PREDICTED BY IDOCK:   -1.01 KCAL/MOL
REMARK 927      BINDING AFFINITY PREDICTED BY RF-SCORE:    0.00 PKD
ROOT
HETATM    1  O   UNL     1      -9.828  11.019  69.433  1.00  0.00    -0.412 OA 
HETATM    2  C   UNL     1      -8.868  10.443  68.534  1.00  0.00    -0.142 C  
HETATM    3  H   UNL     1      -9.858  10.481  70.216  1.00  0.00     0.000 HD 
HETATM    4  C   UNL     1      -9.405   9.053  68.171  1.00  0.00    -0.142 A  
HETATM    5  C   UNL     1      -7.556  10.386  69.312  1.00  0.00    -0.132 A  
HETATM    6  C   UNL     1      -8.819  11.335  67.237  1.00  0.00    -0.150 C  
HETATM    7  C   UNL     1      -9.814   6.860  67.087  1.00  0.00    -0.165 A  
HETATM    8  C   UNL     1     -10.495   8.380  68.702  1.00  0.00    -0.197 A  
HETATM    9  C   UNL     1      -6.998   9.308  69.987  1.00  0.00    -0.060 A  
HETATM   10  O   UNL     1      -8.064  12.268  66.986  1.00  0.00    -0.176 OA 
HETATM   11  C   UNL     1     -10.736   7.128  68.071  1.00  0.00    -0.232 A  
HETATM   12  C   UNL     1      -5.792   9.633  70.672  1.00  0.00    -0.066 A  
HETATM   13  S   UNL     1      -6.623  11.806  69.612  1.00  0.00    -0.030 SA 
HETATM   14  C   UNL     1      -5.464  10.959  70.529  1.00  0.00    -0.105 A  
HETATM   15  S   UNL     1      -8.635   8.089  66.958  1.00  0.00    -0.130 SA 
ENDROOT
BRANCH   6  16
HETATM   16  O   UNL     1      -9.822  10.998  66.362  1.00  0.00    -0.200 OA 
BRANCH  16  17
HETATM   17  C   UNL     1     -11.027  11.782  66.388  1.00  0.00    -0.294 C  
HETATM   18  N   UNL     1     -11.131  14.280  65.799  1.00  0.00    -0.304 N  
HETATM   19  C   UNL     1     -10.828  13.222  66.928  1.00  0.00    -0.276 C  
HETATM   20  C   UNL     1     -12.580  14.065  65.333  1.00  0.00    -0.505 C  
HETATM   21  C   UNL     1     -10.172  13.990  64.637  1.00  0.00    -0.210 C  
HETATM   22  C   UNL     1     -12.813  12.627  64.901  1.00  0.00    -0.312 C  
HETATM   23  C   UNL     1     -10.469  12.597  64.077  1.00  0.00    -0.443 C  
HETATM   24  C   UNL     1     -11.509  11.848  64.932  1.00  0.00    -0.315 C  
BRANCH  18  25
HETATM   25  C   UNL     1     -10.874  15.686  66.418  1.00  0.00    -0.252 C  
BRANCH  25  26
HETATM   26  C   UNL     1     -10.155  15.752  67.775  1.00  0.00    -0.238 C  
BRANCH  26  27
HETATM   27  C   UNL     1     -11.056  16.140  68.939  1.00  0.00    -0.347 C  
BRANCH  27  28
HETATM   28  O   UNL     1     -10.824  15.342  70.092  1.00  0.00    -0.273 OA 
BRANCH  28  29
HETATM   29  C   UNL     1     -11.893  15.293  70.960  1.00  0.00    -0.345 A  
HETATM   30  C   UNL     1     -11.547  15.254  72.306  1.00  0.00    -0.530 A  
HETATM   31  C   UNL     1     -12.534  15.164  73.292  1.00  0.00    -0.598 A  
HETATM   32  C   UNL     1     -13.881  15.135  72.935  1.00  0.00    -0.405 A  
HETATM   33  C   UNL     1     -14.241  15.210  71.596  1.00  0.00    -0.664 A  
HETATM   34  C   UNL     1     -13.252  15.295  70.611  1.00  0.00    -0.370 A  
ENDBRANCH  28  29
ENDBRANCH  27  28
ENDBRANCH  26  27
ENDBRANCH  25  26
ENDBRANCH  18  25
ENDBRANCH  16  17
ENDBRANCH   6  16
TORSDOF 7
ENDMDL
MODEL       37
REMARK 921   NORMALIZED FREE ENERGY PREDICTED BY IDOCK:   -5.92 KCAL/MOL
REMARK 922        TOTAL FREE ENERGY PREDICTED BY IDOCK:   -9.99 KCAL/MOL
REMARK 923 INTER-LIGAND FREE ENERGY PREDICTED BY IDOCK:   -8.61 KCAL/MOL
REMARK 924 INTRA-LIGAND FREE ENERGY PREDICTED BY IDOCK:   -1.38 KCAL/MOL
REMARK 927      BINDING AFFINITY PREDICTED BY RF-SCORE:    0.00 PKD
ROOT
HETATM    1  O   UNL     1      -8.727  13.660  66.415  1.00  0.00    -0.443 OA 
HETATM    2  C   UNL     1     -10.125  13.953  66.557  1.00  0.00    -0.286 C  
HETATM    3  H   UNL     1      -8.418  14.078  65.620  1.00  0.00     0.000 HD 
HETATM    4  C   UNL     1     -10.820  13.316  65.348  1.00  0.00    -0.291 A  
HETATM    5  C   UNL     1     -10.229  15.476  66.564  1.00  0.00    -0.283 A  
HETATM    6  C   UNL     1     -10.637  13.259  67.875  1.00  0.00    -0.238 C  
HETATM    7  C   UNL     1     -12.495  12.386  63.773  1.00  0.00    -0.492 A  
HETATM    8  C   UNL     1     -10.246  12.717  64.236  1.00  0.00    -0.352 A  
HETATM    9  C   UNL     1     -10.550  16.326  65.512  1.00  0.00    -0.369 A  
HETATM   10  O   UNL     1     -10.718  13.736  69.001  1.00  0.00    -0.240 OA 
HETATM   11  C   UNL     1     -11.208  12.173  63.339  1.00  0.00    -0.494 A  
HETATM   12  C   UNL     1     -10.478  17.705  65.858  1.00  0.00    -0.247 A  
HETATM   13  S   UNL     1      -9.756  16.406  67.939  1.00  0.00    -0.237 SA 
HETATM   14  C   UNL     1     -10.078  17.886  67.160  1.00  0.00    -0.340 A  
HETATM   15  S   UNL     1     -12.545  13.279  65.228  1.00  0.00    -0.412 SA 
ENDROOT
BRANCH   6  16
HETATM   16  O   UNL     1     -10.949  11.940  67.654  1.00  0.00    -0.212 OA 
BRANCH  16  17
HETATM   17  C   UNL     1     -10.388  10.959  68.541  1.00  0.00    -0.187 C  
HETATM   18  N   UNL     1     -10.174   8.462  67.975  1.00  0.00    -0.203 N  
HETATM   19  C   UNL     1     -11.126   9.595  68.518  1.00  0.00    -0.041 C  
HETATM   20  C   UNL     1      -8.944   8.403  68.896  1.00  0.00    -0.146 C  
HETATM   21  C   UNL     1      -9.736   8.875  66.563  1.00  0.00    -0.254 C  
HETATM   22  C   UNL     1      -8.274   9.763  69.009  1.00  0.00    -0.121 C  
HETATM   23  C   UNL     1      -8.932  10.175  66.648  1.00  0.00    -0.156 C  
HETATM   24  C   UNL     1      -8.939  10.759  68.074  1.00  0.00    -0.139 C  
BRANCH  18  25
HETATM   25  C   UNL     1     -11.005   7.145  67.955  1.00  0.00    -0.084 C  
BRANCH  25  26
HETATM   26  C   UNL     1     -10.248   5.817  68.116  1.00  0.00    -0.235 C  
BRANCH  26  27
HETATM   27  C   UNL     1     -10.327   5.219  69.514  1.00  0.00    -0.263 C  
BRANCH  27  28
HETATM   28  O   UNL     1     -11.204   5.945  70.363  1.00  0.00    -0.321 OA 
BRANCH  28  29
HETATM   29  C   UNL     1     -10.719   6.127  71.640  1.00  0.00    -0.245 A  
HETATM   30  C   UNL     1     -11.199   5.220  72.578  1.00  0.00    -0.272 A  
HETATM   31  C   UNL     1     -10.818   5.316  73.920  1.00  0.00    -0.269 A  
HETATM   32  C   UNL     1      -9.931   6.311  74.327  1.00  0.00    -0.324 A  
HETATM   33  C   UNL     1      -9.416   7.199  73.394  1.00  0.00    -0.234 A  
HETATM   34  C   UNL     1      -9.803   7.106  72.054  1.00  0.00    -0.174 A  
ENDBRANCH  28  29
ENDBRANCH  27  28
ENDBRANCH  26  27
ENDBRANCH  25  26
ENDBRANCH  18  25
ENDBRANCH  16  17
ENDBRANCH   6  16
TORSDOF 7
ENDMDL
MODEL       38
REMARK 921   NORMALIZED FREE ENERGY PREDICTED BY IDOCK:   -5.90 KCAL/MOL
REMARK 922        TOTAL FREE ENERGY PREDICTED BY IDOCK:   -9.97 KCAL/MOL
REMARK 923 INTER-LIGAND FREE ENERGY PREDICTED BY IDOCK:   -8.54 KCAL/MOL
REMARK 924 INTRA-LIGAND FREE ENERGY PREDICTED BY IDOCK:   -1.43 KCAL/MOL
REMARK 927      BINDING AFFINITY PREDICTED BY RF-SCORE:    0.00 PKD
ROOT
HETATM    1  O   UNL     1     -11.116  16.028  66.390  1.00  0.00    -0.145 OA 
HETATM    2  C   UNL     1     -10.160  16.125  67.457  1.00  0.00    -0.256 C  
HETATM    3  H   UNL     1     -11.809  16.657  66.557  1.00  0.00     0.000 HD 
HETATM    4  C   UNL     1     -10.908  15.728  68.736  1.00  0.00    -0.274 A  
HETATM    5  C   UNL     1      -9.701  17.582  67.469  1.00  0.00    -0.278 A  
HETATM    6  C   UNL     1      -9.013  15.082  67.181  1.00  0.00    -0.217 C  
HETATM    7  C   UNL     1     -11.484  15.030  71.045  1.00  0.00    -0.300 A  
HETATM    8  C   UNL     1     -12.262  15.481  68.906  1.00  0.00    -0.097 A  
HETATM    9  C   UNL     1     -10.140  18.620  68.281  1.00  0.00    -0.431 A  
HETATM   10  O   UNL     1      -7.950  15.261  66.599  1.00  0.00    -0.164 OA 
HETATM   11  C   UNL     1     -12.589  15.069  70.228  1.00  0.00    -0.363 A  
HETATM   12  C   UNL     1      -9.545  19.874  67.965  1.00  0.00    -0.482 A  
HETATM   13  S   UNL     1      -8.625  18.197  66.269  1.00  0.00    -0.117 SA 
HETATM   14  C   UNL     1      -8.682  19.778  66.901  1.00  0.00    -0.331 A  
HETATM   15  S   UNL     1     -10.067  15.534  70.236  1.00  0.00     0.158 SA 
ENDROOT
BRANCH   6  16
HETATM   16  O   UNL     1      -9.362  13.830  67.624  1.00  0.00    -0.199 OA 
BRANCH  16  17
HETATM   17  C   UNL     1      -9.166  12.722  66.729  1.00  0.00    -0.225 C  
HETATM   18  N   UNL     1     -10.170  10.386  67.091  1.00  0.00    -0.211 N  
HETATM   19  C   UNL     1      -8.983  11.360  67.447  1.00  0.00    -0.154 C  
HETATM   20  C   UNL     1     -10.183  10.203  65.565  1.00  0.00    -0.218 C  
HETATM   21  C   UNL     1     -11.469  11.072  67.535  1.00  0.00    -0.185 C  
HETATM   22  C   UNL     1     -10.255  11.542  64.849  1.00  0.00    -0.324 C  
HETATM   23  C   UNL     1     -11.653  12.363  66.733  1.00  0.00    -0.444 C  
HETATM   24  C   UNL     1     -10.425  12.669  65.854  1.00  0.00    -0.295 C  
BRANCH  18  25
HETATM   25  C   UNL     1      -9.922   9.065  67.878  1.00  0.00    -0.178 C  
BRANCH  25  26
HETATM   26  C   UNL     1     -10.630   7.792  67.386  1.00  0.00    -0.345 C  
BRANCH  26  27
HETATM   27  C   UNL     1     -10.304   6.544  68.194  1.00  0.00    -0.187 C  
BRANCH  27  28
HETATM   28  O   UNL     1     -11.360   6.176  69.070  1.00  0.00    -0.390 OA 
BRANCH  28  29
HETATM   29  C   UNL     1     -11.292   6.776  70.308  1.00  0.00    -0.352 A  
HETATM   30  C   UNL     1     -10.041   6.722  70.912  1.00  0.00    -0.207 A  
HETATM   31  C   UNL     1      -9.843   7.258  72.188  1.00  0.00    -0.185 A  
HETATM   32  C   UNL     1     -10.897   7.875  72.860  1.00  0.00    -0.451 A  
HETATM   33  C   UNL     1     -12.142   7.968  72.252  1.00  0.00    -0.392 A  
HETATM   34  C   UNL     1     -12.339   7.426  70.978  1.00  0.00    -0.303 A  
ENDBRANCH  28  29
ENDBRANCH  27  28
ENDBRANCH  26  27
ENDBRANCH  25  26
ENDBRANCH  18  25
ENDBRANCH  16  17
ENDBRANCH   6  16
TORSDOF 7
ENDMDL
MODEL       39
REMARK 921   NORMALIZED FREE ENERGY PREDICTED BY IDOCK:   -5.88 KCAL/MOL
REMARK 922        TOTAL FREE ENERGY PREDICTED BY IDOCK:   -9.93 KCAL/MOL
REMARK 923 INTER-LIGAND FREE ENERGY PREDICTED BY IDOCK:   -7.81 KCAL/MOL
REMARK 924 INTRA-LIGAND FREE ENERGY PREDICTED BY IDOCK:   -2.13 KCAL/MOL
REMARK 927      BINDING AFFINITY PREDICTED BY RF-SCORE:    0.00 PKD
ROOT
HETATM    1  O   UNL     1     -10.297  14.012  69.207  1.00  0.00    -0.418 OA 
HETATM    2  C   UNL     1     -10.033  13.063  68.163  1.00  0.00    -0.231 C  
HETATM    3  H   UNL     1      -9.832  14.815  69.000  1.00  0.00     0.000 HD 
HETATM    4  C   UNL     1      -8.523  12.798  68.199  1.00  0.00    -0.177 A  
HETATM    5  C   UNL     1     -10.483  13.738  66.869  1.00  0.00    -0.272 A  
HETATM    6  C   UNL     1     -10.802  11.733  68.506  1.00  0.00    -0.224 C  
HETATM    7  C   UNL     1      -6.260  11.835  67.878  1.00  0.00    -0.053 A  
HETATM    8  C   UNL     1      -7.549  13.438  68.951  1.00  0.00     0.018 A  
HETATM    9  C   UNL     1      -9.710  14.409  65.930  1.00  0.00    -0.305 A  
HETATM   10  O   UNL     1     -11.920  11.388  68.142  1.00  0.00    -0.594 OA 
HETATM   11  C   UNL     1      -6.253  12.877  68.775  1.00  0.00    -0.076 A  
HETATM   12  C   UNL     1     -10.476  14.984  64.876  1.00  0.00    -0.367 A  
HETATM   13  S   UNL     1     -12.154  13.908  66.476  1.00  0.00    -0.441 SA 
HETATM   14  C   UNL     1     -11.822  14.765  65.042  1.00  0.00    -0.343 A  
HETATM   15  S   UNL     1      -7.810  11.566  67.215  1.00  0.00    -0.161 SA 
ENDROOT
BRANCH   6  16
HETATM   16  O   UNL     1     -10.083  10.953  69.378  1.00  0.00    -0.189 OA 
BRANCH  16  17
HETATM   17  C   UNL     1     -10.530   9.605  69.599  1.00  0.00    -0.229 C  
HETATM   18  N   UNL     1      -9.127   7.519  69.069  1.00  0.00    -0.141 N  
HETATM   19  C   UNL     1     -10.104   8.611  68.487  1.00  0.00    -0.190 C  
HETATM   20  C   UNL     1      -9.866   6.788  70.202  1.00  0.00    -0.177 C  
HETATM   21  C   UNL     1      -7.912   8.257  69.645  1.00  0.00    -0.111 C  
HETATM   22  C   UNL     1     -10.382   7.766  71.245  1.00  0.00    -0.222 C  
HETATM   23  C   UNL     1      -8.369   9.153  70.798  1.00  0.00    -0.248 C  
HETATM   24  C   UNL     1      -9.903   9.174  70.932  1.00  0.00    -0.359 C  
BRANCH  18  25
HETATM   25  C   UNL     1      -8.727   6.592  67.883  1.00  0.00    -0.116 C  
BRANCH  25  26
HETATM   26  C   UNL     1      -7.845   7.189  66.774  1.00  0.00    -0.103 C  
BRANCH  26  27
HETATM   27  C   UNL     1      -8.567   7.403  65.451  1.00  0.00    -0.041 C  
BRANCH  27  28
HETATM   28  O   UNL     1      -7.929   8.378  64.638  1.00  0.00    -0.131 OA 
BRANCH  28  29
HETATM   29  C   UNL     1      -8.749   9.423  64.273  1.00  0.00    -0.197 A  
HETATM   30  C   UNL     1      -8.390  10.056  63.088  1.00  0.00    -0.169 A  
HETATM   31  C   UNL     1      -9.115  11.157  62.622  1.00  0.00    -0.366 A  
HETATM   32  C   UNL     1     -10.224  11.617  63.331  1.00  0.00    -0.471 A  
HETATM   33  C   UNL     1     -10.615  10.970  64.495  1.00  0.00    -0.383 A  
HETATM   34  C   UNL     1      -9.885   9.873  64.963  1.00  0.00    -0.323 A  
ENDBRANCH  28  29
ENDBRANCH  27  28
ENDBRANCH  26  27
ENDBRANCH  25  26
ENDBRANCH  18  25
ENDBRANCH  16  17
ENDBRANCH   6  16
TORSDOF 7
ENDMDL
MODEL       40
REMARK 921   NORMALIZED FREE ENERGY PREDICTED BY IDOCK:   -5.87 KCAL/MOL
REMARK 922        TOTAL FREE ENERGY PREDICTED BY IDOCK:   -9.92 KCAL/MOL
REMARK 923 INTER-LIGAND FREE ENERGY PREDICTED BY IDOCK:   -8.71 KCAL/MOL
REMARK 924 INTRA-LIGAND FREE ENERGY PREDICTED BY IDOCK:   -1.20 KCAL/MOL
REMARK 927      BINDING AFFINITY PREDICTED BY RF-SCORE:    0.00 PKD
ROOT
HETATM    1  O   UNL     1      -8.282   6.727  68.934  1.00  0.00    -0.118 OA 
HETATM    2  C   UNL     1      -9.640   6.307  69.137  1.00  0.00    -0.135 C  
HETATM    3  H   UNL     1      -7.748   6.339  69.618  1.00  0.00     0.000 HD 
HETATM    4  C   UNL     1     -10.064   6.880  70.495  1.00  0.00    -0.187 A  
HETATM    5  C   UNL     1      -9.607   4.781  69.124  1.00  0.00    -0.167 A  
HETATM    6  C   UNL     1     -10.523   6.950  68.003  1.00  0.00    -0.211 C  
HETATM    7  C   UNL     1     -11.370   7.656  72.456  1.00  0.00    -0.355 A  
HETATM    8  C   UNL     1      -9.287   7.530  71.442  1.00  0.00    -0.151 A  
HETATM    9  C   UNL     1      -9.579   3.907  70.203  1.00  0.00    -0.267 A  
HETATM   10  O   UNL     1     -10.839   6.467  66.923  1.00  0.00    -0.333 OA 
HETATM   11  C   UNL     1     -10.039   7.985  72.561  1.00  0.00    -0.346 A  
HETATM   12  C   UNL     1      -9.474   2.540  69.821  1.00  0.00    -0.130 A  
HETATM   13  S   UNL     1      -9.411   3.897  67.655  1.00  0.00    -0.189 SA 
HETATM   14  C   UNL     1      -9.397   2.394  68.457  1.00  0.00    -0.192 A  
HETATM   15  S   UNL     1     -11.702   6.760  71.040  1.00  0.00    -0.370 SA 
ENDROOT
BRANCH   6  16
HETATM   16  O   UNL     1     -10.886   8.235  68.323  1.00  0.00    -0.076 OA 
BRANCH  16  17
HETATM   17  C   UNL     1     -10.080   9.309  67.809  1.00  0.00    -0.204 C  
HETATM   18  N   UNL     1     -10.930  11.709  67.465  1.00  0.00    -0.242 N  
HETATM   19  C   UNL     1     -10.841  10.260  66.849  1.00  0.00    -0.135 C  
HETATM   20  C   UNL     1      -9.495  12.205  67.705  1.00  0.00    -0.187 C  
HETATM   21  C   UNL     1     -11.659  11.585  68.810  1.00  0.00    -0.316 C  
HETATM   22  C   UNL     1      -8.707  11.224  68.558  1.00  0.00    -0.156 C  
HETATM   23  C   UNL     1     -10.826  10.715  69.754  1.00  0.00    -0.317 C  
HETATM   24  C   UNL     1      -9.609  10.098  69.038  1.00  0.00    -0.202 C  
BRANCH  18  25
HETATM   25  C   UNL     1     -11.734  12.580  66.456  1.00  0.00    -0.391 C  
BRANCH  25  26
HETATM   26  C   UNL     1     -11.041  13.821  65.869  1.00  0.00    -0.286 C  
BRANCH  26  27
HETATM   27  C   UNL     1     -11.318  15.109  66.632  1.00  0.00    -0.234 C  
BRANCH  27  28
HETATM   28  O   UNL     1     -10.126  15.740  67.079  1.00  0.00    -0.251 OA 
BRANCH  28  29
HETATM   29  C   UNL     1     -10.214  17.114  67.145  1.00  0.00    -0.316 A  
HETATM   30  C   UNL     1     -10.030  17.647  68.416  1.00  0.00    -0.356 A  
HETATM   31  C   UNL     1     -10.132  19.025  68.630  1.00  0.00    -0.449 A  
HETATM   32  C   UNL     1     -10.397  19.882  67.564  1.00  0.00    -0.557 A  
HETATM   33  C   UNL     1     -10.545  19.366  66.284  1.00  0.00    -0.569 A  
HETATM   34  C   UNL     1     -10.449  17.987  66.073  1.00  0.00    -0.317 A  
ENDBRANCH  28  29
ENDBRANCH  27  28
ENDBRANCH  26  27
ENDBRANCH  25  26
ENDBRANCH  18  25
ENDBRANCH  16  17
ENDBRANCH   6  16
TORSDOF 7
ENDMDL
MODEL       41
REMARK 921   NORMALIZED FREE ENERGY PREDICTED BY IDOCK:   -5.86 KCAL/MOL
REMARK 922        TOTAL FREE ENERGY PREDICTED BY IDOCK:   -9.91 KCAL/MOL
REMARK 923 INTER-LIGAND FREE ENERGY PREDICTED BY IDOCK:   -9.10 KCAL/MOL
REMARK 924 INTRA-LIGAND FREE ENERGY PREDICTED BY IDOCK:   -0.80 KCAL/MOL
REMARK 927      BINDING AFFINITY PREDICTED BY RF-SCORE:    0.00 PKD
ROOT
HETATM    1  O   UNL     1     -11.689  11.225  66.889  1.00  0.00    -0.464 OA 
HETATM    2  C   UNL     1     -10.329  10.770  66.819  1.00  0.00    -0.243 C  
HETATM    3  H   UNL     1     -12.232  10.605  66.417  1.00  0.00     0.000 HD 
HETATM    4  C   UNL     1      -9.948  10.794  65.333  1.00  0.00    -0.271 A  
HETATM    5  C   UNL     1     -10.335   9.360  67.405  1.00  0.00    -0.263 A  
HETATM    6  C   UNL     1      -9.429  11.798  67.602  1.00  0.00    -0.180 C  
HETATM    7  C   UNL     1      -8.705  10.785  63.187  1.00  0.00    -0.169 A  
HETATM    8  C   UNL     1     -10.760  11.035  64.235  1.00  0.00    -0.348 A  
HETATM    9  C   UNL     1     -10.373   8.145  66.734  1.00  0.00    -0.361 A  
HETATM   10  O   UNL     1      -9.078  11.759  68.775  1.00  0.00    -0.110 OA 
HETATM   11  C   UNL     1     -10.044  11.041  63.006  1.00  0.00    -0.285 A  
HETATM   12  C   UNL     1     -10.444   7.021  67.604  1.00  0.00    -0.301 A  
HETATM   13  S   UNL     1     -10.478   9.092  69.103  1.00  0.00    -0.208 SA 
HETATM   14  C   UNL     1     -10.486   7.397  68.925  1.00  0.00    -0.203 A  
HETATM   15  S   UNL     1      -8.323  10.489  64.825  1.00  0.00    -0.076 SA 
ENDROOT
BRANCH   6  16
HETATM   16  O   UNL     1      -9.097  12.872  66.812  1.00  0.00    -0.225 OA 
BRANCH  16  17
HETATM   17  C   UNL     1     -10.098  13.882  66.597  1.00  0.00    -0.273 C  
HETATM   18  N   UNL     1     -10.241  16.072  67.932  1.00  0.00    -0.252 N  
HETATM   19  C   UNL     1     -10.616  14.540  67.902  1.00  0.00    -0.243 C  
HETATM   20  C   UNL     1     -10.873  16.733  66.697  1.00  0.00    -0.005 C  
HETATM   21  C   UNL     1      -8.712  16.166  67.837  1.00  0.00    -0.174 C  
HETATM   22  C   UNL     1     -10.454  16.026  65.418  1.00  0.00    -0.415 C  
HETATM   23  C   UNL     1      -8.257  15.590  66.494  1.00  0.00    -0.167 C  
HETATM   24  C   UNL     1      -9.426  14.949  65.722  1.00  0.00    -0.237 C  
BRANCH  18  25
HETATM   25  C   UNL     1     -10.767  16.638  69.284  1.00  0.00    -0.337 C  
BRANCH  25  26
HETATM   26  C   UNL     1     -10.413  15.872  70.569  1.00  0.00     0.012 C  
BRANCH  26  27
HETATM   27  C   UNL     1     -11.553  15.781  71.575  1.00  0.00    -0.459 C  
BRANCH  27  28
HETATM   28  O   UNL     1     -12.730  15.223  71.008  1.00  0.00    -0.356 OA 
BRANCH  28  29
HETATM   29  C   UNL     1     -12.861  13.867  71.218  1.00  0.00    -0.360 A  
HETATM   30  C   UNL     1     -12.183  13.069  70.303  1.00  0.00    -0.368 A  
HETATM   31  C   UNL     1     -12.264  11.675  70.377  1.00  0.00    -0.434 A  
HETATM   32  C   UNL     1     -13.009  11.070  71.388  1.00  0.00    -0.517 A  
HETATM   33  C   UNL     1     -13.659  11.855  72.330  1.00  0.00    -0.109 A  
HETATM   34  C   UNL     1     -13.582  13.249  72.250  1.00  0.00    -0.703 A  
ENDBRANCH  28  29
ENDBRANCH  27  28
ENDBRANCH  26  27
ENDBRANCH  25  26
ENDBRANCH  18  25
ENDBRANCH  16  17
ENDBRANCH   6  16
TORSDOF 7
ENDMDL
MODEL       42
REMARK 921   NORMALIZED FREE ENERGY PREDICTED BY IDOCK:   -5.84 KCAL/MOL
REMARK 922        TOTAL FREE ENERGY PREDICTED BY IDOCK:   -9.88 KCAL/MOL
REMARK 923 INTER-LIGAND FREE ENERGY PREDICTED BY IDOCK:   -8.38 KCAL/MOL
REMARK 924 INTRA-LIGAND FREE ENERGY PREDICTED BY IDOCK:   -1.50 KCAL/MOL
REMARK 927      BINDING AFFINITY PREDICTED BY RF-SCORE:    0.00 PKD
ROOT
HETATM    1  O   UNL     1     -10.192   8.493  65.889  1.00  0.00    -0.367 OA 
HETATM    2  C   UNL     1      -8.794   8.808  65.982  1.00  0.00    -0.175 C  
HETATM    3  H   UNL     1     -10.297   7.805  65.242  1.00  0.00     0.000 HD 
HETATM    4  C   UNL     1      -8.385   9.342  64.605  1.00  0.00    -0.157 A  
HETATM    5  C   UNL     1      -8.099   7.495  66.337  1.00  0.00    -0.114 A  
HETATM    6  C   UNL     1      -8.622   9.948  67.054  1.00  0.00    -0.128 C  
HETATM    7  C   UNL     1      -7.183  10.427  62.725  1.00  0.00    -0.121 A  
HETATM    8  C   UNL     1      -9.128   9.378  63.434  1.00  0.00    -0.056 A  
HETATM    9  C   UNL     1      -7.450   6.605  65.492  1.00  0.00    -0.079 A  
HETATM   10  O   UNL     1      -8.381   9.834  68.250  1.00  0.00    -0.105 OA 
HETATM   11  C   UNL     1      -8.442  10.011  62.360  1.00  0.00    -0.180 A  
HETATM   12  C   UNL     1      -6.978   5.437  66.157  1.00  0.00    -0.063 A  
HETATM   13  S   UNL     1      -8.192   6.827  67.925  1.00  0.00    -0.117 SA 
HETATM   14  C   UNL     1      -7.298   5.443  67.493  1.00  0.00    -0.076 A  
HETATM   15  S   UNL     1      -6.812  10.012  64.340  1.00  0.00    -0.112 SA 
ENDROOT
BRANCH   6  16
HETATM   16  O   UNL     1      -8.850  11.186  66.505  1.00  0.00    -0.160 OA 
BRANCH  16  17
HETATM   17  C   UNL     1      -9.935  11.966  67.036  1.00  0.00    -0.202 C  
HETATM   18  N   UNL     1     -10.225  14.487  66.632  1.00  0.00    -0.270 N  
HETATM   19  C   UNL     1      -9.516  13.383  67.508  1.00  0.00    -0.219 C  
HETATM   20  C   UNL     1     -11.743  14.289  66.771  1.00  0.00    -0.405 C  
HETATM   21  C   UNL     1      -9.810  14.246  65.175  1.00  0.00    -0.106 C  
HETATM   22  C   UNL     1     -12.151  12.869  66.414  1.00  0.00    -0.400 C  
HETATM   23  C   UNL     1     -10.325  12.876  64.726  1.00  0.00    -0.345 C  
HETATM   24  C   UNL     1     -10.953  12.091  65.895  1.00  0.00    -0.342 C  
BRANCH  18  25
HETATM   25  C   UNL     1      -9.723  15.867  67.151  1.00  0.00    -0.224 C  
BRANCH  25  26
HETATM   26  C   UNL     1     -10.651  16.665  68.081  1.00  0.00    -0.336 C  
BRANCH  26  27
HETATM   27  C   UNL     1     -10.418  16.408  69.564  1.00  0.00    -0.301 C  
BRANCH  27  28
HETATM   28  O   UNL     1     -10.990  15.182  69.996  1.00  0.00    -0.254 OA 
BRANCH  28  29
HETATM   29  C   UNL     1     -12.001  15.333  70.920  1.00  0.00    -0.342 A  
HETATM   30  C   UNL     1     -11.581  15.757  72.176  1.00  0.00    -0.534 A  
HETATM   31  C   UNL     1     -12.501  15.913  73.218  1.00  0.00    -0.636 A  
HETATM   32  C   UNL     1     -13.855  15.667  73.000  1.00  0.00    -0.474 A  
HETATM   33  C   UNL     1     -14.291  15.279  71.741  1.00  0.00    -0.678 A  
HETATM   34  C   UNL     1     -13.370  15.118  70.702  1.00  0.00    -0.304 A  
ENDBRANCH  28  29
ENDBRANCH  27  28
ENDBRANCH  26  27
ENDBRANCH  25  26
ENDBRANCH  18  25
ENDBRANCH  16  17
ENDBRANCH   6  16
TORSDOF 7
ENDMDL
MODEL       43
REMARK 921   NORMALIZED FREE ENERGY PREDICTED BY IDOCK:   -5.84 KCAL/MOL
REMARK 922        TOTAL FREE ENERGY PREDICTED BY IDOCK:   -9.87 KCAL/MOL
REMARK 923 INTER-LIGAND FREE ENERGY PREDICTED BY IDOCK:   -8.80 KCAL/MOL
REMARK 924 INTRA-LIGAND FREE ENERGY PREDICTED BY IDOCK:   -1.07 KCAL/MOL
REMARK 927      BINDING AFFINITY PREDICTED BY RF-SCORE:    0.00 PKD
ROOT
HETATM    1  O   UNL     1      -9.599   8.511  65.294  1.00  0.00    -0.374 OA 
HETATM    2  C   UNL     1      -8.661   8.963  66.283  1.00  0.00    -0.141 C  
HETATM    3  H   UNL     1      -9.622   9.154  64.595  1.00  0.00     0.000 HD 
HETATM    4  C   UNL     1      -9.220  10.283  66.828  1.00  0.00    -0.157 A  
HETATM    5  C   UNL     1      -7.337   9.142  65.544  1.00  0.00    -0.089 A  
HETATM    6  C   UNL     1      -8.623   7.897  67.441  1.00  0.00    -0.125 C  
HETATM    7  C   UNL     1      -9.672  12.297  68.203  1.00  0.00    -0.213 A  
HETATM    8  C   UNL     1     -10.309  11.014  66.377  1.00  0.00    -0.302 A  
HETATM    9  C   UNL     1      -6.780  10.309  65.037  1.00  0.00    -0.108 A  
HETATM   10  O   UNL     1      -7.862   6.946  67.572  1.00  0.00    -0.108 OA 
HETATM   11  C   UNL     1     -10.575  12.163  67.174  1.00  0.00    -0.254 A  
HETATM   12  C   UNL     1      -5.560  10.095  64.336  1.00  0.00    -0.121 A  
HETATM   13  S   UNL     1      -6.383   7.787  65.064  1.00  0.00    -0.041 SA 
HETATM   14  C   UNL     1      -5.219   8.765  64.296  1.00  0.00    -0.051 A  
HETATM   15  S   UNL     1      -8.482  11.073  68.178  1.00  0.00    -0.141 SA 
ENDROOT
BRANCH   6  16
HETATM   16  O   UNL     1      -9.644   8.099  68.337  1.00  0.00    -0.145 OA 
BRANCH  16  17
HETATM   17  C   UNL     1      -9.377   7.853  69.728  1.00  0.00    -0.153 C  
HETATM   18  N   UNL     1     -11.198   7.637  71.527  1.00  0.00    -0.243 N  
HETATM   19  C   UNL     1     -10.305   8.635  70.693  1.00  0.00    -0.202 C  
HETATM   20  C   UNL     1     -10.256   6.706  72.307  1.00  0.00    -0.187 C  
HETATM   21  C   UNL     1     -12.015   6.813  70.523  1.00  0.00    -0.328 C  
HETATM   22  C   UNL     1      -9.269   6.016  71.379  1.00  0.00    -0.152 C  
HETATM   23  C   UNL     1     -11.060   5.989  69.656  1.00  0.00    -0.474 C  
HETATM   24  C   UNL     1      -9.587   6.346  69.930  1.00  0.00    -0.166 C  
BRANCH  18  25
HETATM   25  C   UNL     1     -12.116   8.506  72.437  1.00  0.00    -0.367 C  
BRANCH  25  26
HETATM   26  C   UNL     1     -13.308   9.221  71.780  1.00  0.00    -0.477 C  
BRANCH  26  27
HETATM   27  C   UNL     1     -13.368  10.717  72.059  1.00  0.00    -0.304 C  
BRANCH  27  28
HETATM   28  O   UNL     1     -12.525  11.463  71.193  1.00  0.00    -0.382 OA 
BRANCH  28  29
HETATM   29  C   UNL     1     -12.751  12.822  71.229  1.00  0.00    -0.269 A  
HETATM   30  C   UNL     1     -13.594  13.243  72.251  1.00  0.00    -0.703 A  
HETATM   31  C   UNL     1     -13.939  14.592  72.378  1.00  0.00    -0.578 A  
HETATM   32  C   UNL     1     -13.420  15.534  71.492  1.00  0.00    -0.582 A  
HETATM   33  C   UNL     1     -12.548  15.131  70.490  1.00  0.00    -0.429 A  
HETATM   34  C   UNL     1     -12.209  13.781  70.361  1.00  0.00    -0.433 A  
ENDBRANCH  28  29
ENDBRANCH  27  28
ENDBRANCH  26  27
ENDBRANCH  25  26
ENDBRANCH  18  25
ENDBRANCH  16  17
ENDBRANCH   6  16
TORSDOF 7
ENDMDL
MODEL       44
REMARK 921   NORMALIZED FREE ENERGY PREDICTED BY IDOCK:   -5.83 KCAL/MOL
REMARK 922        TOTAL FREE ENERGY PREDICTED BY IDOCK:   -9.87 KCAL/MOL
REMARK 923 INTER-LIGAND FREE ENERGY PREDICTED BY IDOCK:   -8.75 KCAL/MOL
REMARK 924 INTRA-LIGAND FREE ENERGY PREDICTED BY IDOCK:   -1.12 KCAL/MOL
REMARK 927      BINDING AFFINITY PREDICTED BY RF-SCORE:    0.00 PKD
ROOT
HETATM    1  O   UNL     1     -10.388  18.231  67.415  1.00  0.00    -0.356 OA 
HETATM    2  C   UNL     1      -9.620  17.023  67.520  1.00  0.00    -0.249 C  
HETATM    3  H   UNL     1     -10.408  18.643  68.271  1.00  0.00     0.000 HD 
HETATM    4  C   UNL     1     -10.381  16.118  68.497  1.00  0.00    -0.254 A  
HETATM    5  C   UNL     1      -8.252  17.447  68.050  1.00  0.00    -0.229 A  
HETATM    6  C   UNL     1      -9.586  16.341  66.101  1.00  0.00    -0.331 C  
HETATM    7  C   UNL     1     -11.205  14.182  69.810  1.00  0.00    -0.152 A  
HETATM    8  C   UNL     1     -11.490  16.421  69.272  1.00  0.00    -0.165 A  
HETATM    9  C   UNL     1      -7.780  17.407  69.356  1.00  0.00     0.219 A  
HETATM   10  O   UNL     1      -8.741  16.460  65.223  1.00  0.00     0.258 OA 
HETATM   11  C   UNL     1     -11.970  15.306  70.016  1.00  0.00    -0.375 A  
HETATM   12  C   UNL     1      -6.475  17.956  69.502  1.00  0.00    -0.190 A  
HETATM   13  S   UNL     1      -7.104  18.248  67.041  1.00  0.00    -0.200 SA 
HETATM   14  C   UNL     1      -5.983  18.431  68.311  1.00  0.00    -0.186 A  
HETATM   15  S   UNL     1      -9.888  14.482  68.766  1.00  0.00    -0.194 SA 
ENDROOT
BRANCH   6  16
HETATM   16  O   UNL     1     -10.715  15.590  65.883  1.00  0.00    -0.321 OA 
BRANCH  16  17
HETATM   17  C   UNL     1     -10.621  14.488  64.964  1.00  0.00    -0.437 C  
HETATM   18  N   UNL     1     -10.971  12.030  65.626  1.00  0.00    -0.288 N  
HETATM   19  C   UNL     1      -9.946  13.227  65.563  1.00  0.00    -0.207 C  
HETATM   20  C   UNL     1     -11.463  11.761  64.194  1.00  0.00    -0.327 C  
HETATM   21  C   UNL     1     -12.151  12.488  66.493  1.00  0.00    -0.174 C  
HETATM   22  C   UNL     1     -12.030  13.020  63.559  1.00  0.00    -0.615 C  
HETATM   23  C   UNL     1     -12.841  13.674  65.816  1.00  0.00    -0.390 C  
HETATM   24  C   UNL     1     -12.067  14.152  64.572  1.00  0.00    -0.489 C  
BRANCH  18  25
HETATM   25  C   UNL     1     -10.221  10.826  66.267  1.00  0.00    -0.245 C  
BRANCH  25  26
HETATM   26  C   UNL     1     -10.636  10.394  67.683  1.00  0.00    -0.304 C  
BRANCH  26  27
HETATM   27  C   UNL     1      -9.589   9.566  68.415  1.00  0.00    -0.142 C  
BRANCH  27  28
HETATM   28  O   UNL     1      -9.281  10.094  69.697  1.00  0.00    -0.214 OA 
BRANCH  28  29
HETATM   29  C   UNL     1      -9.862   9.405  70.739  1.00  0.00    -0.279 A  
HETATM   30  C   UNL     1      -8.963   8.773  71.591  1.00  0.00    -0.301 A  
HETATM   31  C   UNL     1      -9.422   8.007  72.667  1.00  0.00    -0.317 A  
HETATM   32  C   UNL     1     -10.789   7.888  72.910  1.00  0.00    -0.451 A  
HETATM   33  C   UNL     1     -11.695   8.544  72.088  1.00  0.00    -0.448 A  
HETATM   34  C   UNL     1     -11.235   9.305  71.010  1.00  0.00    -0.392 A  
ENDBRANCH  28  29
ENDBRANCH  27  28
ENDBRANCH  26  27
ENDBRANCH  25  26
ENDBRANCH  18  25
ENDBRANCH  16  17
ENDBRANCH   6  16
TORSDOF 7
ENDMDL
MODEL       45
REMARK 921   NORMALIZED FREE ENERGY PREDICTED BY IDOCK:   -5.82 KCAL/MOL
REMARK 922        TOTAL FREE ENERGY PREDICTED BY IDOCK:   -9.86 KCAL/MOL
REMARK 923 INTER-LIGAND FREE ENERGY PREDICTED BY IDOCK:   -8.48 KCAL/MOL
REMARK 924 INTRA-LIGAND FREE ENERGY PREDICTED BY IDOCK:   -1.37 KCAL/MOL
REMARK 927      BINDING AFFINITY PREDICTED BY RF-SCORE:    0.00 PKD
ROOT
HETATM    1  O   UNL     1     -11.209  16.742  68.066  1.00  0.00    -0.295 OA 
HETATM    2  C   UNL     1     -10.028  16.781  67.251  1.00  0.00    -0.272 C  
HETATM    3  H   UNL     1     -10.997  17.119  68.911  1.00  0.00     0.000 HD 
HETATM    4  C   UNL     1      -8.994  15.895  67.956  1.00  0.00    -0.182 A  
HETATM    5  C   UNL     1      -9.611  18.250  67.200  1.00  0.00    -0.281 A  
HETATM    6  C   UNL     1     -10.380  16.155  65.850  1.00  0.00    -0.367 C  
HETATM    7  C   UNL     1      -7.015  14.498  68.490  1.00  0.00    -0.105 A  
HETATM    8  C   UNL     1      -9.075  15.295  69.203  1.00  0.00    -0.236 A  
HETATM    9  C   UNL     1      -8.646  18.901  67.958  1.00  0.00    -0.330 A  
HETATM   10  O   UNL     1     -10.751  16.730  64.834  1.00  0.00    -0.721 OA 
HETATM   11  C   UNL     1      -7.945  14.484  69.504  1.00  0.00     0.137 A  
HETATM   12  C   UNL     1      -8.573  20.299  67.698  1.00  0.00    -0.340 A  
HETATM   13  S   UNL     1     -10.473  19.398  66.243  1.00  0.00    -0.496 SA 
HETATM   14  C   UNL     1      -9.501  20.696  66.766  1.00  0.00    -0.198 A  
HETATM   15  S   UNL     1      -7.480  15.522  67.205  1.00  0.00    -0.215 SA 
ENDROOT
BRANCH   6  16
HETATM   16  O   UNL     1     -10.296  14.784  65.882  1.00  0.00    -0.288 OA 
BRANCH  16  17
HETATM   17  C   UNL     1     -10.993  14.045  64.866  1.00  0.00    -0.392 C  
HETATM   18  N   UNL     1     -10.704  11.522  64.470  1.00  0.00    -0.315 N  
HETATM   19  C   UNL     1     -10.127  12.960  64.174  1.00  0.00    -0.187 C  
HETATM   20  C   UNL     1     -12.151  11.483  63.950  1.00  0.00    -0.017 C  
HETATM   21  C   UNL     1     -10.705  11.339  65.994  1.00  0.00    -0.242 C  
HETATM   22  C   UNL     1     -12.981  12.610  64.542  1.00  0.00    -0.236 C  
HETATM   23  C   UNL     1     -11.644  12.370  66.623  1.00  0.00    -0.447 C  
HETATM   24  C   UNL     1     -12.174  13.372  65.580  1.00  0.00    -0.499 C  
BRANCH  18  25
HETATM   25  C   UNL     1      -9.759  10.503  63.769  1.00  0.00    -0.326 C  
BRANCH  25  26
HETATM   26  C   UNL     1      -8.372  10.267  64.390  1.00  0.00    -0.166 C  
BRANCH  26  27
HETATM   27  C   UNL     1      -8.102   8.821  64.782  1.00  0.00    -0.151 C  
BRANCH  27  28
HETATM   28  O   UNL     1      -7.495   8.712  66.062  1.00  0.00    -0.083 OA 
BRANCH  28  29
HETATM   29  C   UNL     1      -8.352   8.280  67.051  1.00  0.00    -0.122 A  
HETATM   30  C   UNL     1      -9.576   7.806  66.592  1.00  0.00    -0.286 A  
HETATM   31  C   UNL     1     -10.554   7.373  67.493  1.00  0.00    -0.340 A  
HETATM   32  C   UNL     1     -10.301   7.391  68.863  1.00  0.00    -0.214 A  
HETATM   33  C   UNL     1      -9.069   7.826  69.331  1.00  0.00    -0.146 A  
HETATM   34  C   UNL     1      -8.095   8.265  68.430  1.00  0.00    -0.127 A  
ENDBRANCH  28  29
ENDBRANCH  27  28
ENDBRANCH  26  27
ENDBRANCH  25  26
ENDBRANCH  18  25
ENDBRANCH  16  17
ENDBRANCH   6  16
TORSDOF 7
ENDMDL
MODEL       46
REMARK 921   NORMALIZED FREE ENERGY PREDICTED BY IDOCK:   -5.71 KCAL/MOL
REMARK 922        TOTAL FREE ENERGY PREDICTED BY IDOCK:   -9.70 KCAL/MOL
REMARK 923 INTER-LIGAND FREE ENERGY PREDICTED BY IDOCK:   -8.69 KCAL/MOL
REMARK 924 INTRA-LIGAND FREE ENERGY PREDICTED BY IDOCK:   -1.01 KCAL/MOL
REMARK 927      BINDING AFFINITY PREDICTED BY RF-SCORE:    0.00 PKD
ROOT
HETATM    1  O   UNL     1     -11.725   7.195  69.773  1.00  0.00    -0.536 OA 
HETATM    2  C   UNL     1     -10.936   7.841  70.784  1.00  0.00    -0.252 C  
HETATM    3  H   UNL     1     -12.606   7.087  70.111  1.00  0.00     0.000 HD 
HETATM    4  C   UNL     1     -10.907   6.881  71.980  1.00  0.00    -0.225 A  
HETATM    5  C   UNL     1     -11.657   9.151  71.095  1.00  0.00    -0.317 A  
HETATM    6  C   UNL     1      -9.475   8.017  70.224  1.00  0.00    -0.167 C  
HETATM    7  C   UNL     1     -10.344   5.730  74.103  1.00  0.00    -0.282 A  
HETATM    8  C   UNL     1     -11.613   5.702  72.161  1.00  0.00    -0.202 A  
HETATM    9  C   UNL     1     -12.529   9.431  72.139  1.00  0.00    -0.396 A  
HETATM   10  O   UNL     1      -8.998   8.984  69.641  1.00  0.00    -0.142 OA 
HETATM   11  C   UNL     1     -11.281   5.036  73.374  1.00  0.00    -0.391 A  
HETATM   12  C   UNL     1     -13.079  10.743  72.079  1.00  0.00    -0.476 A  
HETATM   13  S   UNL     1     -11.603  10.489  70.007  1.00  0.00    -0.335 SA 
HETATM   14  C   UNL     1     -12.638  11.433  70.976  1.00  0.00    -0.386 A  
HETATM   15  S   UNL     1      -9.904   7.199  73.353  1.00  0.00    -0.292 SA 
ENDROOT
BRANCH   6  16
HETATM   16  O   UNL     1      -8.735   6.874  70.395  1.00  0.00    -0.144 OA 
BRANCH  16  17
HETATM   17  C   UNL     1      -8.680   5.939  69.305  1.00  0.00    -0.119 C  
HETATM   18  N   UNL     1      -7.750   6.498  66.976  1.00  0.00    -0.098 N  
HETATM   19  C   UNL     1      -9.009   6.565  67.924  1.00  0.00    -0.115 C  
HETATM   20  C   UNL     1      -7.355   5.020  66.827  1.00  0.00    -0.086 C  
HETATM   21  C   UNL     1      -6.616   7.262  67.672  1.00  0.00    -0.057 C  
HETATM   22  C   UNL     1      -7.135   4.368  68.183  1.00  0.00    -0.060 C  
HETATM   23  C   UNL     1      -6.265   6.555  68.983  1.00  0.00    -0.030 C  
HETATM   24  C   UNL     1      -7.242   5.403  69.290  1.00  0.00    -0.065 C  
BRANCH  18  25
HETATM   25  C   UNL     1      -8.160   7.175  65.635  1.00  0.00    -0.133 C  
BRANCH  25  26
HETATM   26  C   UNL     1      -8.141   8.711  65.572  1.00  0.00    -0.114 C  
BRANCH  26  27
HETATM   27  C   UNL     1      -9.519   9.347  65.447  1.00  0.00    -0.253 C  
BRANCH  27  28
HETATM   28  O   UNL     1      -9.618  10.208  64.322  1.00  0.00    -0.291 OA 
BRANCH  28  29
HETATM   29  C   UNL     1     -10.513  11.242  64.488  1.00  0.00    -0.334 A  
HETATM   30  C   UNL     1     -10.894  11.475  65.804  1.00  0.00    -0.319 A  
HETATM   31  C   UNL     1     -11.827  12.470  66.109  1.00  0.00    -0.459 A  
HETATM   32  C   UNL     1     -12.369  13.257  65.095  1.00  0.00    -0.516 A  
HETATM   33  C   UNL     1     -11.968  13.059  63.781  1.00  0.00    -0.585 A  
HETATM   34  C   UNL     1     -11.040  12.060  63.477  1.00  0.00    -0.519 A  
ENDBRANCH  28  29
ENDBRANCH  27  28
ENDBRANCH  26  27
ENDBRANCH  25  26
ENDBRANCH  18  25
ENDBRANCH  16  17
ENDBRANCH   6  16
TORSDOF 7
ENDMDL
MODEL       47
REMARK 921   NORMALIZED FREE ENERGY PREDICTED BY IDOCK:   -5.69 KCAL/MOL
REMARK 922        TOTAL FREE ENERGY PREDICTED BY IDOCK:   -9.67 KCAL/MOL
REMARK 923 INTER-LIGAND FREE ENERGY PREDICTED BY IDOCK:   -8.51 KCAL/MOL
REMARK 924 INTRA-LIGAND FREE ENERGY PREDICTED BY IDOCK:   -1.16 KCAL/MOL
REMARK 927      BINDING AFFINITY PREDICTED BY RF-SCORE:    0.00 PKD
ROOT
HETATM    1  O   UNL     1      -6.388   6.791  67.852  1.00  0.00    -0.043 OA 
HETATM    2  C   UNL     1      -7.469   7.734  67.784  1.00  0.00    -0.104 C  
HETATM    3  H   UNL     1      -6.218   6.474  66.972  1.00  0.00     0.000 HD 
HETATM    4  C   UNL     1      -8.688   6.949  67.285  1.00  0.00    -0.119 A  
HETATM    5  C   UNL     1      -7.016   8.811  66.800  1.00  0.00    -0.080 A  
HETATM    6  C   UNL     1      -7.750   8.259  69.242  1.00  0.00    -0.103 C  
HETATM    7  C   UNL     1     -10.990   6.227  66.710  1.00  0.00    -0.255 A  
HETATM    8  C   UNL     1      -8.747   5.643  66.824  1.00  0.00    -0.115 A  
HETATM    9  C   UNL     1      -7.328   8.937  65.453  1.00  0.00    -0.085 A  
HETATM   10  O   UNL     1      -7.295   9.257  69.789  1.00  0.00    -0.061 OA 
HETATM   11  C   UNL     1     -10.070   5.226  66.505  1.00  0.00    -0.260 A  
HETATM   12  C   UNL     1      -6.666  10.026  64.819  1.00  0.00    -0.127 A  
HETATM   13  S   UNL     1      -5.835   9.991  67.237  1.00  0.00    -0.050 SA 
HETATM   14  C   UNL     1      -5.838  10.697  65.686  1.00  0.00    -0.133 A  
HETATM   15  S   UNL     1     -10.257   7.677  67.236  1.00  0.00    -0.302 SA 
ENDROOT
BRANCH   6  16
HETATM   16  O   UNL     1      -8.563   7.396  69.933  1.00  0.00    -0.138 OA 
BRANCH  16  17
HETATM   17  C   UNL     1      -9.202   7.884  71.125  1.00  0.00    -0.147 C  
HETATM   18  N   UNL     1     -11.748   8.036  71.433  1.00  0.00    -0.281 N  
HETATM   19  C   UNL     1     -10.464   8.744  70.853  1.00  0.00    -0.221 C  
HETATM   20  C   UNL     1     -11.533   7.841  72.943  1.00  0.00    -0.303 C  
HETATM   21  C   UNL     1     -11.858   6.666  70.751  1.00  0.00    -0.383 C  
HETATM   22  C   UNL     1     -10.241   7.090  73.223  1.00  0.00    -0.309 C  
HETATM   23  C   UNL     1     -10.637   5.821  71.123  1.00  0.00    -0.315 C  
HETATM   24  C   UNL     1      -9.601   6.635  71.922  1.00  0.00    -0.152 C  
BRANCH  18  25
HETATM   25  C   UNL     1     -12.962   8.948  71.086  1.00  0.00    -0.119 C  
BRANCH  25  26
HETATM   26  C   UNL     1     -13.302  10.090  72.058  1.00  0.00    -0.513 C  
BRANCH  26  27
HETATM   27  C   UNL     1     -12.994  11.480  71.519  1.00  0.00    -0.380 C  
BRANCH  27  28
HETATM   28  O   UNL     1     -13.678  12.501  72.233  1.00  0.00    -0.482 OA 
BRANCH  28  29
HETATM   29  C   UNL     1     -13.119  13.752  72.089  1.00  0.00    -0.406 A  
HETATM   30  C   UNL     1     -12.348  13.916  70.944  1.00  0.00    -0.451 A  
HETATM   31  C   UNL     1     -11.692  15.125  70.695  1.00  0.00    -0.356 A  
HETATM   32  C   UNL     1     -11.823  16.189  71.586  1.00  0.00    -0.557 A  
HETATM   33  C   UNL     1     -12.620  16.050  72.714  1.00  0.00    -0.565 A  
HETATM   34  C   UNL     1     -13.271  14.838  72.963  1.00  0.00    -0.592 A  
ENDBRANCH  28  29
ENDBRANCH  27  28
ENDBRANCH  26  27
ENDBRANCH  25  26
ENDBRANCH  18  25
ENDBRANCH  16  17
ENDBRANCH   6  16
TORSDOF 7
ENDMDL
MODEL       48
REMARK 921   NORMALIZED FREE ENERGY PREDICTED BY IDOCK:   -5.63 KCAL/MOL
REMARK 922        TOTAL FREE ENERGY PREDICTED BY IDOCK:   -9.58 KCAL/MOL
REMARK 923 INTER-LIGAND FREE ENERGY PREDICTED BY IDOCK:   -7.87 KCAL/MOL
REMARK 924 INTRA-LIGAND FREE ENERGY PREDICTED BY IDOCK:   -1.70 KCAL/MOL
REMARK 927      BINDING AFFINITY PREDICTED BY RF-SCORE:    0.00 PKD
ROOT
HETATM    1  O   UNL     1      -8.487  14.433  66.285  1.00  0.00    -0.338 OA 
HETATM    2  C   UNL     1      -9.868  14.611  66.636  1.00  0.00    -0.269 C  
HETATM    3  H   UNL     1      -8.336  14.866  65.453  1.00  0.00     0.000 HD 
HETATM    4  C   UNL     1     -10.679  13.904  65.543  1.00  0.00    -0.302 A  
HETATM    5  C   UNL     1     -10.097  16.121  66.658  1.00  0.00    -0.276 A  
HETATM    6  C   UNL     1     -10.117  13.893  68.015  1.00  0.00    -0.244 C  
HETATM    7  C   UNL     1     -12.487  12.819  64.237  1.00  0.00    -0.382 A  
HETATM    8  C   UNL     1     -10.229  13.342  64.358  1.00  0.00    -0.300 A  
HETATM    9  C   UNL     1     -10.641  16.928  65.667  1.00  0.00    -0.231 A  
HETATM   10  O   UNL     1     -10.069  14.375  69.140  1.00  0.00    -0.197 OA 
HETATM   11  C   UNL     1     -11.265  12.709  63.615  1.00  0.00    -0.525 A  
HETATM   12  C   UNL     1     -10.635  18.312  66.000  1.00  0.00    -0.318 A  
HETATM   13  S   UNL     1      -9.504  17.102  67.947  1.00  0.00    -0.262 SA 
HETATM   14  C   UNL     1     -10.061  18.542  67.227  1.00  0.00    -0.352 A  
HETATM   15  S   UNL     1     -12.394  13.722  65.683  1.00  0.00    -0.497 SA 
ENDROOT
BRANCH   6  16
HETATM   16  O   UNL     1     -10.347  12.550  67.842  1.00  0.00    -0.206 OA 
BRANCH  16  17
HETATM   17  C   UNL     1      -9.400  11.628  68.406  1.00  0.00    -0.191 C  
HETATM   18  N   UNL     1      -9.801   9.099  68.611  1.00  0.00    -0.160 N  
HETATM   19  C   UNL     1     -10.047  10.511  69.266  1.00  0.00    -0.224 C  
HETATM   20  C   UNL     1      -8.281   8.893  68.499  1.00  0.00    -0.116 C  
HETATM   21  C   UNL     1     -10.416   9.138  67.205  1.00  0.00    -0.255 C  
HETATM   22  C   UNL     1      -7.623  10.039  67.748  1.00  0.00    -0.090 C  
HETATM   23  C   UNL     1      -9.684  10.188  66.366  1.00  0.00    -0.259 C  
HETATM   24  C   UNL     1      -8.677  10.993  67.211  1.00  0.00    -0.129 C  
BRANCH  18  25
HETATM   25  C   UNL     1     -10.509   8.050  69.518  1.00  0.00    -0.226 C  
BRANCH  25  26
HETATM   26  C   UNL     1     -11.033   6.765  68.855  1.00  0.00    -0.272 C  
BRANCH  26  27
HETATM   27  C   UNL     1     -10.227   5.518  69.188  1.00  0.00    -0.239 C  
BRANCH  27  28
HETATM   28  O   UNL     1      -8.923   5.550  68.624  1.00  0.00    -0.113 OA 
BRANCH  28  29
HETATM   29  C   UNL     1      -8.894   5.283  67.273  1.00  0.00    -0.105 A  
HETATM   30  C   UNL     1      -9.701   4.224  66.872  1.00  0.00    -0.239 A  
HETATM   31  C   UNL     1      -9.734   3.822  65.534  1.00  0.00    -0.151 A  
HETATM   32  C   UNL     1      -8.973   4.496  64.580  1.00  0.00    -0.152 A  
HETATM   33  C   UNL     1      -8.192   5.578  64.962  1.00  0.00    -0.139 A  
HETATM   34  C   UNL     1      -8.155   5.975  66.301  1.00  0.00    -0.112 A  
ENDBRANCH  28  29
ENDBRANCH  27  28
ENDBRANCH  26  27
ENDBRANCH  25  26
ENDBRANCH  18  25
ENDBRANCH  16  17
ENDBRANCH   6  16
TORSDOF 7
ENDMDL
MODEL       49
REMARK 921   NORMALIZED FREE ENERGY PREDICTED BY IDOCK:   -5.54 KCAL/MOL
REMARK 922        TOTAL FREE ENERGY PREDICTED BY IDOCK:   -9.45 KCAL/MOL
REMARK 923 INTER-LIGAND FREE ENERGY PREDICTED BY IDOCK:   -8.56 KCAL/MOL
REMARK 924 INTRA-LIGAND FREE ENERGY PREDICTED BY IDOCK:   -0.89 KCAL/MOL
REMARK 927      BINDING AFFINITY PREDICTED BY RF-SCORE:    0.00 PKD
ROOT
HETATM    1  O   UNL     1      -9.776  11.091  69.325  1.00  0.00    -0.392 OA 
HETATM    2  C   UNL     1      -8.772  10.512  68.477  1.00  0.00    -0.140 C  
HETATM    3  H   UNL     1      -9.782  10.609  70.144  1.00  0.00     0.000 HD 
HETATM    4  C   UNL     1      -9.217   9.069  68.212  1.00  0.00    -0.136 A  
HETATM    5  C   UNL     1      -7.468  10.593  69.268  1.00  0.00    -0.130 A  
HETATM    6  C   UNL     1      -8.762  11.310  67.119  1.00  0.00    -0.151 C  
HETATM    7  C   UNL     1      -9.476   6.782  67.287  1.00  0.00    -0.135 A  
HETATM    8  C   UNL     1     -10.269   8.369  68.782  1.00  0.00    -0.223 A  
HETATM    9  C   UNL     1      -6.852   9.604  70.024  1.00  0.00    -0.085 A  
HETATM   10  O   UNL     1      -8.063  12.267  66.808  1.00  0.00    -0.132 OA 
HETATM   11  C   UNL     1     -10.425   7.062  68.243  1.00  0.00    -0.237 A  
HETATM   12  C   UNL     1      -5.678  10.052  70.692  1.00  0.00    -0.080 A  
HETATM   13  S   UNL     1      -6.628  12.087  69.471  1.00  0.00    -0.033 SA 
HETATM   14  C   UNL     1      -5.431  11.383  70.456  1.00  0.00    -0.134 A  
HETATM   15  S   UNL     1      -8.374   8.070  67.078  1.00  0.00    -0.117 SA 
ENDROOT
BRANCH   6  16
HETATM   16  O   UNL     1      -9.731  10.848  66.264  1.00  0.00    -0.191 OA 
BRANCH  16  17
HETATM   17  C   UNL     1     -10.992  11.539  66.242  1.00  0.00    -0.275 C  
HETATM   18  N   UNL     1     -11.244  14.058  65.801  1.00  0.00    -0.300 N  
HETATM   19  C   UNL     1     -10.945  12.951  66.883  1.00  0.00    -0.266 C  
HETATM   20  C   UNL     1     -12.633  13.770  65.209  1.00  0.00    -0.473 C  
HETATM   21  C   UNL     1     -10.182  13.916  64.702  1.00  0.00    -0.247 C  
HETATM   22  C   UNL     1     -12.722  12.351  64.673  1.00  0.00    -0.372 C  
HETATM   23  C   UNL     1     -10.328  12.546  64.037  1.00  0.00    -0.429 C  
HETATM   24  C   UNL     1     -11.367  11.668  64.759  1.00  0.00    -0.270 C  
BRANCH  18  25
HETATM   25  C   UNL     1     -11.143  15.434  66.523  1.00  0.00    -0.227 C  
BRANCH  25  26
HETATM   26  C   UNL     1     -11.433  15.475  68.032  1.00  0.00    -0.313 C  
BRANCH  26  27
HETATM   27  C   UNL     1     -10.293  16.034  68.871  1.00  0.00    -0.235 C  
BRANCH  27  28
HETATM   28  O   UNL     1     -10.522  17.379  69.268  1.00  0.00    -0.341 OA 
BRANCH  28  29
HETATM   29  C   UNL     1      -9.887  18.309  68.474  1.00  0.00    -0.381 A  
HETATM   30  C   UNL     1     -10.739  19.092  67.703  1.00  0.00    -0.495 A  
HETATM   31  C   UNL     1     -10.224  20.049  66.823  1.00  0.00    -0.592 A  
HETATM   32  C   UNL     1      -8.848  20.245  66.728  1.00  0.00    -0.372 A  
HETATM   33  C   UNL     1      -7.989  19.496  67.521  1.00  0.00    -0.308 A  
HETATM   34  C   UNL     1      -8.505  18.535  68.395  1.00  0.00    -0.352 A  
ENDBRANCH  28  29
ENDBRANCH  27  28
ENDBRANCH  26  27
ENDBRANCH  25  26
ENDBRANCH  18  25
ENDBRANCH  16  17
ENDBRANCH   6  16
TORSDOF 7
ENDMDL
MODEL       50
REMARK 921   NORMALIZED FREE ENERGY PREDICTED BY IDOCK:   -5.53 KCAL/MOL
REMARK 922        TOTAL FREE ENERGY PREDICTED BY IDOCK:   -9.44 KCAL/MOL
REMARK 923 INTER-LIGAND FREE ENERGY PREDICTED BY IDOCK:   -8.58 KCAL/MOL
REMARK 924 INTRA-LIGAND FREE ENERGY PREDICTED BY IDOCK:   -0.86 KCAL/MOL
REMARK 927      BINDING AFFINITY PREDICTED BY RF-SCORE:    0.00 PKD
ROOT
HETATM    1  O   UNL     1     -11.077   7.704  67.317  1.00  0.00    -0.538 OA 
HETATM    2  C   UNL     1     -10.205   8.157  68.364  1.00  0.00    -0.209 C  
HETATM    3  H   UNL     1     -10.733   6.884  66.982  1.00  0.00     0.000 HD 
HETATM    4  C   UNL     1      -8.844   8.412  67.704  1.00  0.00    -0.136 A  
HETATM    5  C   UNL     1     -10.163   7.024  69.386  1.00  0.00    -0.189 A  
HETATM    6  C   UNL     1     -10.775   9.516  68.919  1.00  0.00    -0.195 C  
HETATM    7  C   UNL     1      -6.531   9.163  67.216  1.00  0.00    -0.060 A  
HETATM    8  C   UNL     1      -8.442   8.122  66.409  1.00  0.00    -0.133 A  
HETATM    9  C   UNL     1      -9.203   6.032  69.539  1.00  0.00    -0.145 A  
HETATM   10  O   UNL     1     -11.531   9.690  69.868  1.00  0.00    -0.203 OA 
HETATM   11  C   UNL     1      -7.119   8.564  66.126  1.00  0.00    -0.077 A  
HETATM   12  C   UNL     1      -9.524   5.087  70.554  1.00  0.00    -0.236 A  
HETATM   13  S   UNL     1     -11.492   6.715  70.443  1.00  0.00    -0.396 SA 
HETATM   14  C   UNL     1     -10.736   5.357  71.141  1.00  0.00    -0.169 A  
HETATM   15  S   UNL     1      -7.550   9.148  68.586  1.00  0.00    -0.085 SA 
ENDROOT
BRANCH   6  16
HETATM   16  O   UNL     1     -10.376  10.577  68.145  1.00  0.00    -0.158 OA 
BRANCH  16  17
HETATM   17  C   UNL     1     -10.490  11.897  68.703  1.00  0.00    -0.212 C  
HETATM   18  N   UNL     1     -10.037  14.058  67.390  1.00  0.00    -0.242 N  
HETATM   19  C   UNL     1      -9.393  12.881  68.218  1.00  0.00    -0.194 C  
HETATM   20  C   UNL     1     -11.049  14.772  68.301  1.00  0.00    -0.274 C  
HETATM   21  C   UNL     1     -10.775  13.427  66.202  1.00  0.00    -0.284 C  
HETATM   22  C   UNL     1     -12.066  13.795  68.867  1.00  0.00    -0.348 C  
HETATM   23  C   UNL     1     -11.905  12.540  66.728  1.00  0.00    -0.416 C  
HETATM   24  C   UNL     1     -11.866  12.415  68.263  1.00  0.00    -0.364 C  
BRANCH  18  25
HETATM   25  C   UNL     1      -8.866  14.971  66.919  1.00  0.00    -0.258 C  
BRANCH  25  26
HETATM   26  C   UNL     1      -9.166  16.020  65.836  1.00  0.00    -0.321 C  
BRANCH  26  27
HETATM   27  C   UNL     1      -9.682  17.346  66.378  1.00  0.00    -0.290 C  
BRANCH  27  28
HETATM   28  O   UNL     1      -8.991  18.460  65.831  1.00  0.00    -0.484 OA 
BRANCH  28  29
HETATM   29  C   UNL     1      -8.202  19.128  66.741  1.00  0.00    -0.280 A  
HETATM   30  C   UNL     1      -7.517  20.222  66.223  1.00  0.00    -0.266 A  
HETATM   31  C   UNL     1      -6.650  20.965  67.030  1.00  0.00    -0.390 A  
HETATM   32  C   UNL     1      -6.481  20.630  68.372  1.00  0.00    -0.303 A  
HETATM   33  C   UNL     1      -7.187  19.563  68.909  1.00  0.00    -0.397 A  
HETATM   34  C   UNL     1      -8.049  18.817  68.100  1.00  0.00    -0.327 A  
ENDBRANCH  28  29
ENDBRANCH  27  28
ENDBRANCH  26  27
ENDBRANCH  25  26
ENDBRANCH  18  25
ENDBRANCH  16  17
ENDBRANCH   6  16
TORSDOF 7
ENDMDL
MODEL       51
REMARK 921   NORMALIZED FREE ENERGY PREDICTED BY IDOCK:   -5.52 KCAL/MOL
REMARK 922        TOTAL FREE ENERGY PREDICTED BY IDOCK:   -9.43 KCAL/MOL
REMARK 923 INTER-LIGAND FREE ENERGY PREDICTED BY IDOCK:   -8.27 KCAL/MOL
REMARK 924 INTRA-LIGAND FREE ENERGY PREDICTED BY IDOCK:   -1.16 KCAL/MOL
REMARK 927      BINDING AFFINITY PREDICTED BY RF-SCORE:    0.00 PKD
ROOT
HETATM    1  O   UNL     1     -11.151   8.194  68.383  1.00  0.00    -0.414 OA 
HETATM    2  C   UNL     1     -10.320   8.763  69.406  1.00  0.00    -0.214 C  
HETATM    3  H   UNL     1     -11.870   7.740  68.806  1.00  0.00     0.000 HD 
HETATM    4  C   UNL     1      -9.769   7.583  70.214  1.00  0.00    -0.179 A  
HETATM    5  C   UNL     1     -11.239   9.665  70.228  1.00  0.00    -0.271 A  
HETATM    6  C   UNL     1      -9.128   9.515  68.704  1.00  0.00    -0.132 C  
HETATM    7  C   UNL     1      -8.443   6.148  71.742  1.00  0.00    -0.129 A  
HETATM    8  C   UNL     1     -10.102   6.240  70.122  1.00  0.00    -0.222 A  
HETATM    9  C   UNL     1     -11.872   9.385  71.433  1.00  0.00    -0.447 A  
HETATM   10  O   UNL     1      -9.056  10.697  68.390  1.00  0.00    -0.143 OA 
HETATM   11  C   UNL     1      -9.333   5.416  70.991  1.00  0.00    -0.188 A  
HETATM   12  C   UNL     1     -12.721  10.436  71.882  1.00  0.00    -0.459 A  
HETATM   13  S   UNL     1     -11.778  11.190  69.628  1.00  0.00    -0.371 SA 
HETATM   14  C   UNL     1     -12.743  11.489  71.000  1.00  0.00    -0.328 A  
HETATM   15  S   UNL     1      -8.569   7.823  71.438  1.00  0.00    -0.124 SA 
ENDROOT
BRANCH   6  16
HETATM   16  O   UNL     1      -8.113   8.647  68.382  1.00  0.00    -0.115 OA 
BRANCH  16  17
HETATM   17  C   UNL     1      -8.175   7.984  67.108  1.00  0.00    -0.117 C  
HETATM   18  N   UNL     1      -7.910   9.180  64.850  1.00  0.00    -0.113 N  
HETATM   19  C   UNL     1      -8.907   8.800  66.011  1.00  0.00    -0.175 C  
HETATM   20  C   UNL     1      -7.343   7.873  64.274  1.00  0.00    -0.088 C  
HETATM   21  C   UNL     1      -6.773   9.997  65.478  1.00  0.00    -0.105 C  
HETATM   22  C   UNL     1      -6.717   7.016  65.362  1.00  0.00    -0.051 C  
HETATM   23  C   UNL     1      -6.023   9.122  66.485  1.00  0.00    -0.059 C  
HETATM   24  C   UNL     1      -6.717   7.761  66.686  1.00  0.00    -0.066 C  
BRANCH  18  25
HETATM   25  C   UNL     1      -8.718  10.021  63.818  1.00  0.00    -0.217 C  
BRANCH  25  26
HETATM   26  C   UNL     1     -10.052  10.633  64.278  1.00  0.00    -0.411 C  
BRANCH  26  27
HETATM   27  C   UNL     1     -10.528  11.802  63.428  1.00  0.00    -0.434 C  
BRANCH  27  28
HETATM   28  O   UNL     1     -11.684  12.427  63.967  1.00  0.00    -0.353 OA 
BRANCH  28  29
HETATM   29  C   UNL     1     -11.411  13.348  64.955  1.00  0.00    -0.328 A  
HETATM   30  C   UNL     1     -12.198  13.227  66.095  1.00  0.00    -0.466 A  
HETATM   31  C   UNL     1     -12.051  14.123  67.158  1.00  0.00    -0.432 A  
HETATM   32  C   UNL     1     -11.095  15.135  67.095  1.00  0.00    -0.335 A  
HETATM   33  C   UNL     1     -10.278  15.242  65.979  1.00  0.00    -0.335 A  
HETATM   34  C   UNL     1     -10.430  14.350  64.914  1.00  0.00    -0.448 A  
ENDBRANCH  28  29
ENDBRANCH  27  28
ENDBRANCH  26  27
ENDBRANCH  25  26
ENDBRANCH  18  25
ENDBRANCH  16  17
ENDBRANCH   6  16
TORSDOF 7
ENDMDL
MODEL       52
REMARK 921   NORMALIZED FREE ENERGY PREDICTED BY IDOCK:   -5.52 KCAL/MOL
REMARK 922        TOTAL FREE ENERGY PREDICTED BY IDOCK:   -9.43 KCAL/MOL
REMARK 923 INTER-LIGAND FREE ENERGY PREDICTED BY IDOCK:   -8.56 KCAL/MOL
REMARK 924 INTRA-LIGAND FREE ENERGY PREDICTED BY IDOCK:   -0.87 KCAL/MOL
REMARK 927      BINDING AFFINITY PREDICTED BY RF-SCORE:    0.00 PKD
ROOT
HETATM    1  O   UNL     1      -7.629   9.467  66.915  1.00  0.00    -0.094 OA 
HETATM    2  C   UNL     1      -8.537   8.579  66.245  1.00  0.00    -0.129 C  
HETATM    3  H   UNL     1      -6.795   9.435  66.461  1.00  0.00     0.000 HD 
HETATM    4  C   UNL     1      -7.939   7.174  66.385  1.00  0.00    -0.112 A  
HETATM    5  C   UNL     1      -8.588   9.058  64.796  1.00  0.00    -0.175 A  
HETATM    6  C   UNL     1      -9.918   8.633  66.999  1.00  0.00    -0.249 C  
HETATM    7  C   UNL     1      -7.599   4.717  66.427  1.00  0.00    -0.087 A  
HETATM    8  C   UNL     1      -6.703   6.806  66.895  1.00  0.00    -0.056 A  
HETATM    9  C   UNL     1      -7.897   8.563  63.697  1.00  0.00    -0.151 A  
HETATM   10  O   UNL     1     -10.887   9.342  66.756  1.00  0.00    -0.114 OA 
HETATM   11  C   UNL     1      -6.514   5.396  66.930  1.00  0.00    -0.044 A  
HETATM   12  C   UNL     1      -8.130   9.304  62.504  1.00  0.00    -0.145 A  
HETATM   13  S   UNL     1      -9.445  10.487  64.349  1.00  0.00    -0.307 SA 
HETATM   14  C   UNL     1      -8.974  10.366  62.717  1.00  0.00    -0.260 A  
HETATM   15  S   UNL     1      -8.818   5.776  65.871  1.00  0.00    -0.142 SA 
ENDROOT
BRANCH   6  16
HETATM   16  O   UNL     1      -9.924   7.797  68.088  1.00  0.00    -0.165 OA 
BRANCH  16  17
HETATM   17  C   UNL     1      -9.879   8.395  69.395  1.00  0.00    -0.185 C  
HETATM   18  N   UNL     1     -11.744   8.162  71.147  1.00  0.00    -0.283 N  
HETATM   19  C   UNL     1     -11.244   8.951  69.877  1.00  0.00    -0.065 C  
HETATM   20  C   UNL     1     -10.674   8.311  72.241  1.00  0.00    -0.329 C  
HETATM   21  C   UNL     1     -11.861   6.685  70.746  1.00  0.00    -0.383 C  
HETATM   22  C   UNL     1      -9.309   7.867  71.742  1.00  0.00    -0.196 C  
HETATM   23  C   UNL     1     -10.476   6.156  70.369  1.00  0.00    -0.288 C  
HETATM   24  C   UNL     1      -9.422   7.280  70.345  1.00  0.00    -0.165 C  
BRANCH  18  25
HETATM   25  C   UNL     1     -13.127   8.762  71.537  1.00  0.00    -0.318 C  
BRANCH  25  26
HETATM   26  C   UNL     1     -13.139  10.019  72.422  1.00  0.00    -0.243 C  
BRANCH  26  27
HETATM   27  C   UNL     1     -13.026  11.326  71.650  1.00  0.00    -0.432 C  
BRANCH  27  28
HETATM   28  O   UNL     1     -13.752  12.382  72.263  1.00  0.00    -0.441 OA 
BRANCH  28  29
HETATM   29  C   UNL     1     -13.162  13.619  72.124  1.00  0.00    -0.449 A  
HETATM   30  C   UNL     1     -12.524  13.825  70.906  1.00  0.00    -0.451 A  
HETATM   31  C   UNL     1     -11.851  15.023  70.649  1.00  0.00    -0.364 A  
HETATM   32  C   UNL     1     -11.832  16.035  71.607  1.00  0.00    -0.582 A  
HETATM   33  C   UNL     1     -12.497  15.856  72.813  1.00  0.00    -0.565 A  
HETATM   34  C   UNL     1     -13.164  14.655  73.070  1.00  0.00    -0.587 A  
ENDBRANCH  28  29
ENDBRANCH  27  28
ENDBRANCH  26  27
ENDBRANCH  25  26
ENDBRANCH  18  25
ENDBRANCH  16  17
ENDBRANCH   6  16
TORSDOF 7
ENDMDL
MODEL       53
REMARK 921   NORMALIZED FREE ENERGY PREDICTED BY IDOCK:   -5.50 KCAL/MOL
REMARK 922        TOTAL FREE ENERGY PREDICTED BY IDOCK:   -9.40 KCAL/MOL
REMARK 923 INTER-LIGAND FREE ENERGY PREDICTED BY IDOCK:   -8.14 KCAL/MOL
REMARK 924 INTRA-LIGAND FREE ENERGY PREDICTED BY IDOCK:   -1.26 KCAL/MOL
REMARK 927      BINDING AFFINITY PREDICTED BY RF-SCORE:    0.00 PKD
ROOT
HETATM    1  O   UNL     1      -6.882   8.815  65.653  1.00  0.00    -0.073 OA 
HETATM    2  C   UNL     1      -7.746   9.180  66.740  1.00  0.00    -0.097 C  
HETATM    3  H   UNL     1      -5.996   8.750  65.990  1.00  0.00     0.000 HD 
HETATM    4  C   UNL     1      -7.280  10.564  67.209  1.00  0.00    -0.090 A  
HETATM    5  C   UNL     1      -7.552   8.100  67.802  1.00  0.00    -0.098 A  
HETATM    6  C   UNL     1      -9.214   9.288  66.180  1.00  0.00    -0.196 C  
HETATM    7  C   UNL     1      -7.132  12.799  68.275  1.00  0.00    -0.104 A  
HETATM    8  C   UNL     1      -6.161  11.281  66.813  1.00  0.00    -0.134 A  
HETATM    9  C   UNL     1      -6.748   8.135  68.934  1.00  0.00    -0.049 A  
HETATM   10  O   UNL     1     -10.083   8.425  66.159  1.00  0.00    -0.182 OA 
HETATM   11  C   UNL     1      -6.084  12.567  67.415  1.00  0.00    -0.155 A  
HETATM   12  C   UNL     1      -6.751   6.914  69.667  1.00  0.00    -0.050 A  
HETATM   13  S   UNL     1      -8.228   6.523  67.616  1.00  0.00    -0.122 SA 
HETATM   14  C   UNL     1      -7.536   5.959  69.068  1.00  0.00    -0.090 A  
HETATM   15  S   UNL     1      -8.177  11.453  68.392  1.00  0.00    -0.155 SA 
ENDROOT
BRANCH   6  16
HETATM   16  O   UNL     1      -9.438  10.516  65.607  1.00  0.00    -0.187 OA 
BRANCH  16  17
HETATM   17  C   UNL     1     -10.796  10.876  65.302  1.00  0.00    -0.052 C  
HETATM   18  N   UNL     1     -11.720  13.268  65.463  1.00  0.00    -0.331 N  
HETATM   19  C   UNL     1     -11.391  11.945  66.256  1.00  0.00    -0.334 C  
HETATM   20  C   UNL     1     -12.718  12.911  64.350  1.00  0.00    -0.245 C  
HETATM   21  C   UNL     1     -10.408  13.759  64.835  1.00  0.00    -0.398 C  
HETATM   22  C   UNL     1     -12.188  11.788  63.473  1.00  0.00    -0.489 C  
HETATM   23  C   UNL     1      -9.910  12.714  63.834  1.00  0.00     0.031 C  
HETATM   24  C   UNL     1     -10.765  11.433  63.872  1.00  0.00    -0.462 C  
BRANCH  18  25
HETATM   25  C   UNL     1     -12.276  14.289  66.500  1.00  0.00    -0.391 C  
BRANCH  25  26
HETATM   26  C   UNL     1     -11.630  14.319  67.894  1.00  0.00    -0.367 C  
BRANCH  26  27
HETATM   27  C   UNL     1     -10.919  15.625  68.223  1.00  0.00    -0.315 C  
BRANCH  27  28
HETATM   28  O   UNL     1     -10.504  16.323  67.058  1.00  0.00    -0.306 OA 
BRANCH  28  29
HETATM   29  C   UNL     1     -10.313  17.673  67.255  1.00  0.00    -0.354 A  
HETATM   30  C   UNL     1      -9.862  18.016  68.525  1.00  0.00    -0.383 A  
HETATM   31  C   UNL     1      -9.663  19.356  68.872  1.00  0.00    -0.502 A  
HETATM   32  C   UNL     1      -9.895  20.363  67.937  1.00  0.00    -0.433 A  
HETATM   33  C   UNL     1     -10.310  20.031  66.654  1.00  0.00    -0.565 A  
HETATM   34  C   UNL     1     -10.513  18.691  66.311  1.00  0.00    -0.468 A  
ENDBRANCH  28  29
ENDBRANCH  27  28
ENDBRANCH  26  27
ENDBRANCH  25  26
ENDBRANCH  18  25
ENDBRANCH  16  17
ENDBRANCH   6  16
TORSDOF 7
ENDMDL
MODEL       54
REMARK 921   NORMALIZED FREE ENERGY PREDICTED BY IDOCK:   -5.50 KCAL/MOL
REMARK 922        TOTAL FREE ENERGY PREDICTED BY IDOCK:   -9.39 KCAL/MOL
REMARK 923 INTER-LIGAND FREE ENERGY PREDICTED BY IDOCK:   -8.45 KCAL/MOL
REMARK 924 INTRA-LIGAND FREE ENERGY PREDICTED BY IDOCK:   -0.94 KCAL/MOL
REMARK 927      BINDING AFFINITY PREDICTED BY RF-SCORE:    0.00 PKD
ROOT
HETATM    1  O   UNL     1      -9.252   7.955  65.726  1.00  0.00    -0.369 OA 
HETATM    2  C   UNL     1      -8.962   8.755  66.882  1.00  0.00    -0.132 C  
HETATM    3  H   UNL     1      -8.510   7.382  65.572  1.00  0.00     0.000 HD 
HETATM    4  C   UNL     1      -7.736   9.601  66.519  1.00  0.00    -0.098 A  
HETATM    5  C   UNL     1      -8.684   7.765  68.011  1.00  0.00    -0.125 A  
HETATM    6  C   UNL     1     -10.191   9.706  67.138  1.00  0.00    -0.243 C  
HETATM    7  C   UNL     1      -5.950  11.322  66.478  1.00  0.00    -0.144 A  
HETATM    8  C   UNL     1      -6.936   9.526  65.389  1.00  0.00    -0.094 A  
HETATM    9  C   UNL     1      -7.457   7.318  68.486  1.00  0.00    -0.105 A  
HETATM   10  O   UNL     1     -11.157   9.516  67.868  1.00  0.00    -0.179 OA 
HETATM   11  C   UNL     1      -5.920  10.521  65.360  1.00  0.00    -0.129 A  
HETATM   12  C   UNL     1      -7.572   6.330  69.505  1.00  0.00    -0.094 A  
HETATM   13  S   UNL     1      -9.958   6.885  68.772  1.00  0.00    -0.158 SA 
HETATM   14  C   UNL     1      -8.883   6.019  69.771  1.00  0.00    -0.134 A  
HETATM   15  S   UNL     1      -7.165  10.845  67.578  1.00  0.00    -0.098 SA 
ENDROOT
BRANCH   6  16
HETATM   16  O   UNL     1     -10.120  10.833  66.356  1.00  0.00    -0.212 OA 
BRANCH  16  17
HETATM   17  C   UNL     1     -11.277  11.684  66.298  1.00  0.00    -0.271 C  
HETATM   18  N   UNL     1     -11.171  14.240  66.058  1.00  0.00    -0.319 N  
HETATM   19  C   UNL     1     -11.109  13.024  67.060  1.00  0.00    -0.281 C  
HETATM   20  C   UNL     1     -12.529  14.184  65.340  1.00  0.00    -0.472 C  
HETATM   21  C   UNL     1     -10.044  14.042  65.035  1.00  0.00    -0.292 C  
HETATM   22  C   UNL     1     -12.749  12.833  64.678  1.00  0.00    -0.439 C  
HETATM   23  C   UNL     1     -10.303  12.757  64.245  1.00  0.00    -0.402 C  
HETATM   24  C   UNL     1     -11.504  11.973  64.808  1.00  0.00    -0.357 C  
BRANCH  18  25
HETATM   25  C   UNL     1     -10.960  15.532  66.900  1.00  0.00    -0.268 C  
BRANCH  25  26
HETATM   26  C   UNL     1     -10.383  16.767  66.188  1.00  0.00    -0.338 C  
BRANCH  26  27
HETATM   27  C   UNL     1      -9.151  17.356  66.861  1.00  0.00    -0.245 C  
BRANCH  27  28
HETATM   28  O   UNL     1      -9.410  18.622  67.450  1.00  0.00    -0.279 OA 
BRANCH  28  29
HETATM   29  C   UNL     1      -8.273  19.333  67.766  1.00  0.00    -0.287 A  
HETATM   30  C   UNL     1      -7.871  20.246  66.797  1.00  0.00    -0.332 A  
HETATM   31  C   UNL     1      -6.710  21.005  66.974  1.00  0.00    -0.409 A  
HETATM   32  C   UNL     1      -5.955  20.870  68.138  1.00  0.00    -0.388 A  
HETATM   33  C   UNL     1      -6.366  19.989  69.128  1.00  0.00    -0.360 A  
HETATM   34  C   UNL     1      -7.524  19.227  68.947  1.00  0.00    -0.397 A  
ENDBRANCH  28  29
ENDBRANCH  27  28
ENDBRANCH  26  27
ENDBRANCH  25  26
ENDBRANCH  18  25
ENDBRANCH  16  17
ENDBRANCH   6  16
TORSDOF 7
ENDMDL
MODEL       55
REMARK 921   NORMALIZED FREE ENERGY PREDICTED BY IDOCK:   -5.49 KCAL/MOL
REMARK 922        TOTAL FREE ENERGY PREDICTED BY IDOCK:   -9.39 KCAL/MOL
REMARK 923 INTER-LIGAND FREE ENERGY PREDICTED BY IDOCK:   -7.90 KCAL/MOL
REMARK 924 INTRA-LIGAND FREE ENERGY PREDICTED BY IDOCK:   -1.49 KCAL/MOL
REMARK 927      BINDING AFFINITY PREDICTED BY RF-SCORE:    0.00 PKD
ROOT
HETATM    1  O   UNL     1      -9.501   8.663  65.034  1.00  0.00    -0.373 OA 
HETATM    2  C   UNL     1      -9.013   8.494  66.373  1.00  0.00    -0.165 C  
HETATM    3  H   UNL     1      -8.831   8.356  64.435  1.00  0.00     0.000 HD 
HETATM    4  C   UNL     1      -7.776   9.392  66.493  1.00  0.00    -0.094 A  
HETATM    5  C   UNL     1      -8.680   7.009  66.506  1.00  0.00    -0.134 A  
HETATM    6  C   UNL     1     -10.124   9.003  67.366  1.00  0.00    -0.230 C  
HETATM    7  C   UNL     1      -5.878  10.740  67.351  1.00  0.00    -0.045 A  
HETATM    8  C   UNL     1      -7.127  10.109  65.499  1.00  0.00    -0.138 A  
HETATM    9  C   UNL     1      -7.444   6.386  66.386  1.00  0.00    -0.086 A  
HETATM   10  O   UNL     1     -11.007   8.354  67.914  1.00  0.00    -0.031 OA 
HETATM   11  C   UNL     1      -6.046  10.891  65.994  1.00  0.00    -0.122 A  
HETATM   12  C   UNL     1      -7.513   4.969  66.495  1.00  0.00    -0.087 A  
HETATM   13  S   UNL     1      -9.918   5.818  66.662  1.00  0.00    -0.180 SA 
HETATM   14  C   UNL     1      -8.803   4.530  66.670  1.00  0.00    -0.112 A  
HETATM   15  S   UNL     1      -6.987   9.624  68.015  1.00  0.00    -0.079 SA 
ENDROOT
BRANCH   6  16
HETATM   16  O   UNL     1     -10.059  10.365  67.529  1.00  0.00    -0.177 OA 
BRANCH  16  17
HETATM   17  C   UNL     1     -11.176  11.150  67.078  1.00  0.00    -0.219 C  
HETATM   18  N   UNL     1     -11.473  13.652  67.583  1.00  0.00    -0.307 N  
HETATM   19  C   UNL     1     -11.678  12.183  68.120  1.00  0.00    -0.341 C  
HETATM   20  C   UNL     1     -12.253  13.780  66.264  1.00  0.00    -0.447 C  
HETATM   21  C   UNL     1      -9.974  13.829  67.309  1.00  0.00    -0.239 C  
HETATM   22  C   UNL     1     -11.842  12.703  65.273  1.00  0.00    -0.452 C  
HETATM   23  C   UNL     1      -9.545  12.854  66.210  1.00  0.00    -0.245 C  
HETATM   24  C   UNL     1     -10.684  11.890  65.826  1.00  0.00    -0.327 C  
BRANCH  18  25
HETATM   25  C   UNL     1     -11.970  14.615  68.700  1.00  0.00    -0.270 C  
BRANCH  25  26
HETATM   26  C   UNL     1     -11.606  16.104  68.578  1.00  0.00    -0.265 C  
BRANCH  26  27
HETATM   27  C   UNL     1     -10.635  16.597  69.642  1.00  0.00    -0.274 C  
BRANCH  27  28
HETATM   28  O   UNL     1      -9.310  16.728  69.146  1.00  0.00    -0.245 OA 
BRANCH  28  29
HETATM   29  C   UNL     1      -9.147  17.768  68.257  1.00  0.00    -0.281 A  
HETATM   30  C   UNL     1      -9.720  18.970  68.658  1.00  0.00    -0.468 A  
HETATM   31  C   UNL     1      -9.663  20.096  67.832  1.00  0.00    -0.499 A  
HETATM   32  C   UNL     1      -9.007  20.031  66.604  1.00  0.00    -0.446 A  
HETATM   33  C   UNL     1      -8.399  18.848  66.209  1.00  0.00    -0.274 A  
HETATM   34  C   UNL     1      -8.463  17.721  67.033  1.00  0.00    -0.245 A  
ENDBRANCH  28  29
ENDBRANCH  27  28
ENDBRANCH  26  27
ENDBRANCH  25  26
ENDBRANCH  18  25
ENDBRANCH  16  17
ENDBRANCH   6  16
TORSDOF 7
ENDMDL
MODEL       56
REMARK 921   NORMALIZED FREE ENERGY PREDICTED BY IDOCK:   -5.47 KCAL/MOL
REMARK 922        TOTAL FREE ENERGY PREDICTED BY IDOCK:   -9.36 KCAL/MOL
REMARK 923 INTER-LIGAND FREE ENERGY PREDICTED BY IDOCK:   -8.58 KCAL/MOL
REMARK 924 INTRA-LIGAND FREE ENERGY PREDICTED BY IDOCK:   -0.77 KCAL/MOL
REMARK 927      BINDING AFFINITY PREDICTED BY RF-SCORE:    0.00 PKD
ROOT
HETATM    1  O   UNL     1      -9.488  14.030  69.326  1.00  0.00    -0.395 OA 
HETATM    2  C   UNL     1     -10.545  14.943  68.994  1.00  0.00    -0.245 C  
HETATM    3  H   UNL     1      -9.000  14.397  70.054  1.00  0.00     0.000 HD 
HETATM    4  C   UNL     1      -9.863  16.240  68.543  1.00  0.00    -0.223 A  
HETATM    5  C   UNL     1     -11.358  15.117  70.275  1.00  0.00    -0.283 A  
HETATM    6  C   UNL     1     -11.353  14.334  67.787  1.00  0.00    -0.307 C  
HETATM    7  C   UNL     1      -9.379  18.469  67.569  1.00  0.00    -0.279 A  
HETATM    8  C   UNL     1      -8.517  16.571  68.588  1.00  0.00    -0.243 A  
HETATM    9  C   UNL     1     -11.287  16.140  71.212  1.00  0.00    -0.347 A  
HETATM   10  O   UNL     1     -12.359  13.635  67.824  1.00  0.00    -0.246 OA 
HETATM   11  C   UNL     1      -8.239  17.844  68.018  1.00  0.00    -0.257 A  
HETATM   12  C   UNL     1     -12.144  15.942  72.331  1.00  0.00    -0.605 A  
HETATM   13  S   UNL     1     -12.420  13.881  70.843  1.00  0.00    -0.381 SA 
HETATM   14  C   UNL     1     -12.835  14.758  72.244  1.00  0.00    -0.333 A  
HETATM   15  S   UNL     1     -10.782  17.546  67.878  1.00  0.00    -0.262 SA 
ENDROOT
BRANCH   6  16
HETATM   16  O   UNL     1     -10.747  14.620  66.588  1.00  0.00    -0.294 OA 
BRANCH  16  17
HETATM   17  C   UNL     1      -9.925  13.603  65.992  1.00  0.00    -0.302 C  
HETATM   18  N   UNL     1     -10.650  11.156  65.700  1.00  0.00    -0.248 N  
HETATM   19  C   UNL     1     -10.035  12.220  66.686  1.00  0.00    -0.215 C  
HETATM   20  C   UNL     1      -9.737  11.078  64.466  1.00  0.00    -0.273 C  
HETATM   21  C   UNL     1     -12.033  11.673  65.280  1.00  0.00     0.316 C  
HETATM   22  C   UNL     1      -9.537  12.449  63.840  1.00  0.00     0.151 C  
HETATM   23  C   UNL     1     -11.866  12.989  64.518  1.00  0.00    -0.431 C  
HETATM   24  C   UNL     1     -10.406  13.481  64.540  1.00  0.00    -0.381 C  
BRANCH  18  25
HETATM   25  C   UNL     1     -10.754   9.816  66.488  1.00  0.00     0.011 C  
BRANCH  25  26
HETATM   26  C   UNL     1      -9.569   8.840  66.402  1.00  0.00    -0.316 C  
BRANCH  26  27
HETATM   27  C   UNL     1      -9.445   7.903  67.595  1.00  0.00    -0.144 C  
BRANCH  27  28
HETATM   28  O   UNL     1     -10.710   7.539  68.130  1.00  0.00    -0.174 OA 
BRANCH  28  29
HETATM   29  C   UNL     1     -10.774   7.605  69.505  1.00  0.00    -0.209 A  
HETATM   30  C   UNL     1     -10.305   8.794  70.052  1.00  0.00    -0.213 A  
HETATM   31  C   UNL     1     -10.277   8.977  71.438  1.00  0.00    -0.399 A  
HETATM   32  C   UNL     1     -10.741   7.974  72.286  1.00  0.00    -0.360 A  
HETATM   33  C   UNL     1     -11.246   6.797  71.751  1.00  0.00    -0.294 A  
HETATM   34  C   UNL     1     -11.268   6.614  70.365  1.00  0.00    -0.398 A  
ENDBRANCH  28  29
ENDBRANCH  27  28
ENDBRANCH  26  27
ENDBRANCH  25  26
ENDBRANCH  18  25
ENDBRANCH  16  17
ENDBRANCH   6  16
TORSDOF 7
ENDMDL
MODEL       57
REMARK 921   NORMALIZED FREE ENERGY PREDICTED BY IDOCK:   -5.44 KCAL/MOL
REMARK 922        TOTAL FREE ENERGY PREDICTED BY IDOCK:   -9.31 KCAL/MOL
REMARK 923 INTER-LIGAND FREE ENERGY PREDICTED BY IDOCK:   -7.67 KCAL/MOL
REMARK 924 INTRA-LIGAND FREE ENERGY PREDICTED BY IDOCK:   -1.64 KCAL/MOL
REMARK 927      BINDING AFFINITY PREDICTED BY RF-SCORE:    0.00 PKD
ROOT
HETATM    1  O   UNL     1      -9.183  12.088  67.602  1.00  0.00    -0.172 OA 
HETATM    2  C   UNL     1     -10.017  11.002  67.170  1.00  0.00    -0.187 C  
HETATM    3  H   UNL     1      -8.588  12.303  66.892  1.00  0.00     0.000 HD 
HETATM    4  C   UNL     1      -9.077   9.816  66.921  1.00  0.00    -0.142 A  
HETATM    5  C   UNL     1     -10.703  11.490  65.896  1.00  0.00    -0.272 A  
HETATM    6  C   UNL     1     -11.002  10.646  68.345  1.00  0.00    -0.251 C  
HETATM    7  C   UNL     1      -8.142   7.551  66.534  1.00  0.00    -0.120 A  
HETATM    8  C   UNL     1      -7.691   9.792  66.933  1.00  0.00    -0.098 A  
HETATM    9  C   UNL     1     -10.352  11.241  64.575  1.00  0.00    -0.381 A  
HETATM   10  O   UNL     1     -12.138  11.064  68.535  1.00  0.00    -0.573 OA 
HETATM   11  C   UNL     1      -7.155   8.491  66.723  1.00  0.00    -0.074 A  
HETATM   12  C   UNL     1     -11.175  11.922  63.634  1.00  0.00    -0.522 A  
HETATM   13  S   UNL     1     -11.991  12.636  65.949  1.00  0.00    -0.403 SA 
HETATM   14  C   UNL     1     -12.123  12.701  64.251  1.00  0.00    -0.426 A  
HETATM   15  S   UNL     1      -9.703   8.244  66.560  1.00  0.00    -0.241 SA 
ENDROOT
BRANCH   6  16
HETATM   16  O   UNL     1     -10.407   9.810  69.257  1.00  0.00    -0.192 OA 
BRANCH  16  17
HETATM   17  C   UNL     1     -11.260   8.986  70.069  1.00  0.00    -0.128 C  
HETATM   18  N   UNL     1     -10.577   6.695  71.009  1.00  0.00    -0.222 N  
HETATM   19  C   UNL     1     -11.148   7.470  69.761  1.00  0.00    -0.129 C  
HETATM   20  C   UNL     1     -11.529   6.944  72.191  1.00  0.00    -0.279 C  
HETATM   21  C   UNL     1      -9.201   7.296  71.326  1.00  0.00    -0.150 C  
HETATM   22  C   UNL     1     -11.729   8.431  72.433  1.00  0.00    -0.452 C  
HETATM   23  C   UNL     1      -9.373   8.766  71.715  1.00  0.00    -0.350 C  
HETATM   24  C   UNL     1     -10.826   9.242  71.519  1.00  0.00    -0.442 C  
BRANCH  18  25
HETATM   25  C   UNL     1     -10.467   5.196  70.599  1.00  0.00    -0.199 C  
BRANCH  25  26
HETATM   26  C   UNL     1      -9.067   4.634  70.303  1.00  0.00    -0.164 C  
BRANCH  26  27
HETATM   27  C   UNL     1      -9.069   3.364  69.465  1.00  0.00    -0.135 C  
BRANCH  27  28
HETATM   28  O   UNL     1      -8.081   3.387  68.445  1.00  0.00    -0.068 OA 
BRANCH  28  29
HETATM   29  C   UNL     1      -8.564   3.756  67.208  1.00  0.00    -0.103 A  
HETATM   30  C   UNL     1      -7.615   3.768  66.193  1.00  0.00    -0.088 A  
HETATM   31  C   UNL     1      -7.963   4.161  64.897  1.00  0.00    -0.093 A  
HETATM   32  C   UNL     1      -9.277   4.524  64.605  1.00  0.00    -0.145 A  
HETATM   33  C   UNL     1     -10.242   4.481  65.601  1.00  0.00    -0.275 A  
HETATM   34  C   UNL     1      -9.890   4.093  66.898  1.00  0.00    -0.197 A  
ENDBRANCH  28  29
ENDBRANCH  27  28
ENDBRANCH  26  27
ENDBRANCH  25  26
ENDBRANCH  18  25
ENDBRANCH  16  17
ENDBRANCH   6  16
TORSDOF 7
ENDMDL
MODEL       58
REMARK 921   NORMALIZED FREE ENERGY PREDICTED BY IDOCK:   -5.41 KCAL/MOL
REMARK 922        TOTAL FREE ENERGY PREDICTED BY IDOCK:   -9.27 KCAL/MOL
REMARK 923 INTER-LIGAND FREE ENERGY PREDICTED BY IDOCK:   -8.13 KCAL/MOL
REMARK 924 INTRA-LIGAND FREE ENERGY PREDICTED BY IDOCK:   -1.14 KCAL/MOL
REMARK 927      BINDING AFFINITY PREDICTED BY RF-SCORE:    0.00 PKD
ROOT
HETATM    1  O   UNL     1      -9.475   6.649  65.706  1.00  0.00    -0.387 OA 
HETATM    2  C   UNL     1      -8.345   7.410  66.157  1.00  0.00    -0.139 C  
HETATM    3  H   UNL     1      -9.754   7.004  64.870  1.00  0.00     0.000 HD 
HETATM    4  C   UNL     1      -8.850   8.844  66.359  1.00  0.00    -0.152 A  
HETATM    5  C   UNL     1      -7.303   7.302  65.045  1.00  0.00    -0.079 A  
HETATM    6  C   UNL     1      -7.882   6.822  67.543  1.00  0.00    -0.111 C  
HETATM    7  C   UNL     1      -9.086  11.219  67.034  1.00  0.00    -0.163 A  
HETATM    8  C   UNL     1     -10.085   9.381  66.030  1.00  0.00    -0.302 A  
HETATM    9  C   UNL     1      -7.024   8.209  64.030  1.00  0.00    -0.071 A  
HETATM   10  O   UNL     1      -7.029   5.970  67.758  1.00  0.00    -0.065 OA 
HETATM   11  C   UNL     1     -10.224  10.740  66.428  1.00  0.00    -0.294 A  
HETATM   12  C   UNL     1      -6.035   7.747  63.116  1.00  0.00    -0.062 A  
HETATM   13  S   UNL     1      -6.399   5.854  64.796  1.00  0.00    -0.038 SA 
HETATM   14  C   UNL     1      -5.595   6.485  63.433  1.00  0.00    -0.030 A  
HETATM   15  S   UNL     1      -7.840  10.052  67.077  1.00  0.00    -0.102 SA 
ENDROOT
BRANCH   6  16
HETATM   16  O   UNL     1      -8.626   7.339  68.575  1.00  0.00    -0.124 OA 
BRANCH  16  17
HETATM   17  C   UNL     1      -8.751   6.551  69.771  1.00  0.00    -0.143 C  
HETATM   18  N   UNL     1     -10.692   6.771  71.441  1.00  0.00    -0.222 N  
HETATM   19  C   UNL     1      -9.293   7.343  70.990  1.00  0.00    -0.157 C  
HETATM   20  C   UNL     1     -10.499   5.287  71.793  1.00  0.00    -0.214 C  
HETATM   21  C   UNL     1     -11.640   6.891  70.239  1.00  0.00    -0.311 C  
HETATM   22  C   UNL     1      -9.868   4.524  70.641  1.00  0.00    -0.292 C  
HETATM   23  C   UNL     1     -11.113   6.021  69.096  1.00  0.00    -0.405 C  
HETATM   24  C   UNL     1      -9.732   5.423  69.423  1.00  0.00    -0.226 C  
BRANCH  18  25
HETATM   25  C   UNL     1     -11.172   7.643  72.639  1.00  0.00    -0.366 C  
BRANCH  25  26
HETATM   26  C   UNL     1     -12.417   8.520  72.434  1.00  0.00    -0.416 C  
BRANCH  26  27
HETATM   27  C   UNL     1     -12.143   9.835  71.719  1.00  0.00    -0.346 C  
BRANCH  27  28
HETATM   28  O   UNL     1     -13.095  10.838  72.046  1.00  0.00    -0.483 OA 
BRANCH  28  29
HETATM   29  C   UNL     1     -12.860  12.050  71.434  1.00  0.00    -0.288 A  
HETATM   30  C   UNL     1     -12.095  11.978  70.276  1.00  0.00    -0.395 A  
HETATM   31  C   UNL     1     -11.750  13.140  69.578  1.00  0.00    -0.382 A  
HETATM   32  C   UNL     1     -12.191  14.383  70.026  1.00  0.00    -0.408 A  
HETATM   33  C   UNL     1     -12.986  14.465  71.161  1.00  0.00    -0.419 A  
HETATM   34  C   UNL     1     -13.326  13.303  71.860  1.00  0.00    -0.540 A  
ENDBRANCH  28  29
ENDBRANCH  27  28
ENDBRANCH  26  27
ENDBRANCH  25  26
ENDBRANCH  18  25
ENDBRANCH  16  17
ENDBRANCH   6  16
TORSDOF 7
ENDMDL
MODEL       59
REMARK 921   NORMALIZED FREE ENERGY PREDICTED BY IDOCK:   -5.40 KCAL/MOL
REMARK 922        TOTAL FREE ENERGY PREDICTED BY IDOCK:   -9.26 KCAL/MOL
REMARK 923 INTER-LIGAND FREE ENERGY PREDICTED BY IDOCK:   -8.23 KCAL/MOL
REMARK 924 INTRA-LIGAND FREE ENERGY PREDICTED BY IDOCK:   -1.03 KCAL/MOL
REMARK 927      BINDING AFFINITY PREDICTED BY RF-SCORE:    0.00 PKD
ROOT
HETATM    1  O   UNL     1     -12.255  10.354  68.281  1.00  0.00    -0.621 OA 
HETATM    2  C   UNL     1     -11.350  10.495  69.386  1.00  0.00    -0.269 C  
HETATM    3  H   UNL     1     -12.431   9.428  68.161  1.00  0.00     0.000 HD 
HETATM    4  C   UNL     1     -10.056   9.785  68.970  1.00  0.00    -0.187 A  
HETATM    5  C   UNL     1     -12.038   9.823  70.572  1.00  0.00    -0.168 A  
HETATM    6  C   UNL     1     -11.059  12.030  69.585  1.00  0.00    -0.006 C  
HETATM    7  C   UNL     1      -7.712   8.988  68.821  1.00  0.00    -0.095 A  
HETATM    8  C   UNL     1      -9.816   9.011  67.845  1.00  0.00    -0.207 A  
HETATM    9  C   UNL     1     -11.843   8.542  71.072  1.00  0.00    -0.290 A  
HETATM   10  O   UNL     1     -11.631  12.820  70.327  1.00  0.00    -0.163 OA 
HETATM   11  C   UNL     1      -8.468   8.564  67.754  1.00  0.00    -0.130 A  
HETATM   12  C   UNL     1     -12.715   8.217  72.149  1.00  0.00    -0.332 A  
HETATM   13  S   UNL     1     -13.362  10.570  71.388  1.00  0.00    -0.154 SA 
HETATM   14  C   UNL     1     -13.580   9.245  72.436  1.00  0.00    -0.463 A  
HETATM   15  S   UNL     1      -8.633   9.878  69.951  1.00  0.00    -0.153 SA 
ENDROOT
BRANCH   6  16
HETATM   16  O   UNL     1     -10.070  12.463  68.737  1.00  0.00    -0.168 OA 
BRANCH  16  17
HETATM   17  C   UNL     1     -10.191  13.786  68.185  1.00  0.00    -0.253 C  
HETATM   18  N   UNL     1      -8.277  15.499  68.127  1.00  0.00    -0.142 N  
HETATM   19  C   UNL     1      -9.436  14.873  68.993  1.00  0.00    -0.196 C  
HETATM   20  C   UNL     1      -8.910  16.097  66.860  1.00  0.00    -0.219 C  
HETATM   21  C   UNL     1      -7.335  14.352  67.734  1.00  0.00    -0.173 C  
HETATM   22  C   UNL     1      -9.741  15.064  66.117  1.00  0.00    -0.334 C  
HETATM   23  C   UNL     1      -8.099  13.353  66.861  1.00  0.00     0.097 C  
HETATM   24  C   UNL     1      -9.597  13.700  66.772  1.00  0.00    -0.277 C  
BRANCH  18  25
HETATM   25  C   UNL     1      -7.558  16.549  69.024  1.00  0.00    -0.233 C  
BRANCH  25  26
HETATM   26  C   UNL     1      -6.510  17.460  68.364  1.00  0.00    -0.177 C  
BRANCH  26  27
HETATM   27  C   UNL     1      -6.545  18.903  68.847  1.00  0.00    -0.276 C  
BRANCH  27  28
HETATM   28  O   UNL     1      -7.847  19.308  69.247  1.00  0.00    -0.267 OA 
BRANCH  28  29
HETATM   29  C   UNL     1      -8.726  19.473  68.199  1.00  0.00    -0.324 A  
HETATM   30  C   UNL     1     -10.038  19.108  68.479  1.00  0.00    -0.499 A  
HETATM   31  C   UNL     1     -11.025  19.189  67.492  1.00  0.00    -0.405 A  
HETATM   32  C   UNL     1     -10.706  19.658  66.219  1.00  0.00    -0.524 A  
HETATM   33  C   UNL     1      -9.407  20.060  65.938  1.00  0.00    -0.243 A  
HETATM   34  C   UNL     1      -8.421  19.974  66.925  1.00  0.00    -0.385 A  
ENDBRANCH  28  29
ENDBRANCH  27  28
ENDBRANCH  26  27
ENDBRANCH  25  26
ENDBRANCH  18  25
ENDBRANCH  16  17
ENDBRANCH   6  16
TORSDOF 7
ENDMDL
MODEL       60
REMARK 921   NORMALIZED FREE ENERGY PREDICTED BY IDOCK:   -5.38 KCAL/MOL
REMARK 922        TOTAL FREE ENERGY PREDICTED BY IDOCK:   -9.23 KCAL/MOL
REMARK 923 INTER-LIGAND FREE ENERGY PREDICTED BY IDOCK:   -7.52 KCAL/MOL
REMARK 924 INTRA-LIGAND FREE ENERGY PREDICTED BY IDOCK:   -1.71 KCAL/MOL
REMARK 927      BINDING AFFINITY PREDICTED BY RF-SCORE:    0.00 PKD
ROOT
HETATM    1  O   UNL     1      -6.424   6.656  67.503  1.00  0.00    -0.042 OA 
HETATM    2  C   UNL     1      -7.492   7.611  67.584  1.00  0.00    -0.104 C  
HETATM    3  H   UNL     1      -6.353   6.369  66.600  1.00  0.00     0.000 HD 
HETATM    4  C   UNL     1      -8.769   6.858  67.192  1.00  0.00    -0.120 A  
HETATM    5  C   UNL     1      -7.132   8.718  66.596  1.00  0.00    -0.081 A  
HETATM    6  C   UNL     1      -7.609   8.086  69.081  1.00  0.00    -0.097 C  
HETATM    7  C   UNL     1     -11.129   6.180  66.841  1.00  0.00    -0.219 A  
HETATM    8  C   UNL     1      -8.895   5.570  66.693  1.00  0.00    -0.117 A  
HETATM    9  C   UNL     1      -7.585   8.897  65.295  1.00  0.00    -0.098 A  
HETATM   10  O   UNL     1      -7.085   9.058  69.611  1.00  0.00    -0.055 OA 
HETATM   11  C   UNL     1     -10.250   5.178  66.504  1.00  0.00    -0.300 A  
HETATM   12  C   UNL     1      -6.978  10.002  64.633  1.00  0.00    -0.137 A  
HETATM   13  S   UNL     1      -5.895   9.870  66.945  1.00  0.00    -0.051 SA 
HETATM   14  C   UNL     1      -6.053  10.632  65.430  1.00  0.00    -0.090 A  
HETATM   15  S   UNL     1     -10.324   7.602  67.336  1.00  0.00    -0.299 SA 
ENDROOT
BRANCH   6  16
HETATM   16  O   UNL     1      -8.356   7.206  69.825  1.00  0.00    -0.129 OA 
BRANCH  16  17
HETATM   17  C   UNL     1      -8.897   7.672  71.073  1.00  0.00    -0.142 C  
HETATM   18  N   UNL     1     -11.362   8.306  71.426  1.00  0.00    -0.253 N  
HETATM   19  C   UNL     1      -9.952   8.798  70.918  1.00  0.00    -0.222 C  
HETATM   20  C   UNL     1     -11.211   7.895  72.899  1.00  0.00    -0.366 C  
HETATM   21  C   UNL     1     -11.741   7.076  70.589  1.00  0.00    -0.338 C  
HETATM   22  C   UNL     1     -10.104   6.868  73.076  1.00  0.00    -0.226 C  
HETATM   23  C   UNL     1     -10.724   5.962  70.846  1.00  0.00    -0.338 C  
HETATM   24  C   UNL     1      -9.554   6.447  71.723  1.00  0.00    -0.162 C  
BRANCH  18  25
HETATM   25  C   UNL     1     -12.358   9.481  71.202  1.00  0.00    -0.326 C  
BRANCH  25  26
HETATM   26  C   UNL     1     -11.794  10.808  70.668  1.00  0.00    -0.460 C  
BRANCH  26  27
HETATM   27  C   UNL     1     -12.216  11.137  69.243  1.00  0.00    -0.226 C  
BRANCH  27  28
HETATM   28  O   UNL     1     -11.553  12.285  68.734  1.00  0.00    -0.281 OA 
BRANCH  28  29
HETATM   29  C   UNL     1     -11.568  12.375  67.359  1.00  0.00    -0.365 A  
HETATM   30  C   UNL     1     -10.866  11.369  66.704  1.00  0.00    -0.339 A  
HETATM   31  C   UNL     1     -10.768  11.363  65.310  1.00  0.00    -0.326 A  
HETATM   32  C   UNL     1     -11.395  12.355  64.558  1.00  0.00    -0.381 A  
HETATM   33  C   UNL     1     -12.130  13.343  65.199  1.00  0.00    -0.442 A  
HETATM   34  C   UNL     1     -12.222  13.351  66.594  1.00  0.00    -0.391 A  
ENDBRANCH  28  29
ENDBRANCH  27  28
ENDBRANCH  26  27
ENDBRANCH  25  26
ENDBRANCH  18  25
ENDBRANCH  16  17
ENDBRANCH   6  16
TORSDOF 7
ENDMDL
MODEL       61
REMARK 921   NORMALIZED FREE ENERGY PREDICTED BY IDOCK:   -5.36 KCAL/MOL
REMARK 922        TOTAL FREE ENERGY PREDICTED BY IDOCK:   -9.21 KCAL/MOL
REMARK 923 INTER-LIGAND FREE ENERGY PREDICTED BY IDOCK:   -8.06 KCAL/MOL
REMARK 924 INTRA-LIGAND FREE ENERGY PREDICTED BY IDOCK:   -1.15 KCAL/MOL
REMARK 927      BINDING AFFINITY PREDICTED BY RF-SCORE:    0.00 PKD
ROOT
HETATM    1  O   UNL     1      -8.609  15.072  66.153  1.00  0.00    -0.429 OA 
HETATM    2  C   UNL     1      -9.443  14.178  66.905  1.00  0.00    -0.267 C  
HETATM    3  H   UNL     1      -9.154  15.776  65.822  1.00  0.00     0.000 HD 
HETATM    4  C   UNL     1     -10.459  13.605  65.910  1.00  0.00    -0.296 A  
HETATM    5  C   UNL     1     -10.095  15.034  67.988  1.00  0.00    -0.223 A  
HETATM    6  C   UNL     1      -8.538  13.011  67.453  1.00  0.00    -0.199 C  
HETATM    7  C   UNL     1     -12.195  12.226  64.798  1.00  0.00    -0.365 A  
HETATM    8  C   UNL     1     -10.676  13.968  64.589  1.00  0.00    -0.416 A  
HETATM    9  C   UNL     1     -11.361  15.606  67.993  1.00  0.00    -0.324 A  
HETATM   10  O   UNL     1      -7.973  12.935  68.537  1.00  0.00    -0.144 OA 
HETATM   11  C   UNL     1     -11.664  13.168  63.948  1.00  0.00    -0.515 A  
HETATM   12  C   UNL     1     -11.613  16.410  69.141  1.00  0.00    -0.117 A  
HETATM   13  S   UNL     1      -9.206  15.577  69.364  1.00  0.00    -0.264 SA 
HETATM   14  C   UNL     1     -10.526  16.461  69.980  1.00  0.00    -0.131 A  
HETATM   15  S   UNL     1     -11.542  12.338  66.372  1.00  0.00    -0.358 SA 
ENDROOT
BRANCH   6  16
HETATM   16  O   UNL     1      -8.362  12.032  66.506  1.00  0.00    -0.136 OA 
BRANCH  16  17
HETATM   17  C   UNL     1      -7.862  10.757  66.944  1.00  0.00    -0.130 C  
HETATM   18  N   UNL     1      -9.074   8.525  66.554  1.00  0.00    -0.164 N  
HETATM   19  C   UNL     1      -8.961   9.800  67.475  1.00  0.00    -0.131 C  
HETATM   20  C   UNL     1      -7.702   7.832  66.545  1.00  0.00    -0.097 C  
HETATM   21  C   UNL     1      -9.407   9.016  65.138  1.00  0.00    -0.029 C  
HETATM   22  C   UNL     1      -6.600   8.793  66.128  1.00  0.00    -0.065 C  
HETATM   23  C   UNL     1      -8.253   9.879  64.622  1.00  0.00    -0.153 C  
HETATM   24  C   UNL     1      -7.194  10.129  65.713  1.00  0.00    -0.128 C  
BRANCH  18  25
HETATM   25  C   UNL     1     -10.217   7.644  67.139  1.00  0.00    -0.290 C  
BRANCH  25  26
HETATM   26  C   UNL     1     -10.413   7.644  68.664  1.00  0.00    -0.203 C  
BRANCH  26  27
HETATM   27  C   UNL     1     -11.137   6.416  69.199  1.00  0.00    -0.365 C  
BRANCH  27  28
HETATM   28  O   UNL     1     -11.960   6.719  70.317  1.00  0.00    -0.352 OA 
BRANCH  28  29
HETATM   29  C   UNL     1     -11.289   6.715  71.520  1.00  0.00    -0.281 A  
HETATM   30  C   UNL     1     -11.084   5.453  72.067  1.00  0.00    -0.204 A  
HETATM   31  C   UNL     1     -10.451   5.308  73.305  1.00  0.00    -0.262 A  
HETATM   32  C   UNL     1      -9.996   6.430  73.994  1.00  0.00    -0.301 A  
HETATM   33  C   UNL     1     -10.161   7.692  73.442  1.00  0.00    -0.379 A  
HETATM   34  C   UNL     1     -10.800   7.836  72.207  1.00  0.00    -0.339 A  
ENDBRANCH  28  29
ENDBRANCH  27  28
ENDBRANCH  26  27
ENDBRANCH  25  26
ENDBRANCH  18  25
ENDBRANCH  16  17
ENDBRANCH   6  16
TORSDOF 7
ENDMDL
MODEL       62
REMARK 921   NORMALIZED FREE ENERGY PREDICTED BY IDOCK:   -5.35 KCAL/MOL
REMARK 922        TOTAL FREE ENERGY PREDICTED BY IDOCK:   -9.19 KCAL/MOL
REMARK 923 INTER-LIGAND FREE ENERGY PREDICTED BY IDOCK:   -8.59 KCAL/MOL
REMARK 924 INTRA-LIGAND FREE ENERGY PREDICTED BY IDOCK:   -0.60 KCAL/MOL
REMARK 927      BINDING AFFINITY PREDICTED BY RF-SCORE:    0.00 PKD
ROOT
HETATM    1  O   UNL     1     -12.381   7.134  70.394  1.00  0.00    -0.589 OA 
HETATM    2  C   UNL     1     -11.025   7.588  70.269  1.00  0.00    -0.250 C  
HETATM    3  H   UNL     1     -12.376   6.184  70.396  1.00  0.00     0.000 HD 
HETATM    4  C   UNL     1     -10.529   7.081  68.909  1.00  0.00    -0.203 A  
HETATM    5  C   UNL     1     -10.272   6.963  71.442  1.00  0.00    -0.197 A  
HETATM    6  C   UNL     1     -11.035   9.162  70.265  1.00  0.00    -0.245 C  
HETATM    7  C   UNL     1      -9.240   6.722  66.821  1.00  0.00    -0.150 A  
HETATM    8  C   UNL     1     -11.161   6.222  68.023  1.00  0.00    -0.365 A  
HETATM    9  C   UNL     1      -9.485   5.819  71.454  1.00  0.00    -0.174 A  
HETATM   10  O   UNL     1     -10.899   9.924  71.215  1.00  0.00    -0.289 OA 
HETATM   11  C   UNL     1     -10.426   6.026  66.820  1.00  0.00    -0.329 A  
HETATM   12  C   UNL     1      -8.994   5.484  72.747  1.00  0.00    -0.121 A  
HETATM   13  S   UNL     1     -10.464   7.553  73.052  1.00  0.00    -0.370 SA 
HETATM   14  C   UNL     1      -9.436   6.363  73.706  1.00  0.00    -0.157 A  
HETATM   15  S   UNL     1      -8.991   7.567  68.284  1.00  0.00    -0.129 SA 
ENDROOT
BRANCH   6  16
HETATM   16  O   UNL     1     -11.301   9.655  69.011  1.00  0.00    -0.065 OA 
BRANCH  16  17
HETATM   17  C   UNL     1     -10.277  10.428  68.362  1.00  0.00    -0.165 C  
HETATM   18  N   UNL     1     -10.745  12.275  66.639  1.00  0.00    -0.239 N  
HETATM   19  C   UNL     1     -10.567  10.725  66.868  1.00  0.00    -0.258 C  
HETATM   20  C   UNL     1      -9.449  12.966  67.094  1.00  0.00    -0.229 C  
HETATM   21  C   UNL     1     -11.908  12.734  67.528  1.00  0.00    -0.343 C  
HETATM   22  C   UNL     1      -9.099  12.596  68.526  1.00  0.00    -0.052 C  
HETATM   23  C   UNL     1     -11.538  12.508  68.995  1.00  0.00    -0.365 C  
HETATM   24  C   UNL     1     -10.204  11.750  69.138  1.00  0.00     0.048 C  
BRANCH  18  25
HETATM   25  C   UNL     1     -11.064  12.474  65.128  1.00  0.00    -0.299 C  
BRANCH  25  26
HETATM   26  C   UNL     1     -10.598  13.780  64.463  1.00  0.00    -0.405 C  
BRANCH  26  27
HETATM   27  C   UNL     1     -11.441  14.996  64.819  1.00  0.00    -0.403 C  
BRANCH  27  28
HETATM   28  O   UNL     1     -10.666  16.184  64.907  1.00  0.00    -0.612 OA 
BRANCH  28  29
HETATM   29  C   UNL     1     -10.067  16.369  66.134  1.00  0.00    -0.346 A  
HETATM   30  C   UNL     1      -8.699  16.612  66.082  1.00  0.00    -0.322 A  
HETATM   31  C   UNL     1      -7.960  16.779  67.257  1.00  0.00    -0.197 A  
HETATM   32  C   UNL     1      -8.595  16.726  68.497  1.00  0.00    -0.245 A  
HETATM   33  C   UNL     1      -9.967  16.522  68.560  1.00  0.00    -0.251 A  
HETATM   34  C   UNL     1     -10.702  16.349  67.384  1.00  0.00    -0.278 A  
ENDBRANCH  28  29
ENDBRANCH  27  28
ENDBRANCH  26  27
ENDBRANCH  25  26
ENDBRANCH  18  25
ENDBRANCH  16  17
ENDBRANCH   6  16
TORSDOF 7
ENDMDL
MODEL       63
REMARK 921   NORMALIZED FREE ENERGY PREDICTED BY IDOCK:   -5.35 KCAL/MOL
REMARK 922        TOTAL FREE ENERGY PREDICTED BY IDOCK:   -9.18 KCAL/MOL
REMARK 923 INTER-LIGAND FREE ENERGY PREDICTED BY IDOCK:   -7.62 KCAL/MOL
REMARK 924 INTRA-LIGAND FREE ENERGY PREDICTED BY IDOCK:   -1.56 KCAL/MOL
REMARK 927      BINDING AFFINITY PREDICTED BY RF-SCORE:    0.00 PKD
ROOT
HETATM    1  O   UNL     1     -11.454   6.349  70.913  1.00  0.00    -0.321 OA 
HETATM    2  C   UNL     1     -10.045   6.619  70.849  1.00  0.00    -0.187 C  
HETATM    3  H   UNL     1     -11.569   5.415  71.045  1.00  0.00     0.000 HD 
HETATM    4  C   UNL     1      -9.523   5.866  69.620  1.00  0.00    -0.143 A  
HETATM    5  C   UNL     1      -9.464   6.089  72.158  1.00  0.00    -0.148 A  
HETATM    6  C   UNL     1      -9.855   8.166  70.630  1.00  0.00    -0.181 C  
HETATM    7  C   UNL     1      -8.144   5.058  67.723  1.00  0.00    -0.098 A  
HETATM    8  C   UNL     1     -10.194   4.965  68.806  1.00  0.00    -0.119 A  
HETATM    9  C   UNL     1      -8.832   4.875  72.395  1.00  0.00    -0.130 A  
HETATM   10  O   UNL     1      -9.690   9.037  71.476  1.00  0.00    -0.293 OA 
HETATM   11  C   UNL     1      -9.406   4.512  67.711  1.00  0.00    -0.180 A  
HETATM   12  C   UNL     1      -8.481   4.677  73.761  1.00  0.00    -0.104 A  
HETATM   13  S   UNL     1      -9.693   6.926  73.650  1.00  0.00    -0.266 SA 
HETATM   14  C   UNL     1      -8.875   5.732  74.548  1.00  0.00    -0.123 A  
HETATM   15  S   UNL     1      -7.894   6.073  69.074  1.00  0.00    -0.097 SA 
ENDROOT
BRANCH   6  16
HETATM   16  O   UNL     1      -9.965   8.498  69.302  1.00  0.00    -0.185 OA 
BRANCH  16  17
HETATM   17  C   UNL     1      -9.181   9.602  68.818  1.00  0.00    -0.141 C  
HETATM   18  N   UNL     1      -9.304  10.510  66.418  1.00  0.00    -0.165 N  
HETATM   19  C   UNL     1      -8.671   9.419  67.365  1.00  0.00    -0.125 C  
HETATM   20  C   UNL     1      -8.911  11.891  66.968  1.00  0.00    -0.190 C  
HETATM   21  C   UNL     1     -10.828  10.345  66.492  1.00  0.00    -0.028 C  
HETATM   22  C   UNL     1      -9.313  12.039  68.426  1.00  0.00    -0.175 C  
HETATM   23  C   UNL     1     -11.294  10.626  67.923  1.00  0.00    -0.342 C  
HETATM   24  C   UNL     1     -10.105  10.825  68.882  1.00  0.00    -0.217 C  
BRANCH  18  25
HETATM   25  C   UNL     1      -8.766  10.230  64.984  1.00  0.00    -0.182 C  
BRANCH  25  26
HETATM   26  C   UNL     1      -9.744  10.384  63.808  1.00  0.00    -0.351 C  
BRANCH  26  27
HETATM   27  C   UNL     1      -9.798  11.788  63.222  1.00  0.00    -0.377 C  
BRANCH  27  28
HETATM   28  O   UNL     1     -11.080  12.383  63.360  1.00  0.00    -0.455 OA 
BRANCH  28  29
HETATM   29  C   UNL     1     -11.180  13.250  64.427  1.00  0.00    -0.381 A  
HETATM   30  C   UNL     1     -12.270  13.023  65.260  1.00  0.00    -0.513 A  
HETATM   31  C   UNL     1     -12.512  13.855  66.357  1.00  0.00    -0.414 A  
HETATM   32  C   UNL     1     -11.646  14.910  66.641  1.00  0.00    -0.265 A  
HETATM   33  C   UNL     1     -10.534  15.124  65.838  1.00  0.00    -0.350 A  
HETATM   34  C   UNL     1     -10.297  14.295  64.738  1.00  0.00    -0.373 A  
ENDBRANCH  28  29
ENDBRANCH  27  28
ENDBRANCH  26  27
ENDBRANCH  25  26
ENDBRANCH  18  25
ENDBRANCH  16  17
ENDBRANCH   6  16
TORSDOF 7
ENDMDL
MODEL       64
REMARK 921   NORMALIZED FREE ENERGY PREDICTED BY IDOCK:   -5.35 KCAL/MOL
REMARK 922        TOTAL FREE ENERGY PREDICTED BY IDOCK:   -9.18 KCAL/MOL
REMARK 923 INTER-LIGAND FREE ENERGY PREDICTED BY IDOCK:   -8.14 KCAL/MOL
REMARK 924 INTRA-LIGAND FREE ENERGY PREDICTED BY IDOCK:   -1.05 KCAL/MOL
REMARK 927      BINDING AFFINITY PREDICTED BY RF-SCORE:    0.00 PKD
ROOT
HETATM    1  O   UNL     1     -11.141   7.680  67.099  1.00  0.00    -0.518 OA 
HETATM    2  C   UNL     1     -10.074   8.089  67.969  1.00  0.00    -0.194 C  
HETATM    3  H   UNL     1     -10.863   6.895  66.641  1.00  0.00     0.000 HD 
HETATM    4  C   UNL     1      -8.888   8.427  67.059  1.00  0.00    -0.134 A  
HETATM    5  C   UNL     1      -9.801   6.891  68.877  1.00  0.00    -0.147 A  
HETATM    6  C   UNL     1     -10.535   9.390  68.727  1.00  0.00    -0.212 C  
HETATM    7  C   UNL     1      -6.742   9.277  66.151  1.00  0.00    -0.074 A  
HETATM    8  C   UNL     1      -8.764   8.235  65.691  1.00  0.00    -0.188 A  
HETATM    9  C   UNL     1      -8.814   5.921  68.754  1.00  0.00    -0.111 A  
HETATM   10  O   UNL     1     -11.076   9.477  69.823  1.00  0.00    -0.234 OA 
HETATM   11  C   UNL     1      -7.537   8.734  65.169  1.00  0.00    -0.096 A  
HETATM   12  C   UNL     1      -8.899   4.901  69.743  1.00  0.00    -0.129 A  
HETATM   13  S   UNL     1     -10.871   6.473  70.163  1.00  0.00    -0.312 SA 
HETATM   14  C   UNL     1      -9.964   5.095  70.589  1.00  0.00    -0.226 A  
HETATM   15  S   UNL     1      -7.448   9.141  67.699  1.00  0.00    -0.084 SA 
ENDROOT
BRANCH   6  16
HETATM   16  O   UNL     1     -10.324  10.511  67.963  1.00  0.00    -0.165 OA 
BRANCH  16  17
HETATM   17  C   UNL     1     -10.587  11.791  68.563  1.00  0.00    -0.217 C  
HETATM   18  N   UNL     1      -9.560  14.000  67.746  1.00  0.00    -0.211 N  
HETATM   19  C   UNL     1      -9.345  12.717  68.636  1.00  0.00     0.023 C  
HETATM   20  C   UNL     1     -10.814  14.723  68.264  1.00  0.00    -0.249 C  
HETATM   21  C   UNL     1      -9.805  13.519  66.309  1.00  0.00    -0.299 C  
HETATM   22  C   UNL     1     -12.015  13.792  68.296  1.00  0.00    -0.392 C  
HETATM   23  C   UNL     1     -11.090  12.689  66.270  1.00  0.00    -0.330 C  
HETATM   24  C   UNL     1     -11.658  12.449  67.682  1.00  0.00    -0.421 C  
BRANCH  18  25
HETATM   25  C   UNL     1      -8.258  14.848  67.853  1.00  0.00    -0.144 C  
BRANCH  25  26
HETATM   26  C   UNL     1      -7.964  15.855  66.729  1.00  0.00    -0.287 C  
BRANCH  26  27
HETATM   27  C   UNL     1      -6.691  16.664  66.934  1.00  0.00    -0.212 C  
BRANCH  27  28
HETATM   28  O   UNL     1      -6.836  17.653  67.943  1.00  0.00    -0.183 OA 
BRANCH  28  29
HETATM   29  C   UNL     1      -7.892  18.513  67.732  1.00  0.00    -0.245 A  
HETATM   30  C   UNL     1      -8.779  18.616  68.798  1.00  0.00    -0.290 A  
HETATM   31  C   UNL     1      -9.916  19.425  68.702  1.00  0.00    -0.527 A  
HETATM   32  C   UNL     1     -10.160  20.155  67.541  1.00  0.00    -0.549 A  
HETATM   33  C   UNL     1      -9.262  20.089  66.484  1.00  0.00    -0.471 A  
HETATM   34  C   UNL     1      -8.129  19.276  66.579  1.00  0.00    -0.310 A  
ENDBRANCH  28  29
ENDBRANCH  27  28
ENDBRANCH  26  27
ENDBRANCH  25  26
ENDBRANCH  18  25
ENDBRANCH  16  17
ENDBRANCH   6  16
TORSDOF 7
ENDMDL
MODEL       65
REMARK 921   NORMALIZED FREE ENERGY PREDICTED BY IDOCK:   -5.31 KCAL/MOL
REMARK 922        TOTAL FREE ENERGY PREDICTED BY IDOCK:   -9.13 KCAL/MOL
REMARK 923 INTER-LIGAND FREE ENERGY PREDICTED BY IDOCK:   -8.44 KCAL/MOL
REMARK 924 INTRA-LIGAND FREE ENERGY PREDICTED BY IDOCK:   -0.69 KCAL/MOL
REMARK 927      BINDING AFFINITY PREDICTED BY RF-SCORE:    0.00 PKD
ROOT
HETATM    1  O   UNL     1      -9.572  14.455  69.545  1.00  0.00    -0.395 OA 
HETATM    2  C   UNL     1     -10.975  14.408  69.246  1.00  0.00    -0.255 C  
HETATM    3  H   UNL     1      -9.406  13.866  70.273  1.00  0.00     0.000 HD 
HETATM    4  C   UNL     1     -11.695  14.930  70.494  1.00  0.00    -0.292 A  
HETATM    5  C   UNL     1     -11.286  12.941  68.954  1.00  0.00    -0.279 A  
HETATM    6  C   UNL     1     -11.249  15.384  68.041  1.00  0.00    -0.325 C  
HETATM    7  C   UNL     1     -13.379  15.828  72.079  1.00  0.00    -0.384 A  
HETATM    8  C   UNL     1     -11.161  15.238  71.737  1.00  0.00    -0.364 A  
HETATM    9  C   UNL     1     -11.826  11.986  69.806  1.00  0.00    -0.401 A  
HETATM   10  O   UNL     1     -11.278  15.122  66.844  1.00  0.00    -0.330 OA 
HETATM   11  C   UNL     1     -12.126  15.764  72.641  1.00  0.00    -0.591 A  
HETATM   12  C   UNL     1     -11.910  10.691  69.221  1.00  0.00    -0.309 A  
HETATM   13  S   UNL     1     -10.807  12.196  67.474  1.00  0.00    -0.255 SA 
HETATM   14  C   UNL     1     -11.408  10.672  67.943  1.00  0.00    -0.268 A  
HETATM   15  S   UNL     1     -13.402  15.211  70.487  1.00  0.00    -0.048 SA 
ENDROOT
BRANCH   6  16
HETATM   16  O   UNL     1     -11.398  16.679  68.474  1.00  0.00    -0.317 OA 
BRANCH  16  17
HETATM   17  C   UNL     1     -10.209  17.419  68.798  1.00  0.00    -0.361 C  
HETATM   18  N   UNL     1      -8.105  17.478  67.326  1.00  0.00    -0.200 N  
HETATM   19  C   UNL     1      -8.893  16.684  68.437  1.00  0.00    -0.226 C  
HETATM   20  C   UNL     1      -7.813  18.884  67.875  1.00  0.00    -0.263 C  
HETATM   21  C   UNL     1      -9.028  17.588  66.105  1.00  0.00    -0.124 C  
HETATM   22  C   UNL     1      -9.089  19.574  68.332  1.00  0.00    -0.410 C  
HETATM   23  C   UNL     1     -10.268  18.400  66.485  1.00  0.00    -0.423 C  
HETATM   24  C   UNL     1     -10.300  18.722  67.992  1.00  0.00    -0.442 C  
BRANCH  18  25
HETATM   25  C   UNL     1      -6.823  16.653  67.004  1.00  0.00    -0.209 C  
BRANCH  25  26
HETATM   26  C   UNL     1      -6.275  15.723  68.099  1.00  0.00    -0.132 C  
BRANCH  26  27
HETATM   27  C   UNL     1      -6.328  14.244  67.744  1.00  0.00    -0.154 C  
BRANCH  27  28
HETATM   28  O   UNL     1      -6.932  13.464  68.767  1.00  0.00    -0.096 OA 
BRANCH  28  29
HETATM   29  C   UNL     1      -7.213  12.169  68.388  1.00  0.00    -0.097 A  
HETATM   30  C   UNL     1      -7.087  11.922  67.026  1.00  0.00    -0.116 A  
HETATM   31  C   UNL     1      -7.380  10.659  66.502  1.00  0.00    -0.134 A  
HETATM   32  C   UNL     1      -7.781   9.626  67.347  1.00  0.00    -0.095 A  
HETATM   33  C   UNL     1      -7.874   9.850  68.714  1.00  0.00    -0.091 A  
HETATM   34  C   UNL     1      -7.586  11.115  69.235  1.00  0.00    -0.057 A  
ENDBRANCH  28  29
ENDBRANCH  27  28
ENDBRANCH  26  27
ENDBRANCH  25  26
ENDBRANCH  18  25
ENDBRANCH  16  17
ENDBRANCH   6  16
TORSDOF 7
ENDMDL
MODEL       66
REMARK 921   NORMALIZED FREE ENERGY PREDICTED BY IDOCK:   -5.31 KCAL/MOL
REMARK 922        TOTAL FREE ENERGY PREDICTED BY IDOCK:   -9.13 KCAL/MOL
REMARK 923 INTER-LIGAND FREE ENERGY PREDICTED BY IDOCK:   -7.80 KCAL/MOL
REMARK 924 INTRA-LIGAND FREE ENERGY PREDICTED BY IDOCK:   -1.33 KCAL/MOL
REMARK 927      BINDING AFFINITY PREDICTED BY RF-SCORE:    0.00 PKD
ROOT
HETATM    1  O   UNL     1     -10.040   8.417  66.042  1.00  0.00    -0.470 OA 
HETATM    2  C   UNL     1      -8.723   8.947  66.249  1.00  0.00    -0.141 C  
HETATM    3  H   UNL     1      -9.963   7.638  65.503  1.00  0.00     0.000 HD 
HETATM    4  C   UNL     1      -8.200   9.342  64.863  1.00  0.00    -0.142 A  
HETATM    5  C   UNL     1      -7.917   7.816  66.884  1.00  0.00    -0.112 A  
HETATM    6  C   UNL     1      -8.851  10.237  67.143  1.00  0.00    -0.136 C  
HETATM    7  C   UNL     1      -6.901  10.325  62.992  1.00  0.00    -0.125 A  
HETATM    8  C   UNL     1      -8.771   9.104  63.622  1.00  0.00    -0.148 A  
HETATM    9  C   UNL     1      -7.046   6.925  66.271  1.00  0.00    -0.074 A  
HETATM   10  O   UNL     1      -8.766  10.327  68.362  1.00  0.00    -0.122 OA 
HETATM   11  C   UNL     1      -8.031   9.679  62.550  1.00  0.00    -0.126 A  
HETATM   12  C   UNL     1      -6.522   5.944  67.160  1.00  0.00    -0.047 A  
HETATM   13  S   UNL     1      -8.142   7.367  68.535  1.00  0.00    -0.126 SA 
HETATM   14  C   UNL     1      -7.023   6.086  68.432  1.00  0.00    -0.076 A  
HETATM   15  S   UNL     1      -6.706  10.198  64.684  1.00  0.00    -0.092 SA 
ENDROOT
BRANCH   6  16
HETATM   16  O   UNL     1      -9.162  11.339  66.384  1.00  0.00    -0.180 OA 
BRANCH  16  17
HETATM   17  C   UNL     1     -10.551  11.670  66.217  1.00  0.00    -0.258 C  
HETATM   18  N   UNL     1     -11.667  13.748  67.235  1.00  0.00    -0.360 N  
HETATM   19  C   UNL     1     -11.213  12.259  67.490  1.00  0.00    -0.297 C  
HETATM   20  C   UNL     1     -12.654  13.741  66.057  1.00  0.00    -0.408 C  
HETATM   21  C   UNL     1     -10.414  14.544  66.847  1.00  0.00    -0.269 C  
HETATM   22  C   UNL     1     -12.050  13.068  64.835  1.00  0.00    -0.459 C  
HETATM   23  C   UNL     1      -9.850  13.986  65.538  1.00  0.00    -0.229 C  
HETATM   24  C   UNL     1     -10.595  12.713  65.092  1.00  0.00    -0.324 C  
BRANCH  18  25
HETATM   25  C   UNL     1     -12.285  14.265  68.567  1.00  0.00    -0.159 C  
BRANCH  25  26
HETATM   26  C   UNL     1     -11.506  14.007  69.868  1.00  0.00    -0.272 C  
BRANCH  26  27
HETATM   27  C   UNL     1     -12.290  13.237  70.922  1.00  0.00    -0.329 C  
BRANCH  27  28
HETATM   28  O   UNL     1     -12.996  12.134  70.372  1.00  0.00     0.155 OA 
BRANCH  28  29
HETATM   29  C   UNL     1     -12.674  10.924  70.946  1.00  0.00    -0.370 A  
HETATM   30  C   UNL     1     -11.429  10.422  70.584  1.00  0.00    -0.438 A  
HETATM   31  C   UNL     1     -10.995   9.183  71.065  1.00  0.00    -0.375 A  
HETATM   32  C   UNL     1     -11.799   8.447  71.932  1.00  0.00    -0.398 A  
HETATM   33  C   UNL     1     -13.029   8.954  72.330  1.00  0.00    -0.467 A  
HETATM   34  C   UNL     1     -13.464  10.190  71.844  1.00  0.00    -0.426 A  
ENDBRANCH  28  29
ENDBRANCH  27  28
ENDBRANCH  26  27
ENDBRANCH  25  26
ENDBRANCH  18  25
ENDBRANCH  16  17
ENDBRANCH   6  16
TORSDOF 7
ENDMDL
MODEL       67
REMARK 921   NORMALIZED FREE ENERGY PREDICTED BY IDOCK:   -5.29 KCAL/MOL
REMARK 922        TOTAL FREE ENERGY PREDICTED BY IDOCK:   -9.11 KCAL/MOL
REMARK 923 INTER-LIGAND FREE ENERGY PREDICTED BY IDOCK:   -7.54 KCAL/MOL
REMARK 924 INTRA-LIGAND FREE ENERGY PREDICTED BY IDOCK:   -1.57 KCAL/MOL
REMARK 927      BINDING AFFINITY PREDICTED BY RF-SCORE:    0.00 PKD
ROOT
HETATM    1  O   UNL     1      -8.665  13.973  66.308  1.00  0.00    -0.438 OA 
HETATM    2  C   UNL     1     -10.066  14.206  66.514  1.00  0.00    -0.280 C  
HETATM    3  H   UNL     1      -8.430  14.322  65.455  1.00  0.00     0.000 HD 
HETATM    4  C   UNL     1     -10.795  13.411  65.424  1.00  0.00    -0.294 A  
HETATM    5  C   UNL     1     -10.259  15.714  66.374  1.00  0.00    -0.290 A  
HETATM    6  C   UNL     1     -10.455  13.627  67.926  1.00  0.00    -0.247 C  
HETATM    7  C   UNL     1     -12.507  12.236  64.067  1.00  0.00    -0.458 A  
HETATM    8  C   UNL     1     -10.257  12.731  64.342  1.00  0.00    -0.344 A  
HETATM    9  C   UNL     1     -10.694  16.432  65.267  1.00  0.00    -0.312 A  
HETATM   10  O   UNL     1     -10.493  14.213  69.001  1.00  0.00    -0.237 OA 
HETATM   11  C   UNL     1     -11.239  12.047  63.571  1.00  0.00    -0.526 A  
HETATM   12  C   UNL     1     -10.682  17.841  65.467  1.00  0.00    -0.009 A  
HETATM   13  S   UNL     1      -9.758  16.805  67.614  1.00  0.00    -0.256 SA 
HETATM   14  C   UNL     1     -10.214  18.178  66.714  1.00  0.00    -0.372 A  
HETATM   15  S   UNL     1     -12.520  13.272  65.424  1.00  0.00    -0.469 SA 
ENDROOT
BRANCH   6  16
HETATM   16  O   UNL     1     -10.702  12.278  67.859  1.00  0.00    -0.205 OA 
BRANCH  16  17
HETATM   17  C   UNL     1      -9.810  11.396  68.562  1.00  0.00    -0.198 C  
HETATM   18  N   UNL     1     -10.264   8.896  68.944  1.00  0.00    -0.202 N  
HETATM   19  C   UNL     1     -10.532  10.361  69.464  1.00  0.00    -0.247 C  
HETATM   20  C   UNL     1      -8.743   8.667  68.956  1.00  0.00    -0.134 C  
HETATM   21  C   UNL     1     -10.780   8.825  67.501  1.00  0.00    -0.143 C  
HETATM   22  C   UNL     1      -8.017   9.741  68.162  1.00  0.00    -0.100 C  
HETATM   23  C   UNL     1      -9.976   9.795  66.632  1.00  0.00    -0.292 C  
HETATM   24  C   UNL     1      -9.017  10.657  67.476  1.00  0.00    -0.136 C  
BRANCH  18  25
HETATM   25  C   UNL     1     -11.049   7.934  69.883  1.00  0.00    -0.120 C  
BRANCH  25  26
HETATM   26  C   UNL     1     -11.088   6.442  69.510  1.00  0.00    -0.460 C  
BRANCH  26  27
HETATM   27  C   UNL     1     -10.599   5.512  70.612  1.00  0.00    -0.259 C  
BRANCH  27  28
HETATM   28  O   UNL     1      -9.293   5.845  71.061  1.00  0.00    -0.158 OA 
BRANCH  28  29
HETATM   29  C   UNL     1      -8.304   5.032  70.551  1.00  0.00    -0.101 A  
HETATM   30  C   UNL     1      -7.066   5.647  70.403  1.00  0.00    -0.066 A  
HETATM   31  C   UNL     1      -5.984   4.947  69.860  1.00  0.00    -0.021 A  
HETATM   32  C   UNL     1      -6.132   3.614  69.481  1.00  0.00    -0.024 A  
HETATM   33  C   UNL     1      -7.353   2.978  69.658  1.00  0.00    -0.044 A  
HETATM   34  C   UNL     1      -8.435   3.682  70.196  1.00  0.00    -0.095 A  
ENDBRANCH  28  29
ENDBRANCH  27  28
ENDBRANCH  26  27
ENDBRANCH  25  26
ENDBRANCH  18  25
ENDBRANCH  16  17
ENDBRANCH   6  16
TORSDOF 7
ENDMDL
MODEL       68
REMARK 921   NORMALIZED FREE ENERGY PREDICTED BY IDOCK:   -5.28 KCAL/MOL
REMARK 922        TOTAL FREE ENERGY PREDICTED BY IDOCK:   -9.09 KCAL/MOL
REMARK 923 INTER-LIGAND FREE ENERGY PREDICTED BY IDOCK:   -7.24 KCAL/MOL
REMARK 924 INTRA-LIGAND FREE ENERGY PREDICTED BY IDOCK:   -1.85 KCAL/MOL
REMARK 927      BINDING AFFINITY PREDICTED BY RF-SCORE:    0.00 PKD
ROOT
HETATM    1  O   UNL     1     -12.285  11.182  67.812  1.00  0.00    -0.504 OA 
HETATM    2  C   UNL     1     -10.876  10.927  67.917  1.00  0.00    -0.247 C  
HETATM    3  H   UNL     1     -12.516  11.831  68.466  1.00  0.00     0.000 HD 
HETATM    4  C   UNL     1     -10.652  10.338  69.314  1.00  0.00    -0.230 A  
HETATM    5  C   UNL     1     -10.196  12.282  67.730  1.00  0.00    -0.202 A  
HETATM    6  C   UNL     1     -10.493   9.851  66.832  1.00  0.00    -0.215 C  
HETATM    7  C   UNL     1      -9.695   9.205  71.303  1.00  0.00    -0.281 A  
HETATM    8  C   UNL     1     -11.558  10.213  70.357  1.00  0.00    -0.396 A  
HETATM    9  C   UNL     1      -9.722  13.152  68.704  1.00  0.00    -0.062 A  
HETATM   10  O   UNL     1     -10.082  10.036  65.693  1.00  0.00    -0.282 OA 
HETATM   11  C   UNL     1     -11.012   9.553  71.492  1.00  0.00    -0.369 A  
HETATM   12  C   UNL     1      -9.211  14.370  68.172  1.00  0.00    -0.199 A  
HETATM   13  S   UNL     1     -10.083  13.027  66.179  1.00  0.00    -0.288 SA 
HETATM   14  C   UNL     1      -9.327  14.420  66.804  1.00  0.00    -0.268 A  
HETATM   15  S   UNL     1      -9.107   9.717  69.783  1.00  0.00    -0.228 SA 
ENDROOT
BRANCH   6  16
HETATM   16  O   UNL     1     -10.744   8.579  67.284  1.00  0.00    -0.279 OA 
BRANCH  16  17
HETATM   17  C   UNL     1     -10.004   7.498  66.691  1.00  0.00    -0.200 C  
HETATM   18  N   UNL     1      -8.504   5.886  68.015  1.00  0.00    -0.111 N  
HETATM   19  C   UNL     1      -8.595   7.291  67.305  1.00  0.00    -0.121 C  
HETATM   20  C   UNL     1      -8.806   4.809  66.961  1.00  0.00    -0.107 C  
HETATM   21  C   UNL     1      -9.589   5.856  69.101  1.00  0.00    -0.136 C  
HETATM   22  C   UNL     1     -10.139   5.064  66.276  1.00  0.00    -0.275 C  
HETATM   23  C   UNL     1     -10.964   5.969  68.439  1.00  0.00    -0.340 C  
HETATM   24  C   UNL     1     -10.850   6.239  66.927  1.00  0.00    -0.428 C  
BRANCH  18  25
HETATM   25  C   UNL     1      -7.076   5.781  68.628  1.00  0.00    -0.077 C  
BRANCH  25  26
HETATM   26  C   UNL     1      -6.799   6.541  69.935  1.00  0.00    -0.055 C  
BRANCH  26  27
HETATM   27  C   UNL     1      -6.279   5.666  71.067  1.00  0.00    -0.034 C  
BRANCH  27  28
HETATM   28  O   UNL     1      -7.295   4.847  71.628  1.00  0.00    -0.069 OA 
BRANCH  28  29
HETATM   29  C   UNL     1      -8.128   5.513  72.502  1.00  0.00    -0.103 A  
HETATM   30  C   UNL     1      -9.465   5.138  72.429  1.00  0.00    -0.166 A  
HETATM   31  C   UNL     1     -10.423   5.762  73.233  1.00  0.00    -0.255 A  
HETATM   32  C   UNL     1     -10.043   6.755  74.134  1.00  0.00    -0.381 A  
HETATM   33  C   UNL     1      -8.706   7.112  74.242  1.00  0.00    -0.242 A  
HETATM   34  C   UNL     1      -7.750   6.490  73.434  1.00  0.00    -0.092 A  
ENDBRANCH  28  29
ENDBRANCH  27  28
ENDBRANCH  26  27
ENDBRANCH  25  26
ENDBRANCH  18  25
ENDBRANCH  16  17
ENDBRANCH   6  16
TORSDOF 7
ENDMDL
MODEL       69
REMARK 921   NORMALIZED FREE ENERGY PREDICTED BY IDOCK:   -5.27 KCAL/MOL
REMARK 922        TOTAL FREE ENERGY PREDICTED BY IDOCK:   -9.08 KCAL/MOL
REMARK 923 INTER-LIGAND FREE ENERGY PREDICTED BY IDOCK:   -7.74 KCAL/MOL
REMARK 924 INTRA-LIGAND FREE ENERGY PREDICTED BY IDOCK:   -1.34 KCAL/MOL
REMARK 927      BINDING AFFINITY PREDICTED BY RF-SCORE:    0.00 PKD
ROOT
HETATM    1  O   UNL     1     -10.578  16.460  68.282  1.00  0.00    -0.287 OA 
HETATM    2  C   UNL     1      -9.487  16.672  67.373  1.00  0.00    -0.232 C  
HETATM    3  H   UNL     1     -10.402  16.954  69.074  1.00  0.00     0.000 HD 
HETATM    4  C   UNL     1      -8.243  16.097  68.060  1.00  0.00    -0.151 A  
HETATM    5  C   UNL     1      -9.406  18.183  67.171  1.00  0.00    -0.263 A  
HETATM    6  C   UNL     1      -9.780  15.853  66.060  1.00  0.00    -0.343 C  
HETATM    7  C   UNL     1      -5.977  15.210  68.542  1.00  0.00    -0.097 A  
HETATM    8  C   UNL     1      -8.113  15.615  69.354  1.00  0.00    -0.227 A  
HETATM    9  C   UNL     1      -8.562  19.095  67.793  1.00  0.00    -0.335 A  
HETATM   10  O   UNL     1     -10.331  16.237  65.034  1.00  0.00    -0.593 OA 
HETATM   11  C   UNL     1      -6.816  15.096  69.626  1.00  0.00    -0.188 A  
HETATM   12  C   UNL     1      -8.813  20.445  67.417  1.00  0.00    -0.430 A  
HETATM   13  S   UNL     1     -10.556  19.025  66.198  1.00  0.00    -0.352 SA 
HETATM   14  C   UNL     1      -9.861  20.544  66.535  1.00  0.00    -0.203 A  
HETATM   15  S   UNL     1      -6.733  15.984  67.221  1.00  0.00    -0.172 SA 
ENDROOT
BRANCH   6  16
HETATM   16  O   UNL     1      -9.396  14.542  66.195  1.00  0.00    -0.277 OA 
BRANCH  16  17
HETATM   17  C   UNL     1     -10.428  13.544  66.267  1.00  0.00    -0.290 C  
HETATM   18  N   UNL     1      -9.990  11.013  66.195  1.00  0.00    -0.222 N  
HETATM   19  C   UNL     1     -10.188  12.324  65.341  1.00  0.00    -0.270 C  
HETATM   20  C   UNL     1     -11.255  10.814  67.046  1.00  0.00    -0.089 C  
HETATM   21  C   UNL     1      -8.787  11.251  67.118  1.00  0.00    -0.153 C  
HETATM   22  C   UNL     1     -11.560  12.048  67.879  1.00  0.00    -0.405 C  
HETATM   23  C   UNL     1      -9.107  12.401  68.074  1.00  0.00    -0.195 C  
HETATM   24  C   UNL     1     -10.449  13.075  67.728  1.00  0.00    -0.232 C  
BRANCH  18  25
HETATM   25  C   UNL     1      -9.722   9.855  65.190  1.00  0.00    -0.306 C  
BRANCH  25  26
HETATM   26  C   UNL     1      -8.755   8.740  65.622  1.00  0.00    -0.215 C  
BRANCH  26  27
HETATM   27  C   UNL     1      -9.348   7.749  66.613  1.00  0.00    -0.188 C  
BRANCH  27  28
HETATM   28  O   UNL     1      -8.617   7.697  67.830  1.00  0.00    -0.121 OA 
BRANCH  28  29
HETATM   29  C   UNL     1      -8.679   6.477  68.466  1.00  0.00    -0.122 A  
HETATM   30  C   UNL     1      -9.662   6.381  69.445  1.00  0.00    -0.160 A  
HETATM   31  C   UNL     1      -9.807   5.209  70.194  1.00  0.00    -0.300 A  
HETATM   32  C   UNL     1      -8.979   4.115  69.951  1.00  0.00    -0.159 A  
HETATM   33  C   UNL     1      -8.018   4.186  68.952  1.00  0.00    -0.071 A  
HETATM   34  C   UNL     1      -7.871   5.359  68.207  1.00  0.00    -0.088 A  
ENDBRANCH  28  29
ENDBRANCH  27  28
ENDBRANCH  26  27
ENDBRANCH  25  26
ENDBRANCH  18  25
ENDBRANCH  16  17
ENDBRANCH   6  16
TORSDOF 7
ENDMDL
MODEL       70
REMARK 921   NORMALIZED FREE ENERGY PREDICTED BY IDOCK:   -5.23 KCAL/MOL
REMARK 922        TOTAL FREE ENERGY PREDICTED BY IDOCK:   -9.02 KCAL/MOL
REMARK 923 INTER-LIGAND FREE ENERGY PREDICTED BY IDOCK:   -7.64 KCAL/MOL
REMARK 924 INTRA-LIGAND FREE ENERGY PREDICTED BY IDOCK:   -1.38 KCAL/MOL
REMARK 927      BINDING AFFINITY PREDICTED BY RF-SCORE:    0.00 PKD
ROOT
HETATM    1  O   UNL     1      -8.288  15.203  66.083  1.00  0.00    -0.327 OA 
HETATM    2  C   UNL     1      -9.459  15.265  66.912  1.00  0.00    -0.234 C  
HETATM    3  H   UNL     1      -8.438  15.750  65.321  1.00  0.00     0.000 HD 
HETATM    4  C   UNL     1     -10.602  14.672  66.080  1.00  0.00    -0.312 A  
HETATM    5  C   UNL     1      -9.663  16.745  67.228  1.00  0.00    -0.250 A  
HETATM    6  C   UNL     1      -9.211  14.358  68.175  1.00  0.00    -0.199 C  
HETATM    7  C   UNL     1     -12.755  13.685  65.342  1.00  0.00    -0.453 A  
HETATM    8  C   UNL     1     -10.597  14.296  64.746  1.00  0.00    -0.434 A  
HETATM    9  C   UNL     1     -10.519  17.650  66.612  1.00  0.00    -0.286 A  
HETATM   10  O   UNL     1      -8.770  14.687  69.270  1.00  0.00    -0.092 OA 
HETATM   11  C   UNL     1     -11.828  13.718  64.326  1.00  0.00    -0.451 A  
HETATM   12  C   UNL     1     -10.395  18.976  67.115  1.00  0.00    -0.496 A  
HETATM   13  S   UNL     1      -8.655  17.573  68.356  1.00  0.00    -0.278 SA 
HETATM   14  C   UNL     1      -9.428  19.068  68.086  1.00  0.00    -0.335 A  
HETATM   15  S   UNL     1     -12.160  14.390  66.779  1.00  0.00    -0.271 SA 
ENDROOT
BRANCH   6  16
HETATM   16  O   UNL     1      -9.489  13.041  67.904  1.00  0.00    -0.203 OA 
BRANCH  16  17
HETATM   17  C   UNL     1      -8.380  12.144  67.724  1.00  0.00    -0.159 C  
HETATM   18  N   UNL     1      -8.495   9.611  68.142  1.00  0.00    -0.118 N  
HETATM   19  C   UNL     1      -8.292  11.030  68.799  1.00  0.00    -0.144 C  
HETATM   20  C   UNL     1      -7.404   9.430  67.074  1.00  0.00    -0.087 C  
HETATM   21  C   UNL     1      -9.874   9.618  67.467  1.00  0.00    -0.169 C  
HETATM   22  C   UNL     1      -7.413  10.575  66.075  1.00  0.00    -0.137 C  
HETATM   23  C   UNL     1      -9.882  10.667  66.353  1.00  0.00    -0.259 C  
HETATM   24  C   UNL     1      -8.587  11.502  66.345  1.00  0.00    -0.159 C  
BRANCH  18  25
HETATM   25  C   UNL     1      -8.426   8.566  69.293  1.00  0.00    -0.128 C  
BRANCH  25  26
HETATM   26  C   UNL     1      -9.656   7.674  69.528  1.00  0.00    -0.163 C  
BRANCH  26  27
HETATM   27  C   UNL     1      -9.449   6.214  69.153  1.00  0.00    -0.132 C  
BRANCH  27  28
HETATM   28  O   UNL     1     -10.182   5.331  69.992  1.00  0.00    -0.243 OA 
BRANCH  28  29
HETATM   29  C   UNL     1      -9.800   5.373  71.315  1.00  0.00    -0.179 A  
HETATM   30  C   UNL     1     -10.811   5.727  72.201  1.00  0.00    -0.296 A  
HETATM   31  C   UNL     1     -10.549   5.846  73.569  1.00  0.00    -0.289 A  
HETATM   32  C   UNL     1      -9.272   5.587  74.063  1.00  0.00    -0.126 A  
HETATM   33  C   UNL     1      -8.263   5.197  73.193  1.00  0.00    -0.108 A  
HETATM   34  C   UNL     1      -8.525   5.085  71.825  1.00  0.00    -0.124 A  
ENDBRANCH  28  29
ENDBRANCH  27  28
ENDBRANCH  26  27
ENDBRANCH  25  26
ENDBRANCH  18  25
ENDBRANCH  16  17
ENDBRANCH   6  16
TORSDOF 7
ENDMDL
MODEL       71
REMARK 921   NORMALIZED FREE ENERGY PREDICTED BY IDOCK:   -5.23 KCAL/MOL
REMARK 922        TOTAL FREE ENERGY PREDICTED BY IDOCK:   -9.01 KCAL/MOL
REMARK 923 INTER-LIGAND FREE ENERGY PREDICTED BY IDOCK:   -7.77 KCAL/MOL
REMARK 924 INTRA-LIGAND FREE ENERGY PREDICTED BY IDOCK:   -1.25 KCAL/MOL
REMARK 927      BINDING AFFINITY PREDICTED BY RF-SCORE:    0.00 PKD
ROOT
HETATM    1  O   UNL     1      -7.573   5.696  67.749  1.00  0.00    -0.086 OA 
HETATM    2  C   UNL     1      -8.552   4.652  67.643  1.00  0.00    -0.103 C  
HETATM    3  H   UNL     1      -6.714   5.308  67.630  1.00  0.00     0.000 HD 
HETATM    4  C   UNL     1      -8.269   3.684  68.799  1.00  0.00    -0.072 A  
HETATM    5  C   UNL     1      -8.331   4.016  66.272  1.00  0.00    -0.105 A  
HETATM    6  C   UNL     1      -9.976   5.295  67.841  1.00  0.00    -0.160 C  
HETATM    7  C   UNL     1      -8.437   1.900  70.514  1.00  0.00    -0.050 A  
HETATM    8  C   UNL     1      -7.203   3.683  69.686  1.00  0.00    -0.042 A  
HETATM    9  C   UNL     1      -7.624   2.861  65.959  1.00  0.00    -0.077 A  
HETATM   10  O   UNL     1     -10.746   5.709  66.983  1.00  0.00    -0.271 OA 
HETATM   11  C   UNL     1      -7.306   2.667  70.677  1.00  0.00    -0.033 A  
HETATM   12  C   UNL     1      -7.558   2.602  64.561  1.00  0.00    -0.075 A  
HETATM   13  S   UNL     1      -8.823   4.808  64.821  1.00  0.00    -0.143 SA 
HETATM   14  C   UNL     1      -8.191   3.576  63.828  1.00  0.00    -0.090 A  
HETATM   15  S   UNL     1      -9.342   2.372  69.146  1.00  0.00    -0.083 SA 
ENDROOT
BRANCH   6  16
HETATM   16  O   UNL     1     -10.281   5.428  69.173  1.00  0.00    -0.202 OA 
BRANCH  16  17
HETATM   17  C   UNL     1     -10.081   6.715  69.782  1.00  0.00    -0.182 C  
HETATM   18  N   UNL     1     -11.471   7.606  71.751  1.00  0.00    -0.256 N  
HETATM   19  C   UNL     1     -11.397   7.430  70.186  1.00  0.00    -0.177 C  
HETATM   20  C   UNL     1     -10.246   8.426  72.188  1.00  0.00    -0.320 C  
HETATM   21  C   UNL     1     -11.393   6.203  72.369  1.00  0.00    -0.296 C  
HETATM   22  C   UNL     1      -8.954   7.788  71.704  1.00  0.00    -0.157 C  
HETATM   23  C   UNL     1     -10.041   5.576  72.022  1.00  0.00    -0.233 C  
HETATM   24  C   UNL     1      -9.241   6.452  71.039  1.00  0.00    -0.157 C  
BRANCH  18  25
HETATM   25  C   UNL     1     -12.831   8.296  72.064  1.00  0.00    -0.340 C  
BRANCH  25  26
HETATM   26  C   UNL     1     -13.248   9.490  71.190  1.00  0.00    -0.332 C  
BRANCH  26  27
HETATM   27  C   UNL     1     -12.947  10.849  71.806  1.00  0.00    -0.451 C  
BRANCH  27  28
HETATM   28  O   UNL     1     -12.491  11.790  70.844  1.00  0.00    -0.372 OA 
BRANCH  28  29
HETATM   29  C   UNL     1     -12.803  13.096  71.151  1.00  0.00    -0.264 A  
HETATM   30  C   UNL     1     -12.269  14.041  70.281  1.00  0.00    -0.430 A  
HETATM   31  C   UNL     1     -12.476  15.406  70.500  1.00  0.00    -0.468 A  
HETATM   32  C   UNL     1     -13.242  15.834  71.583  1.00  0.00    -0.462 A  
HETATM   33  C   UNL     1     -13.810  14.900  72.437  1.00  0.00    -0.587 A  
HETATM   34  C   UNL     1     -13.598  13.535  72.221  1.00  0.00    -0.690 A  
ENDBRANCH  28  29
ENDBRANCH  27  28
ENDBRANCH  26  27
ENDBRANCH  25  26
ENDBRANCH  18  25
ENDBRANCH  16  17
ENDBRANCH   6  16
TORSDOF 7
ENDMDL
MODEL       72
REMARK 921   NORMALIZED FREE ENERGY PREDICTED BY IDOCK:   -5.20 KCAL/MOL
REMARK 922        TOTAL FREE ENERGY PREDICTED BY IDOCK:   -8.98 KCAL/MOL
REMARK 923 INTER-LIGAND FREE ENERGY PREDICTED BY IDOCK:   -7.41 KCAL/MOL
REMARK 924 INTRA-LIGAND FREE ENERGY PREDICTED BY IDOCK:   -1.56 KCAL/MOL
REMARK 927      BINDING AFFINITY PREDICTED BY RF-SCORE:    0.00 PKD
ROOT
HETATM    1  O   UNL     1      -6.882   7.007  66.227  1.00  0.00    -0.058 OA 
HETATM    2  C   UNL     1      -8.259   6.941  65.823  1.00  0.00    -0.132 C  
HETATM    3  H   UNL     1      -6.616   6.139  66.507  1.00  0.00     0.000 HD 
HETATM    4  C   UNL     1      -9.052   6.548  67.074  1.00  0.00    -0.128 A  
HETATM    5  C   UNL     1      -8.317   5.878  64.728  1.00  0.00    -0.103 A  
HETATM    6  C   UNL     1      -8.700   8.380  65.359  1.00  0.00    -0.141 C  
HETATM    7  C   UNL     1     -10.858   6.130  68.723  1.00  0.00    -0.336 A  
HETATM    8  C   UNL     1      -8.573   6.163  68.317  1.00  0.00    -0.116 A  
HETATM    9  C   UNL     1      -8.684   4.543  64.838  1.00  0.00    -0.140 A  
HETATM   10  O   UNL     1      -8.689   8.848  64.226  1.00  0.00    -0.165 OA 
HETATM   11  C   UNL     1      -9.609   5.934  69.266  1.00  0.00    -0.172 A  
HETATM   12  C   UNL     1      -8.549   3.818  63.620  1.00  0.00    -0.093 A  
HETATM   13  S   UNL     1      -7.725   6.190  63.137  1.00  0.00    -0.100 SA 
HETATM   14  C   UNL     1      -8.056   4.605  62.607  1.00  0.00    -0.075 A  
HETATM   15  S   UNL     1     -10.782   6.537  67.066  1.00  0.00    -0.373 SA 
ENDROOT
BRANCH   6  16
HETATM   16  O   UNL     1      -9.065   9.158  66.430  1.00  0.00    -0.151 OA 
BRANCH  16  17
HETATM   17  C   UNL     1     -10.134  10.101  66.242  1.00  0.00    -0.238 C  
HETATM   18  N   UNL     1     -10.870  11.812  68.011  1.00  0.00    -0.203 N  
HETATM   19  C   UNL     1     -11.003  10.324  67.506  1.00  0.00    -0.280 C  
HETATM   20  C   UNL     1     -11.319  12.736  66.867  1.00  0.00    -0.321 C  
HETATM   21  C   UNL     1      -9.385  12.058  68.312  1.00  0.00    -0.197 C  
HETATM   22  C   UNL     1     -10.544  12.451  65.590  1.00  0.00    -0.297 C  
HETATM   23  C   UNL     1      -8.581  11.918  67.018  1.00  0.00    -0.176 C  
HETATM   24  C   UNL     1      -9.457  11.422  65.851  1.00  0.00    -0.251 C  
BRANCH  18  25
HETATM   25  C   UNL     1     -11.743  11.934  69.294  1.00  0.00    -0.328 C  
BRANCH  25  26
HETATM   26  C   UNL     1     -12.311  10.641  69.901  1.00  0.00    -0.304 C  
BRANCH  26  27
HETATM   27  C   UNL     1     -11.486  10.076  71.049  1.00  0.00    -0.383 C  
BRANCH  27  28
HETATM   28  O   UNL     1     -12.271   9.315  71.955  1.00  0.00    -0.364 OA 
BRANCH  28  29
HETATM   29  C   UNL     1     -11.755   8.066  72.227  1.00  0.00    -0.371 A  
HETATM   30  C   UNL     1     -10.459   8.070  72.732  1.00  0.00    -0.415 A  
HETATM   31  C   UNL     1      -9.802   6.868  73.013  1.00  0.00    -0.204 A  
HETATM   32  C   UNL     1     -10.450   5.651  72.812  1.00  0.00    -0.247 A  
HETATM   33  C   UNL     1     -11.757   5.636  72.344  1.00  0.00    -0.240 A  
HETATM   34  C   UNL     1     -12.410   6.838  72.057  1.00  0.00    -0.311 A  
ENDBRANCH  28  29
ENDBRANCH  27  28
ENDBRANCH  26  27
ENDBRANCH  25  26
ENDBRANCH  18  25
ENDBRANCH  16  17
ENDBRANCH   6  16
TORSDOF 7
ENDMDL
MODEL       73
REMARK 921   NORMALIZED FREE ENERGY PREDICTED BY IDOCK:   -5.17 KCAL/MOL
REMARK 922        TOTAL FREE ENERGY PREDICTED BY IDOCK:   -8.94 KCAL/MOL
REMARK 923 INTER-LIGAND FREE ENERGY PREDICTED BY IDOCK:   -7.52 KCAL/MOL
REMARK 924 INTRA-LIGAND FREE ENERGY PREDICTED BY IDOCK:   -1.42 KCAL/MOL
REMARK 927      BINDING AFFINITY PREDICTED BY RF-SCORE:    0.00 PKD
ROOT
HETATM    1  O   UNL     1     -10.385   6.694  70.782  1.00  0.00    -0.198 OA 
HETATM    2  C   UNL     1      -9.184   6.866  70.016  1.00  0.00    -0.155 C  
HETATM    3  H   UNL     1     -10.550   5.762  70.867  1.00  0.00     0.000 HD 
HETATM    4  C   UNL     1      -9.474   6.276  68.631  1.00  0.00    -0.121 A  
HETATM    5  C   UNL     1      -8.100   6.099  70.770  1.00  0.00    -0.124 A  
HETATM    6  C   UNL     1      -8.912   8.411  69.876  1.00  0.00    -0.142 C  
HETATM    7  C   UNL     1      -9.385   5.673  66.226  1.00  0.00    -0.157 A  
HETATM    8  C   UNL     1     -10.586   5.565  68.208  1.00  0.00    -0.207 A  
HETATM    9  C   UNL     1      -7.616   4.820  70.525  1.00  0.00    -0.058 A  
HETATM   10  O   UNL     1      -8.217   9.126  70.588  1.00  0.00    -0.156 OA 
HETATM   11  C   UNL     1     -10.540   5.230  66.826  1.00  0.00    -0.309 A  
HETATM   12  C   UNL     1      -6.652   4.389  71.479  1.00  0.00    -0.026 A  
HETATM   13  S   UNL     1      -7.415   6.710  72.231  1.00  0.00    -0.094 SA 
HETATM   14  C   UNL     1      -6.434   5.334  72.451  1.00  0.00    -0.047 A  
HETATM   15  S   UNL     1      -8.340   6.446  67.334  1.00  0.00    -0.112 SA 
ENDROOT
BRANCH   6  16
HETATM   16  O   UNL     1      -9.634   8.952  68.841  1.00  0.00    -0.157 OA 
BRANCH  16  17
HETATM   17  C   UNL     1      -8.991   9.939  68.017  1.00  0.00    -0.121 C  
HETATM   18  N   UNL     1     -10.123  11.113  66.031  1.00  0.00    -0.236 N  
HETATM   19  C   UNL     1      -9.346   9.827  66.511  1.00  0.00    -0.162 C  
HETATM   20  C   UNL     1      -9.220  12.329  66.292  1.00  0.00    -0.171 C  
HETATM   21  C   UNL     1     -11.390  11.224  66.890  1.00  0.00    -0.155 C  
HETATM   22  C   UNL     1      -8.779  12.387  67.746  1.00  0.00    -0.176 C  
HETATM   23  C   UNL     1     -10.989  11.426  68.353  1.00  0.00    -0.263 C  
HETATM   24  C   UNL     1      -9.467  11.297  68.551  1.00  0.00    -0.191 C  
BRANCH  18  25
HETATM   25  C   UNL     1     -10.466  10.898  64.527  1.00  0.00    -0.323 C  
BRANCH  25  26
HETATM   26  C   UNL     1     -10.644  12.147  63.647  1.00  0.00    -0.504 C  
BRANCH  26  27
HETATM   27  C   UNL     1     -12.060  12.705  63.636  1.00  0.00    -0.547 C  
BRANCH  27  28
HETATM   28  O   UNL     1     -12.082  14.125  63.679  1.00  0.00    -0.449 OA 
BRANCH  28  29
HETATM   29  C   UNL     1     -11.745  14.651  64.907  1.00  0.00    -0.403 A  
HETATM   30  C   UNL     1     -10.807  15.676  64.863  1.00  0.00    -0.438 A  
HETATM   31  C   UNL     1     -10.349  16.272  66.042  1.00  0.00    -0.363 A  
HETATM   32  C   UNL     1     -10.846  15.857  67.276  1.00  0.00    -0.279 A  
HETATM   33  C   UNL     1     -11.810  14.860  67.331  1.00  0.00    -0.245 A  
HETATM   34  C   UNL     1     -12.263  14.261  66.151  1.00  0.00    -0.430 A  
ENDBRANCH  28  29
ENDBRANCH  27  28
ENDBRANCH  26  27
ENDBRANCH  25  26
ENDBRANCH  18  25
ENDBRANCH  16  17
ENDBRANCH   6  16
TORSDOF 7
ENDMDL
MODEL       74
REMARK 921   NORMALIZED FREE ENERGY PREDICTED BY IDOCK:   -5.15 KCAL/MOL
REMARK 922        TOTAL FREE ENERGY PREDICTED BY IDOCK:   -8.91 KCAL/MOL
REMARK 923 INTER-LIGAND FREE ENERGY PREDICTED BY IDOCK:   -7.54 KCAL/MOL
REMARK 924 INTRA-LIGAND FREE ENERGY PREDICTED BY IDOCK:   -1.37 KCAL/MOL
REMARK 927      BINDING AFFINITY PREDICTED BY RF-SCORE:    0.00 PKD
ROOT
HETATM    1  O   UNL     1      -9.544  12.269  69.162  1.00  0.00    -0.353 OA 
HETATM    2  C   UNL     1     -10.813  12.385  68.501  1.00  0.00    -0.242 C  
HETATM    3  H   UNL     1      -9.308  13.125  69.500  1.00  0.00     0.000 HD 
HETATM    4  C   UNL     1     -10.596  13.349  67.329  1.00  0.00    -0.255 A  
HETATM    5  C   UNL     1     -11.776  12.938  69.550  1.00  0.00    -0.323 A  
HETATM    6  C   UNL     1     -11.203  10.966  67.941  1.00  0.00    -0.321 C  
HETATM    7  C   UNL     1     -10.838  14.646  65.228  1.00  0.00    -0.377 A  
HETATM    8  C   UNL     1      -9.475  14.106  67.026  1.00  0.00    -0.256 A  
HETATM    9  C   UNL     1     -12.187  14.251  69.740  1.00  0.00    -0.390 A  
HETATM   10  O   UNL     1     -11.886  10.101  68.477  1.00  0.00    -0.097 OA 
HETATM   11  C   UNL     1      -9.610  14.841  65.815  1.00  0.00    -0.289 A  
HETATM   12  C   UNL     1     -13.038  14.418  70.869  1.00  0.00    -0.390 A  
HETATM   13  S   UNL     1     -12.380  11.948  70.828  1.00  0.00    -0.226 SA 
HETATM   14  C   UNL     1     -13.242  13.236  71.537  1.00  0.00    -0.299 A  
HETATM   15  S   UNL     1     -11.841  13.623  66.158  1.00  0.00    -0.417 SA 
ENDROOT
BRANCH   6  16
HETATM   16  O   UNL     1     -10.607  10.729  66.727  1.00  0.00    -0.246 OA 
BRANCH  16  17
HETATM   17  C   UNL     1      -9.313  10.103  66.725  1.00  0.00    -0.160 C  
HETATM   18  N   UNL     1      -8.424   8.645  64.806  1.00  0.00    -0.170 N  
HETATM   19  C   UNL     1      -9.306   8.678  66.113  1.00  0.00    -0.226 C  
HETATM   20  C   UNL     1      -7.001   9.083  65.191  1.00  0.00    -0.080 C  
HETATM   21  C   UNL     1      -9.024   9.662  63.827  1.00  0.00    -0.217 C  
HETATM   22  C   UNL     1      -7.009  10.433  65.889  1.00  0.00    -0.131 C  
HETATM   23  C   UNL     1      -8.924  11.063  64.435  1.00  0.00    -0.053 C  
HETATM   24  C   UNL     1      -8.411  11.020  65.887  1.00  0.00    -0.140 C  
BRANCH  18  25
HETATM   25  C   UNL     1      -8.502   7.194  64.246  1.00  0.00     0.268 C  
BRANCH  25  26
HETATM   26  C   UNL     1      -8.165   6.037  65.201  1.00  0.00    -0.142 C  
BRANCH  26  27
HETATM   27  C   UNL     1      -9.321   5.077  65.449  1.00  0.00    -0.113 C  
BRANCH  27  28
HETATM   28  O   UNL     1      -9.124   4.284  66.611  1.00  0.00    -0.116 OA 
BRANCH  28  29
HETATM   29  C   UNL     1      -9.699   4.810  67.748  1.00  0.00    -0.156 A  
HETATM   30  C   UNL     1      -9.270   4.229  68.937  1.00  0.00    -0.205 A  
HETATM   31  C   UNL     1      -9.803   4.641  70.162  1.00  0.00    -0.306 A  
HETATM   32  C   UNL     1     -10.754   5.658  70.206  1.00  0.00    -0.364 A  
HETATM   33  C   UNL     1     -11.163   6.271  69.029  1.00  0.00    -0.415 A  
HETATM   34  C   UNL     1     -10.634   5.854  67.805  1.00  0.00    -0.331 A  
ENDBRANCH  28  29
ENDBRANCH  27  28
ENDBRANCH  26  27
ENDBRANCH  25  26
ENDBRANCH  18  25
ENDBRANCH  16  17
ENDBRANCH   6  16
TORSDOF 7
ENDMDL
MODEL       75
REMARK 921   NORMALIZED FREE ENERGY PREDICTED BY IDOCK:   -5.15 KCAL/MOL
REMARK 922        TOTAL FREE ENERGY PREDICTED BY IDOCK:   -8.91 KCAL/MOL
REMARK 923 INTER-LIGAND FREE ENERGY PREDICTED BY IDOCK:   -7.80 KCAL/MOL
REMARK 924 INTRA-LIGAND FREE ENERGY PREDICTED BY IDOCK:   -1.11 KCAL/MOL
REMARK 927      BINDING AFFINITY PREDICTED BY RF-SCORE:    0.00 PKD
ROOT
HETATM    1  O   UNL     1     -11.017  18.627  67.571  1.00  0.00    -0.392 OA 
HETATM    2  C   UNL     1      -9.919  17.703  67.621  1.00  0.00    -0.323 C  
HETATM    3  H   UNL     1     -11.044  19.096  68.397  1.00  0.00     0.000 HD 
HETATM    4  C   UNL     1     -10.241  16.719  68.751  1.00  0.00    -0.299 A  
HETATM    5  C   UNL     1      -8.680  18.549  67.908  1.00  0.00    -0.284 A  
HETATM    6  C   UNL     1      -9.874  16.926  66.252  1.00  0.00    -0.302 C  
HETATM    7  C   UNL     1     -10.272  14.764  70.278  1.00  0.00     0.337 A  
HETATM    8  C   UNL     1     -11.277  16.766  69.672  1.00  0.00     0.084 A  
HETATM    9  C   UNL     1      -8.049  18.772  69.125  1.00  0.00    -0.065 A  
HETATM   10  O   UNL     1      -9.226  17.196  65.248  1.00  0.00     0.161 OA 
HETATM   11  C   UNL     1     -11.301  15.638  70.539  1.00  0.00    -0.386 A  
HETATM   12  C   UNL     1      -6.957  19.682  69.037  1.00  0.00    -0.390 A  
HETATM   13  S   UNL     1      -7.966  19.543  66.692  1.00  0.00    -0.310 SA 
HETATM   14  C   UNL     1      -6.790  20.159  67.760  1.00  0.00    -0.274 A  
HETATM   15  S   UNL     1      -9.254  15.324  69.027  1.00  0.00    -0.234 SA 
ENDROOT
BRANCH   6  16
HETATM   16  O   UNL     1     -10.748  15.867  66.253  1.00  0.00    -0.310 OA 
BRANCH  16  17
HETATM   17  C   UNL     1     -10.598  14.872  65.225  1.00  0.00    -0.401 C  
HETATM   18  N   UNL     1     -10.549  12.342  65.669  1.00  0.00    -0.258 N  
HETATM   19  C   UNL     1      -9.705  13.674  65.637  1.00  0.00    -0.094 C  
HETATM   20  C   UNL     1     -11.139  12.129  64.265  1.00  0.00    -0.346 C  
HETATM   21  C   UNL     1     -11.689  12.552  66.675  1.00  0.00    -0.387 C  
HETATM   22  C   UNL     1     -11.930  13.345  63.808  1.00  0.00    -0.517 C  
HETATM   23  C   UNL     1     -12.595  13.681  66.179  1.00  0.00    -0.391 C  
HETATM   24  C   UNL     1     -12.017  14.369  64.927  1.00  0.00    -0.430 C  
BRANCH  18  25
HETATM   25  C   UNL     1      -9.585  11.206  66.122  1.00  0.00    -0.210 C  
BRANCH  25  26
HETATM   26  C   UNL     1     -10.007  10.345  67.324  1.00  0.00    -0.229 C  
BRANCH  26  27
HETATM   27  C   UNL     1     -10.651   9.019  66.945  1.00  0.00    -0.173 C  
BRANCH  27  28
HETATM   28  O   UNL     1      -9.773   7.918  67.132  1.00  0.00    -0.162 OA 
BRANCH  28  29
HETATM   29  C   UNL     1     -10.022   7.195  68.279  1.00  0.00    -0.156 A  
HETATM   30  C   UNL     1      -8.946   6.445  68.738  1.00  0.00    -0.126 A  
HETATM   31  C   UNL     1      -9.075   5.634  69.870  1.00  0.00    -0.155 A  
HETATM   32  C   UNL     1     -10.282   5.589  70.565  1.00  0.00    -0.311 A  
HETATM   33  C   UNL     1     -11.353   6.362  70.138  1.00  0.00    -0.485 A  
HETATM   34  C   UNL     1     -11.224   7.167  69.002  1.00  0.00     0.021 A  
ENDBRANCH  28  29
ENDBRANCH  27  28
ENDBRANCH  26  27
ENDBRANCH  25  26
ENDBRANCH  18  25
ENDBRANCH  16  17
ENDBRANCH   6  16
TORSDOF 7
ENDMDL
MODEL       76
REMARK 921   NORMALIZED FREE ENERGY PREDICTED BY IDOCK:   -5.15 KCAL/MOL
REMARK 922        TOTAL FREE ENERGY PREDICTED BY IDOCK:   -8.90 KCAL/MOL
REMARK 923 INTER-LIGAND FREE ENERGY PREDICTED BY IDOCK:   -8.30 KCAL/MOL
REMARK 924 INTRA-LIGAND FREE ENERGY PREDICTED BY IDOCK:   -0.60 KCAL/MOL
REMARK 927      BINDING AFFINITY PREDICTED BY RF-SCORE:    0.00 PKD
ROOT
HETATM    1  O   UNL     1      -7.477  16.473  66.186  1.00  0.00    -0.168 OA 
HETATM    2  C   UNL     1      -8.276  16.599  67.372  1.00  0.00    -0.169 C  
HETATM    3  H   UNL     1      -6.936  17.250  66.111  1.00  0.00     0.000 HD 
HETATM    4  C   UNL     1      -9.174  17.822  67.153  1.00  0.00    -0.253 A  
HETATM    5  C   UNL     1      -7.285  16.791  68.518  1.00  0.00    -0.194 A  
HETATM    6  C   UNL     1      -9.173  15.311  67.495  1.00  0.00    -0.199 C  
HETATM    7  C   UNL     1     -10.966  19.529  67.321  1.00  0.00    -0.341 A  
HETATM    8  C   UNL     1      -9.144  18.744  66.118  1.00  0.00    -0.152 A  
HETATM    9  C   UNL     1      -6.884  17.974  69.125  1.00  0.00    -0.226 A  
HETATM   10  O   UNL     1      -8.937  14.278  68.111  1.00  0.00    -0.174 OA 
HETATM   11  C   UNL     1     -10.179  19.716  66.209  1.00  0.00    -0.598 A  
HETATM   12  C   UNL     1      -5.881  17.788  70.118  1.00  0.00    -0.189 A  
HETATM   13  S   UNL     1      -6.346  15.478  69.127  1.00  0.00    -0.128 SA 
HETATM   14  C   UNL     1      -5.514  16.469  70.235  1.00  0.00    -0.196 A  
HETATM   15  S   UNL     1     -10.429  18.219  68.276  1.00  0.00    -0.233 SA 
ENDROOT
BRANCH   6  16
HETATM   16  O   UNL     1     -10.310  15.422  66.733  1.00  0.00    -0.267 OA 
BRANCH  16  17
HETATM   17  C   UNL     1     -10.362  14.694  65.494  1.00  0.00    -0.362 C  
HETATM   18  N   UNL     1     -10.947  12.199  65.314  1.00  0.00    -0.296 N  
HETATM   19  C   UNL     1      -9.804  13.251  65.590  1.00  0.00    -0.162 C  
HETATM   20  C   UNL     1     -11.510  12.477  63.911  1.00  0.00    -0.437 C  
HETATM   21  C   UNL     1     -12.044  12.437  66.361  1.00  0.00    -0.140 C  
HETATM   22  C   UNL     1     -11.961  13.922  63.774  1.00  0.00    -0.305 C  
HETATM   23  C   UNL     1     -12.627  13.838  66.167  1.00  0.00    -0.423 C  
HETATM   24  C   UNL     1     -11.847  14.640  65.108  1.00  0.00    -0.351 C  
BRANCH  18  25
HETATM   25  C   UNL     1     -10.307  10.787  65.464  1.00  0.00    -0.241 C  
BRANCH  25  26
HETATM   26  C   UNL     1      -9.535  10.483  66.759  1.00  0.00    -0.190 C  
BRANCH  26  27
HETATM   27  C   UNL     1     -10.286   9.591  67.738  1.00  0.00    -0.239 C  
BRANCH  27  28
HETATM   28  O   UNL     1     -10.426   8.261  67.259  1.00  0.00    -0.274 OA 
BRANCH  28  29
HETATM   29  C   UNL     1     -10.177   7.297  68.211  1.00  0.00    -0.180 A  
HETATM   30  C   UNL     1      -8.830   7.041  68.441  1.00  0.00    -0.123 A  
HETATM   31  C   UNL     1      -8.438   6.057  69.354  1.00  0.00    -0.115 A  
HETATM   32  C   UNL     1      -9.398   5.337  70.062  1.00  0.00    -0.201 A  
HETATM   33  C   UNL     1     -10.746   5.609  69.869  1.00  0.00    -0.399 A  
HETATM   34  C   UNL     1     -11.136   6.589  68.952  1.00  0.00    -0.371 A  
ENDBRANCH  28  29
ENDBRANCH  27  28
ENDBRANCH  26  27
ENDBRANCH  25  26
ENDBRANCH  18  25
ENDBRANCH  16  17
ENDBRANCH   6  16
TORSDOF 7
ENDMDL
MODEL       77
REMARK 921   NORMALIZED FREE ENERGY PREDICTED BY IDOCK:   -5.14 KCAL/MOL
REMARK 922        TOTAL FREE ENERGY PREDICTED BY IDOCK:   -8.90 KCAL/MOL
REMARK 923 INTER-LIGAND FREE ENERGY PREDICTED BY IDOCK:   -7.75 KCAL/MOL
REMARK 924 INTRA-LIGAND FREE ENERGY PREDICTED BY IDOCK:   -1.15 KCAL/MOL
REMARK 927      BINDING AFFINITY PREDICTED BY RF-SCORE:    0.00 PKD
ROOT
HETATM    1  O   UNL     1     -10.016  10.433  69.196  1.00  0.00    -0.202 OA 
HETATM    2  C   UNL     1      -9.319  10.619  67.955  1.00  0.00    -0.148 C  
HETATM    3  H   UNL     1     -10.796   9.918  69.021  1.00  0.00     0.000 HD 
HETATM    4  C   UNL     1     -10.264  11.422  67.051  1.00  0.00    -0.213 A  
HETATM    5  C   UNL     1      -9.042   9.215  67.421  1.00  0.00    -0.127 A  
HETATM    6  C   UNL     1      -8.028  11.473  68.244  1.00  0.00    -0.142 C  
HETATM    7  C   UNL     1     -11.220  12.815  65.236  1.00  0.00    -0.293 A  
HETATM    8  C   UNL     1     -11.586  11.772  67.277  1.00  0.00    -0.344 A  
HETATM    9  C   UNL     1      -9.755   8.495  66.471  1.00  0.00    -0.330 A  
HETATM   10  O   UNL     1      -6.895  11.075  68.488  1.00  0.00    -0.059 OA 
HETATM   11  C   UNL     1     -12.131  12.582  66.240  1.00  0.00    -0.315 A  
HETATM   12  C   UNL     1      -9.255   7.178  66.269  1.00  0.00    -0.169 A  
HETATM   13  S   UNL     1      -7.819   8.214  68.113  1.00  0.00    -0.124 SA 
HETATM   14  C   UNL     1      -8.186   6.904  67.087  1.00  0.00    -0.118 A  
HETATM   15  S   UNL     1      -9.735  12.022  65.517  1.00  0.00    -0.157 SA 
ENDROOT
BRANCH   6  16
HETATM   16  O   UNL     1      -8.315  12.816  68.270  1.00  0.00    -0.162 OA 
BRANCH  16  17
HETATM   17  C   UNL     1      -7.417  13.707  67.587  1.00  0.00    -0.183 C  
HETATM   18  N   UNL     1      -7.506  16.267  67.786  1.00  0.00    -0.129 N  
HETATM   19  C   UNL     1      -8.096  14.999  67.060  1.00  0.00    -0.190 C  
HETATM   20  C   UNL     1      -5.992  16.296  67.521  1.00  0.00    -0.160 C  
HETATM   21  C   UNL     1      -7.757  16.087  69.290  1.00  0.00    -0.223 C  
HETATM   22  C   UNL     1      -5.333  14.991  67.937  1.00  0.00    -0.108 C  
HETATM   23  C   UNL     1      -6.993  14.856  69.782  1.00  0.00    -0.175 C  
HETATM   24  C   UNL     1      -6.344  14.083  68.618  1.00  0.00    -0.089 C  
BRANCH  18  25
HETATM   25  C   UNL     1      -8.264  17.505  67.222  1.00  0.00    -0.208 C  
BRANCH  25  26
HETATM   26  C   UNL     1      -9.750  17.334  66.866  1.00  0.00    -0.275 C  
BRANCH  26  27
HETATM   27  C   UNL     1     -10.665  17.164  68.071  1.00  0.00    -0.372 C  
BRANCH  27  28
HETATM   28  O   UNL     1     -11.369  15.931  68.046  1.00  0.00    -0.342 OA 
BRANCH  28  29
HETATM   29  C   UNL     1     -11.689  15.446  69.295  1.00  0.00    -0.349 A  
HETATM   30  C   UNL     1     -11.424  16.320  70.343  1.00  0.00    -0.265 A  
HETATM   31  C   UNL     1     -11.664  15.938  71.667  1.00  0.00    -0.563 A  
HETATM   32  C   UNL     1     -12.196  14.681  71.947  1.00  0.00    -0.390 A  
HETATM   33  C   UNL     1     -12.499  13.813  70.907  1.00  0.00    -0.451 A  
HETATM   34  C   UNL     1     -12.252  14.194  69.585  1.00  0.00    -0.376 A  
ENDBRANCH  28  29
ENDBRANCH  27  28
ENDBRANCH  26  27
ENDBRANCH  25  26
ENDBRANCH  18  25
ENDBRANCH  16  17
ENDBRANCH   6  16
TORSDOF 7
ENDMDL
MODEL       78
REMARK 921   NORMALIZED FREE ENERGY PREDICTED BY IDOCK:   -5.11 KCAL/MOL
REMARK 922        TOTAL FREE ENERGY PREDICTED BY IDOCK:   -8.85 KCAL/MOL
REMARK 923 INTER-LIGAND FREE ENERGY PREDICTED BY IDOCK:   -7.22 KCAL/MOL
REMARK 924 INTRA-LIGAND FREE ENERGY PREDICTED BY IDOCK:   -1.63 KCAL/MOL
REMARK 927      BINDING AFFINITY PREDICTED BY RF-SCORE:    0.00 PKD
ROOT
HETATM    1  O   UNL     1      -8.303   7.154  65.212  1.00  0.00    -0.155 OA 
HETATM    2  C   UNL     1      -8.633   6.775  66.556  1.00  0.00    -0.128 C  
HETATM    3  H   UNL     1      -7.477   6.742  64.984  1.00  0.00     0.000 HD 
HETATM    4  C   UNL     1      -7.521   7.344  67.446  1.00  0.00    -0.104 A  
HETATM    5  C   UNL     1      -8.668   5.248  66.558  1.00  0.00    -0.115 A  
HETATM    6  C   UNL     1     -10.001   7.458  66.934  1.00  0.00    -0.236 C  
HETATM    7  C   UNL     1      -6.176   8.137  69.373  1.00  0.00    -0.034 A  
HETATM    8  C   UNL     1      -6.337   7.958  67.065  1.00  0.00    -0.055 A  
HETATM    9  C   UNL     1      -7.676   4.361  66.959  1.00  0.00    -0.089 A  
HETATM   10  O   UNL     1     -11.132   6.997  66.833  1.00  0.00    -0.359 OA 
HETATM   11  C   UNL     1      -5.572   8.423  68.171  1.00  0.00    -0.035 A  
HETATM   12  C   UNL     1      -8.023   2.996  66.751  1.00  0.00    -0.080 A  
HETATM   13  S   UNL     1      -9.975   4.376  65.847  1.00  0.00    -0.234 SA 
HETATM   14  C   UNL     1      -9.261   2.864  66.171  1.00  0.00    -0.094 A  
HETATM   15  S   UNL     1      -7.632   7.268  69.171  1.00  0.00    -0.104 SA 
ENDROOT
BRANCH   6  16
HETATM   16  O   UNL     1      -9.811   8.750  67.359  1.00  0.00    -0.169 OA 
BRANCH  16  17
HETATM   17  C   UNL     1     -10.402   9.806  66.583  1.00  0.00    -0.206 C  
HETATM   18  N   UNL     1     -10.184  12.302  67.150  1.00  0.00    -0.210 N  
HETATM   19  C   UNL     1     -10.973  10.968  67.437  1.00  0.00    -0.291 C  
HETATM   20  C   UNL     1     -10.314  12.609  65.649  1.00  0.00    -0.273 C  
HETATM   21  C   UNL     1      -8.711  12.040  67.491  1.00  0.00    -0.166 C  
HETATM   22  C   UNL     1      -9.855  11.433  64.803  1.00  0.00    -0.302 C  
HETATM   23  C   UNL     1      -8.166  10.953  66.562  1.00  0.00    -0.157 C  
HETATM   24  C   UNL     1      -9.276  10.341  65.687  1.00  0.00    -0.225 C  
BRANCH  18  25
HETATM   25  C   UNL     1     -10.799  13.398  68.069  1.00  0.00    -0.247 C  
BRANCH  25  26
HETATM   26  C   UNL     1     -12.103  13.062  68.811  1.00  0.00    -0.197 C  
BRANCH  26  27
HETATM   27  C   UNL     1     -11.952  12.957  70.323  1.00  0.00    -0.283 C  
BRANCH  27  28
HETATM   28  O   UNL     1     -12.910  12.084  70.903  1.00  0.00    -0.238 OA 
BRANCH  28  29
HETATM   29  C   UNL     1     -12.431  10.817  71.153  1.00  0.00    -0.414 A  
HETATM   30  C   UNL     1     -13.317   9.983  71.826  1.00  0.00    -0.492 A  
HETATM   31  C   UNL     1     -12.942   8.682  72.176  1.00  0.00    -0.432 A  
HETATM   32  C   UNL     1     -11.680   8.200  71.833  1.00  0.00    -0.362 A  
HETATM   33  C   UNL     1     -10.801   9.010  71.129  1.00  0.00    -0.364 A  
HETATM   34  C   UNL     1     -11.175  10.312  70.784  1.00  0.00    -0.373 A  
ENDBRANCH  28  29
ENDBRANCH  27  28
ENDBRANCH  26  27
ENDBRANCH  25  26
ENDBRANCH  18  25
ENDBRANCH  16  17
ENDBRANCH   6  16
TORSDOF 7
ENDMDL
MODEL       79
REMARK 921   NORMALIZED FREE ENERGY PREDICTED BY IDOCK:   -5.11 KCAL/MOL
REMARK 922        TOTAL FREE ENERGY PREDICTED BY IDOCK:   -8.85 KCAL/MOL
REMARK 923 INTER-LIGAND FREE ENERGY PREDICTED BY IDOCK:   -8.51 KCAL/MOL
REMARK 924 INTRA-LIGAND FREE ENERGY PREDICTED BY IDOCK:   -0.34 KCAL/MOL
REMARK 927      BINDING AFFINITY PREDICTED BY RF-SCORE:    0.00 PKD
ROOT
HETATM    1  O   UNL     1     -11.408   8.130  69.180  1.00  0.00    -0.343 OA 
HETATM    2  C   UNL     1      -9.993   7.980  68.992  1.00  0.00    -0.185 C  
HETATM    3  H   UNL     1     -11.755   7.298  69.481  1.00  0.00     0.000 HD 
HETATM    4  C   UNL     1      -9.818   6.929  67.889  1.00  0.00    -0.135 A  
HETATM    5  C   UNL     1      -9.445   7.518  70.341  1.00  0.00    -0.161 A  
HETATM    6  C   UNL     1      -9.418   9.358  68.493  1.00  0.00    -0.145 C  
HETATM    7  C   UNL     1      -8.905   5.484  66.092  1.00  0.00    -0.139 A  
HETATM    8  C   UNL     1     -10.784   6.139  67.285  1.00  0.00    -0.414 A  
HETATM    9  C   UNL     1      -9.140   6.227  70.754  1.00  0.00    -0.150 A  
HETATM   10  O   UNL     1      -8.942  10.268  69.161  1.00  0.00    -0.160 OA 
HETATM   11  C   UNL     1     -10.261   5.319  66.247  1.00  0.00    -0.263 A  
HETATM   12  C   UNL     1      -8.718   6.153  72.111  1.00  0.00    -0.131 A  
HETATM   13  S   UNL     1      -9.290   8.606  71.671  1.00  0.00    -0.280 SA 
HETATM   14  C   UNL     1      -8.733   7.384  72.720  1.00  0.00    -0.126 A  
HETATM   15  S   UNL     1      -8.257   6.584  67.227  1.00  0.00    -0.113 SA 
ENDROOT
BRANCH   6  16
HETATM   16  O   UNL     1      -9.570   9.498  67.135  1.00  0.00    -0.150 OA 
BRANCH  16  17
HETATM   17  C   UNL     1     -10.759  10.148  66.656  1.00  0.00    -0.086 C  
HETATM   18  N   UNL     1     -11.320  12.619  67.084  1.00  0.00    -0.300 N  
HETATM   19  C   UNL     1     -11.375  11.153  67.664  1.00  0.00    -0.284 C  
HETATM   20  C   UNL     1     -12.098  12.626  65.758  1.00  0.00    -0.423 C  
HETATM   21  C   UNL     1      -9.845  12.944  66.812  1.00  0.00    -0.241 C  
HETATM   22  C   UNL     1     -11.570  11.569  64.802  1.00  0.00    -0.086 C  
HETATM   23  C   UNL     1      -9.309  11.987  65.745  1.00  0.00    -0.133 C  
HETATM   24  C   UNL     1     -10.337  10.898  65.385  1.00  0.00    -0.326 C  
BRANCH  18  25
HETATM   25  C   UNL     1     -11.924  13.557  68.170  1.00  0.00    -0.341 C  
BRANCH  25  26
HETATM   26  C   UNL     1     -10.977  14.546  68.870  1.00  0.00    -0.268 C  
BRANCH  26  27
HETATM   27  C   UNL     1     -10.576  15.739  68.014  1.00  0.00    -0.279 C  
BRANCH  27  28
HETATM   28  O   UNL     1     -10.812  16.978  68.668  1.00  0.00    -0.338 OA 
BRANCH  28  29
HETATM   29  C   UNL     1     -10.124  18.038  68.119  1.00  0.00    -0.372 A  
HETATM   30  C   UNL     1      -8.855  18.244  68.650  1.00  0.00    -0.294 A  
HETATM   31  C   UNL     1      -8.065  19.310  68.210  1.00  0.00    -0.367 A  
HETATM   32  C   UNL     1      -8.534  20.166  67.215  1.00  0.00    -0.403 A  
HETATM   33  C   UNL     1      -9.784  19.949  66.652  1.00  0.00    -0.542 A  
HETATM   34  C   UNL     1     -10.575  18.886  67.097  1.00  0.00    -0.531 A  
ENDBRANCH  28  29
ENDBRANCH  27  28
ENDBRANCH  26  27
ENDBRANCH  25  26
ENDBRANCH  18  25
ENDBRANCH  16  17
ENDBRANCH   6  16
TORSDOF 7
ENDMDL
MODEL       80
REMARK 921   NORMALIZED FREE ENERGY PREDICTED BY IDOCK:   -5.08 KCAL/MOL
REMARK 922        TOTAL FREE ENERGY PREDICTED BY IDOCK:   -8.81 KCAL/MOL
REMARK 923 INTER-LIGAND FREE ENERGY PREDICTED BY IDOCK:   -7.41 KCAL/MOL
REMARK 924 INTRA-LIGAND FREE ENERGY PREDICTED BY IDOCK:   -1.40 KCAL/MOL
REMARK 927      BINDING AFFINITY PREDICTED BY RF-SCORE:    0.00 PKD
ROOT
HETATM    1  O   UNL     1      -6.347   6.872  67.370  1.00  0.00    -0.041 OA 
HETATM    2  C   UNL     1      -7.495   6.622  66.545  1.00  0.00    -0.078 C  
HETATM    3  H   UNL     1      -5.677   6.237  67.143  1.00  0.00     0.000 HD 
HETATM    4  C   UNL     1      -7.986   5.217  66.912  1.00  0.00    -0.104 A  
HETATM    5  C   UNL     1      -6.996   6.717  65.104  1.00  0.00    -0.051 A  
HETATM    6  C   UNL     1      -8.604   7.675  66.921  1.00  0.00    -0.123 C  
HETATM    7  C   UNL     1      -9.337   3.154  67.179  1.00  0.00    -0.165 A  
HETATM    8  C   UNL     1      -7.385   4.278  67.738  1.00  0.00    -0.068 A  
HETATM    9  C   UNL     1      -6.633   5.687  64.246  1.00  0.00    -0.044 A  
HETATM   10  O   UNL     1      -8.826   8.762  66.400  1.00  0.00    -0.133 OA 
HETATM   11  C   UNL     1      -8.167   3.100  67.900  1.00  0.00    -0.087 A  
HETATM   12  C   UNL     1      -6.139   6.145  62.992  1.00  0.00    -0.026 A  
HETATM   13  S   UNL     1      -6.634   8.238  64.374  1.00  0.00    -0.066 SA 
HETATM   14  C   UNL     1      -6.109   7.517  62.923  1.00  0.00    -0.055 A  
HETATM   15  S   UNL     1      -9.469   4.596  66.273  1.00  0.00    -0.186 SA 
ENDROOT
BRANCH   6  16
HETATM   16  O   UNL     1      -9.322   7.270  68.019  1.00  0.00    -0.131 OA 
BRANCH  16  17
HETATM   17  C   UNL     1      -9.352   8.144  69.161  1.00  0.00    -0.151 C  
HETATM   18  N   UNL     1     -10.991   7.890  71.123  1.00  0.00    -0.236 N  
HETATM   19  C   UNL     1     -10.782   8.463  69.669  1.00  0.00    -0.198 C  
HETATM   20  C   UNL     1      -9.931   8.529  72.034  1.00  0.00    -0.313 C  
HETATM   21  C   UNL     1     -10.758   6.375  71.051  1.00  0.00    -0.251 C  
HETATM   22  C   UNL     1      -8.529   8.312  71.487  1.00  0.00    -0.179 C  
HETATM   23  C   UNL     1      -9.309   6.110  70.637  1.00  0.00    -0.177 C  
HETATM   24  C   UNL     1      -8.574   7.412  70.263  1.00  0.00    -0.145 C  
BRANCH  18  25
HETATM   25  C   UNL     1     -12.455   8.226  71.534  1.00  0.00    -0.312 C  
BRANCH  25  26
HETATM   26  C   UNL     1     -12.711   9.563  72.248  1.00  0.00    -0.388 C  
BRANCH  26  27
HETATM   27  C   UNL     1     -13.280  10.652  71.349  1.00  0.00    -0.323 C  
BRANCH  27  28
HETATM   28  O   UNL     1     -12.281  11.551  70.890  1.00  0.00    -0.368 OA 
BRANCH  28  29
HETATM   29  C   UNL     1     -12.595  12.879  71.080  1.00  0.00    -0.281 A  
HETATM   30  C   UNL     1     -13.422  13.129  72.170  1.00  0.00    -0.653 A  
HETATM   31  C   UNL     1     -13.850  14.429  72.454  1.00  0.00    -0.595 A  
HETATM   32  C   UNL     1     -13.432  15.494  71.658  1.00  0.00    -0.584 A  
HETATM   33  C   UNL     1     -12.576  15.262  70.590  1.00  0.00    -0.471 A  
HETATM   34  C   UNL     1     -12.154  13.960  70.304  1.00  0.00    -0.423 A  
ENDBRANCH  28  29
ENDBRANCH  27  28
ENDBRANCH  26  27
ENDBRANCH  25  26
ENDBRANCH  18  25
ENDBRANCH  16  17
ENDBRANCH   6  16
TORSDOF 7
ENDMDL
MODEL       81
REMARK 921   NORMALIZED FREE ENERGY PREDICTED BY IDOCK:   -5.07 KCAL/MOL
REMARK 922        TOTAL FREE ENERGY PREDICTED BY IDOCK:   -8.79 KCAL/MOL
REMARK 923 INTER-LIGAND FREE ENERGY PREDICTED BY IDOCK:   -8.24 KCAL/MOL
REMARK 924 INTRA-LIGAND FREE ENERGY PREDICTED BY IDOCK:   -0.55 KCAL/MOL
REMARK 927      BINDING AFFINITY PREDICTED BY RF-SCORE:    0.00 PKD
ROOT
HETATM    1  O   UNL     1      -9.775  13.358  69.176  1.00  0.00    -0.385 OA 
HETATM    2  C   UNL     1     -11.078  13.334  68.574  1.00  0.00    -0.265 C  
HETATM    3  H   UNL     1      -9.564  14.260  69.387  1.00  0.00     0.000 HD 
HETATM    4  C   UNL     1     -10.963  14.143  67.277  1.00  0.00    -0.297 A  
HETATM    5  C   UNL     1     -12.015  13.980  69.592  1.00  0.00    -0.339 A  
HETATM    6  C   UNL     1     -11.426  11.839  68.225  1.00  0.00    -0.307 C  
HETATM    7  C   UNL     1     -11.366  15.141  65.042  1.00  0.00    -0.380 A  
HETATM    8  C   UNL     1      -9.894  14.899  66.819  1.00  0.00    -0.254 A  
HETATM    9  C   UNL     1     -12.478  15.289  69.632  1.00  0.00    -0.174 A  
HETATM   10  O   UNL     1     -12.042  11.025  68.903  1.00  0.00    -0.479 OA 
HETATM   11  C   UNL     1     -10.121  15.461  65.532  1.00  0.00    -0.405 A  
HETATM   12  C   UNL     1     -13.281  15.569  70.774  1.00  0.00    -0.391 A  
HETATM   13  S   UNL     1     -12.510  13.144  71.018  1.00  0.00    -0.219 SA 
HETATM   14  C   UNL     1     -13.397  14.477  71.600  1.00  0.00    -0.363 A  
HETATM   15  S   UNL     1     -12.273  14.209  66.148  1.00  0.00    -0.411 SA 
ENDROOT
BRANCH   6  16
HETATM   16  O   UNL     1     -10.878  11.468  67.021  1.00  0.00    -0.244 OA 
BRANCH  16  17
HETATM   17  C   UNL     1      -9.455  11.273  66.963  1.00  0.00    -0.171 C  
HETATM   18  N   UNL     1      -8.295   9.017  67.370  1.00  0.00    -0.111 N  
HETATM   19  C   UNL     1      -8.910  10.303  68.044  1.00  0.00    -0.122 C  
HETATM   20  C   UNL     1      -7.170   9.476  66.427  1.00  0.00    -0.089 C  
HETATM   21  C   UNL     1      -9.411   8.357  66.549  1.00  0.00    -0.201 C  
HETATM   22  C   UNL     1      -7.671  10.509  65.431  1.00  0.00    -0.106 C  
HETATM   23  C   UNL     1      -9.851   9.314  65.439  1.00  0.00    -0.060 C  
HETATM   24  C   UNL     1      -9.173  10.692  65.571  1.00  0.00    -0.228 C  
BRANCH  18  25
HETATM   25  C   UNL     1      -7.807   8.092  68.524  1.00  0.00    -0.118 C  
BRANCH  25  26
HETATM   26  C   UNL     1      -8.585   6.790  68.776  1.00  0.00    -0.123 C  
BRANCH  26  27
HETATM   27  C   UNL     1      -9.764   6.943  69.727  1.00  0.00    -0.164 C  
BRANCH  27  28
HETATM   28  O   UNL     1     -10.521   5.747  69.845  1.00  0.00    -0.235 OA 
BRANCH  28  29
HETATM   29  C   UNL     1     -10.518   5.208  71.113  1.00  0.00    -0.170 A  
HETATM   30  C   UNL     1      -9.877   3.979  71.221  1.00  0.00    -0.242 A  
HETATM   31  C   UNL     1      -9.834   3.303  72.444  1.00  0.00    -0.226 A  
HETATM   32  C   UNL     1     -10.416   3.868  73.577  1.00  0.00    -0.257 A  
HETATM   33  C   UNL     1     -11.027   5.112  73.491  1.00  0.00    -0.370 A  
HETATM   34  C   UNL     1     -11.073   5.783  72.266  1.00  0.00    -0.330 A  
ENDBRANCH  28  29
ENDBRANCH  27  28
ENDBRANCH  26  27
ENDBRANCH  25  26
ENDBRANCH  18  25
ENDBRANCH  16  17
ENDBRANCH   6  16
TORSDOF 7
ENDMDL
MODEL       82
REMARK 921   NORMALIZED FREE ENERGY PREDICTED BY IDOCK:   -5.06 KCAL/MOL
REMARK 922        TOTAL FREE ENERGY PREDICTED BY IDOCK:   -8.78 KCAL/MOL
REMARK 923 INTER-LIGAND FREE ENERGY PREDICTED BY IDOCK:   -7.20 KCAL/MOL
REMARK 924 INTRA-LIGAND FREE ENERGY PREDICTED BY IDOCK:   -1.58 KCAL/MOL
REMARK 927      BINDING AFFINITY PREDICTED BY RF-SCORE:    0.00 PKD
ROOT
HETATM    1  O   UNL     1     -10.597   7.644  68.807  1.00  0.00    -0.265 OA 
HETATM    2  C   UNL     1      -9.982   8.267  69.945  1.00  0.00    -0.190 C  
HETATM    3  H   UNL     1     -10.161   6.814  68.654  1.00  0.00     0.000 HD 
HETATM    4  C   UNL     1      -8.523   8.528  69.552  1.00  0.00    -0.127 A  
HETATM    5  C   UNL     1     -10.116   7.262  71.088  1.00  0.00    -0.186 A  
HETATM    6  C   UNL     1     -10.706   9.643  70.199  1.00  0.00    -0.275 C  
HETATM    7  C   UNL     1      -6.188   9.358  69.457  1.00  0.00    -0.040 A  
HETATM    8  C   UNL     1      -7.847   8.117  68.413  1.00  0.00    -0.118 A  
HETATM    9  C   UNL     1      -9.174   6.355  71.556  1.00  0.00    -0.145 A  
HETATM   10  O   UNL     1     -11.650   9.877  70.944  1.00  0.00    -0.313 OA 
HETATM   11  C   UNL     1      -6.511   8.603  68.354  1.00  0.00    -0.056 A  
HETATM   12  C   UNL     1      -9.667   5.514  72.593  1.00  0.00    -0.170 A  
HETATM   13  S   UNL     1     -11.625   6.995  71.880  1.00  0.00    -0.298 SA 
HETATM   14  C   UNL     1     -10.985   5.774  72.881  1.00  0.00    -0.274 A  
HETATM   15  S   UNL     1      -7.471   9.437  70.581  1.00  0.00    -0.114 SA 
ENDROOT
BRANCH   6  16
HETATM   16  O   UNL     1     -10.191  10.631  69.396  1.00  0.00    -0.220 OA 
BRANCH  16  17
HETATM   17  C   UNL     1     -10.997  11.094  68.300  1.00  0.00    -0.226 C  
HETATM   18  N   UNL     1     -10.631  13.331  67.091  1.00  0.00    -0.258 N  
HETATM   19  C   UNL     1     -11.287  12.617  68.335  1.00  0.00    -0.290 C  
HETATM   20  C   UNL     1     -11.217  12.690  65.822  1.00  0.00    -0.312 C  
HETATM   21  C   UNL     1      -9.123  13.056  67.153  1.00  0.00    -0.225 C  
HETATM   22  C   UNL     1     -11.032  11.182  65.829  1.00  0.00    -0.160 C  
HETATM   23  C   UNL     1      -8.882  11.550  67.021  1.00  0.00    -0.173 C  
HETATM   24  C   UNL     1     -10.203  10.757  67.031  1.00  0.00    -0.261 C  
BRANCH  18  25
HETATM   25  C   UNL     1     -10.943  14.851  67.226  1.00  0.00    -0.323 C  
BRANCH  25  26
HETATM   26  C   UNL     1     -10.867  15.715  65.956  1.00  0.00    -0.276 C  
BRANCH  26  27
HETATM   27  C   UNL     1      -9.870  16.862  66.041  1.00  0.00    -0.258 C  
BRANCH  27  28
HETATM   28  O   UNL     1      -8.542  16.446  65.756  1.00  0.00    -0.398 OA 
BRANCH  28  29
HETATM   29  C   UNL     1      -7.617  16.857  66.691  1.00  0.00    -0.266 A  
HETATM   30  C   UNL     1      -6.556  17.594  66.174  1.00  0.00    -0.302 A  
HETATM   31  C   UNL     1      -5.526  18.039  67.008  1.00  0.00    -0.156 A  
HETATM   32  C   UNL     1      -5.564  17.767  68.375  1.00  0.00    -0.159 A  
HETATM   33  C   UNL     1      -6.636  17.065  68.908  1.00  0.00    -0.196 A  
HETATM   34  C   UNL     1      -7.662  16.615  68.072  1.00  0.00    -0.168 A  
ENDBRANCH  28  29
ENDBRANCH  27  28
ENDBRANCH  26  27
ENDBRANCH  25  26
ENDBRANCH  18  25
ENDBRANCH  16  17
ENDBRANCH   6  16
TORSDOF 7
ENDMDL
MODEL       83
REMARK 921   NORMALIZED FREE ENERGY PREDICTED BY IDOCK:   -5.04 KCAL/MOL
REMARK 922        TOTAL FREE ENERGY PREDICTED BY IDOCK:   -8.75 KCAL/MOL
REMARK 923 INTER-LIGAND FREE ENERGY PREDICTED BY IDOCK:   -6.82 KCAL/MOL
REMARK 924 INTRA-LIGAND FREE ENERGY PREDICTED BY IDOCK:   -1.93 KCAL/MOL
REMARK 927      BINDING AFFINITY PREDICTED BY RF-SCORE:    0.00 PKD
ROOT
HETATM    1  O   UNL     1     -12.184  14.807  67.137  1.00  0.00    -0.478 OA 
HETATM    2  C   UNL     1     -11.074  15.138  67.985  1.00  0.00    -0.308 C  
HETATM    3  H   UNL     1     -12.836  15.492  67.224  1.00  0.00     0.000 HD 
HETATM    4  C   UNL     1     -11.619  15.140  69.419  1.00  0.00    -0.323 A  
HETATM    5  C   UNL     1     -10.603  16.517  67.530  1.00  0.00    -0.313 A  
HETATM    6  C   UNL     1      -9.994  14.001  67.842  1.00  0.00    -0.237 C  
HETATM    7  C   UNL     1     -11.838  15.122  71.889  1.00  0.00    -0.404 A  
HETATM    8  C   UNL     1     -12.932  15.020  69.846  1.00  0.00     0.072 A  
HETATM    9  C   UNL     1     -10.901  17.758  68.080  1.00  0.00    -0.193 A  
HETATM   10  O   UNL     1      -9.032  13.960  67.085  1.00  0.00    -0.215 OA 
HETATM   11  C   UNL     1     -13.056  14.998  71.263  1.00  0.00    -0.472 A  
HETATM   12  C   UNL     1     -10.348  18.847  67.349  1.00  0.00    -0.496 A  
HETATM   13  S   UNL     1      -9.720  16.729  66.063  1.00  0.00    -0.220 SA 
HETATM   14  C   UNL     1      -9.661  18.422  66.238  1.00  0.00    -0.294 A  
HETATM   15  S   UNL     1     -10.559  15.315  70.775  1.00  0.00     0.153 SA 
ENDROOT
BRANCH   6  16
HETATM   16  O   UNL     1     -10.283  12.935  68.658  1.00  0.00    -0.229 OA 
BRANCH  16  17
HETATM   17  C   UNL     1      -9.934  11.620  68.194  1.00  0.00    -0.195 C  
HETATM   18  N   UNL     1      -9.808   9.547  69.707  1.00  0.00    -0.201 N  
HETATM   19  C   UNL     1      -9.043  10.822  69.181  1.00  0.00    -0.095 C  
HETATM   20  C   UNL     1     -10.179   8.688  68.487  1.00  0.00    -0.195 C  
HETATM   21  C   UNL     1     -11.088  10.038  70.395  1.00  0.00    -0.327 C  
HETATM   22  C   UNL     1     -10.963   9.493  67.463  1.00  0.00    -0.125 C  
HETATM   23  C   UNL     1     -11.976  10.736  69.362  1.00  0.00    -0.353 C  
HETATM   24  C   UNL     1     -11.266  10.881  68.003  1.00  0.00    -0.378 C  
BRANCH  18  25
HETATM   25  C   UNL     1      -8.856   8.831  70.711  1.00  0.00    -0.191 C  
BRANCH  25  26
HETATM   26  C   UNL     1      -7.344   9.067  70.559  1.00  0.00    -0.086 C  
BRANCH  26  27
HETATM   27  C   UNL     1      -6.646   8.070  69.644  1.00  0.00    -0.038 C  
BRANCH  27  28
HETATM   28  O   UNL     1      -6.052   8.696  68.516  1.00  0.00    -0.044 OA 
BRANCH  28  29
HETATM   29  C   UNL     1      -6.774   8.547  67.351  1.00  0.00    -0.063 A  
HETATM   30  C   UNL     1      -6.996   9.727  66.650  1.00  0.00    -0.085 A  
HETATM   31  C   UNL     1      -7.748   9.723  65.471  1.00  0.00    -0.121 A  
HETATM   32  C   UNL     1      -8.265   8.529  64.974  1.00  0.00    -0.160 A  
HETATM   33  C   UNL     1      -8.019   7.339  65.645  1.00  0.00    -0.123 A  
HETATM   34  C   UNL     1      -7.272   7.345  66.826  1.00  0.00    -0.087 A  
ENDBRANCH  28  29
ENDBRANCH  27  28
ENDBRANCH  26  27
ENDBRANCH  25  26
ENDBRANCH  18  25
ENDBRANCH  16  17
ENDBRANCH   6  16
TORSDOF 7
ENDMDL
MODEL       84
REMARK 921   NORMALIZED FREE ENERGY PREDICTED BY IDOCK:   -5.02 KCAL/MOL
REMARK 922        TOTAL FREE ENERGY PREDICTED BY IDOCK:   -8.72 KCAL/MOL
REMARK 923 INTER-LIGAND FREE ENERGY PREDICTED BY IDOCK:   -6.91 KCAL/MOL
REMARK 924 INTRA-LIGAND FREE ENERGY PREDICTED BY IDOCK:   -1.82 KCAL/MOL
REMARK 927      BINDING AFFINITY PREDICTED BY RF-SCORE:    0.00 PKD
ROOT
HETATM    1  O   UNL     1      -7.912  10.062  66.720  1.00  0.00    -0.112 OA 
HETATM    2  C   UNL     1      -8.552   9.151  65.815  1.00  0.00    -0.153 C  
HETATM    3  H   UNL     1      -7.235  10.526  66.242  1.00  0.00     0.000 HD 
HETATM    4  C   UNL     1      -7.471   8.156  65.375  1.00  0.00    -0.082 A  
HETATM    5  C   UNL     1      -9.069  10.009  64.662  1.00  0.00    -0.237 A  
HETATM    6  C   UNL     1      -9.674   8.382  66.608  1.00  0.00    -0.251 C  
HETATM    7  C   UNL     1      -6.264   6.192  64.460  1.00  0.00    -0.030 A  
HETATM    8  C   UNL     1      -6.110   8.186  65.637  1.00  0.00    -0.041 A  
HETATM    9  C   UNL     1      -8.486  10.232  63.421  1.00  0.00    -0.185 A  
HETATM   10  O   UNL     1     -10.862   8.665  66.708  1.00  0.00    -0.145 OA 
HETATM   11  C   UNL     1      -5.420   7.053  65.121  1.00  0.00    -0.028 A  
HETATM   12  C   UNL     1      -9.210  11.155  62.614  1.00  0.00    -0.357 A  
HETATM   13  S   UNL     1     -10.457  11.018  64.842  1.00  0.00    -0.275 SA 
HETATM   14  C   UNL     1     -10.319  11.642  63.263  1.00  0.00    -0.398 A  
HETATM   15  S   UNL     1      -7.870   6.772  64.417  1.00  0.00    -0.096 SA 
ENDROOT
BRANCH   6  16
HETATM   16  O   UNL     1      -9.154   7.313  67.295  1.00  0.00    -0.121 OA 
BRANCH  16  17
HETATM   17  C   UNL     1      -9.018   7.432  68.721  1.00  0.00    -0.129 C  
HETATM   18  N   UNL     1      -8.954   5.433  70.333  1.00  0.00    -0.131 N  
HETATM   19  C   UNL     1      -9.878   6.420  69.521  1.00  0.00    -0.154 C  
HETATM   20  C   UNL     1      -8.083   6.277  71.277  1.00  0.00    -0.118 C  
HETATM   21  C   UNL     1      -8.057   4.713  69.317  1.00  0.00    -0.069 C  
HETATM   22  C   UNL     1      -7.316   7.345  70.513  1.00  0.00    -0.076 C  
HETATM   23  C   UNL     1      -7.162   5.741  68.621  1.00  0.00    -0.082 C  
HETATM   24  C   UNL     1      -7.533   7.183  69.018  1.00  0.00    -0.094 C  
BRANCH  18  25
HETATM   25  C   UNL     1      -9.896   4.437  71.072  1.00  0.00    -0.190 C  
BRANCH  25  26
HETATM   26  C   UNL     1     -10.321   4.784  72.509  1.00  0.00    -0.259 C  
BRANCH  26  27
HETATM   27  C   UNL     1     -11.435   5.818  72.597  1.00  0.00    -0.287 C  
BRANCH  27  28
HETATM   28  O   UNL     1     -10.976   7.067  73.093  1.00  0.00    -0.295 OA 
BRANCH  28  29
HETATM   29  C   UNL     1     -11.433   8.153  72.379  1.00  0.00    -0.397 A  
HETATM   30  C   UNL     1     -12.808   8.352  72.442  1.00  0.00    -0.323 A  
HETATM   31  C   UNL     1     -13.409   9.395  71.731  1.00  0.00    -0.489 A  
HETATM   32  C   UNL     1     -12.630  10.263  70.968  1.00  0.00    -0.487 A  
HETATM   33  C   UNL     1     -11.252  10.097  70.927  1.00  0.00    -0.383 A  
HETATM   34  C   UNL     1     -10.654   9.050  71.634  1.00  0.00    -0.434 A  
ENDBRANCH  28  29
ENDBRANCH  27  28
ENDBRANCH  26  27
ENDBRANCH  25  26
ENDBRANCH  18  25
ENDBRANCH  16  17
ENDBRANCH   6  16
TORSDOF 7
ENDMDL
MODEL       85
REMARK 921   NORMALIZED FREE ENERGY PREDICTED BY IDOCK:   -4.97 KCAL/MOL
REMARK 922        TOTAL FREE ENERGY PREDICTED BY IDOCK:   -8.65 KCAL/MOL
REMARK 923 INTER-LIGAND FREE ENERGY PREDICTED BY IDOCK:   -7.27 KCAL/MOL
REMARK 924 INTRA-LIGAND FREE ENERGY PREDICTED BY IDOCK:   -1.39 KCAL/MOL
REMARK 927      BINDING AFFINITY PREDICTED BY RF-SCORE:    0.00 PKD
ROOT
HETATM    1  O   UNL     1     -11.719   6.688  68.756  1.00  0.00    -0.549 OA 
HETATM    2  C   UNL     1     -10.571   7.039  69.543  1.00  0.00    -0.234 C  
HETATM    3  H   UNL     1     -11.708   5.748  68.621  1.00  0.00     0.000 HD 
HETATM    4  C   UNL     1      -9.346   6.664  68.701  1.00  0.00    -0.129 A  
HETATM    5  C   UNL     1     -10.682   6.215  70.825  1.00  0.00    -0.266 A  
HETATM    6  C   UNL     1     -10.590   8.597  69.767  1.00  0.00    -0.224 C  
HETATM    7  C   UNL     1      -7.049   6.456  67.788  1.00  0.00    -0.085 A  
HETATM    8  C   UNL     1      -9.300   5.975  67.499  1.00  0.00    -0.113 A  
HETATM    9  C   UNL     1     -10.055   5.017  71.139  1.00  0.00    -0.293 A  
HETATM   10  O   UNL     1     -11.067   9.223  70.707  1.00  0.00    -0.244 OA 
HETATM   11  C   UNL     1      -7.984   5.867  66.970  1.00  0.00    -0.102 A  
HETATM   12  C   UNL     1     -10.449   4.486  72.400  1.00  0.00    -0.235 A  
HETATM   13  S   UNL     1     -11.819   6.618  72.059  1.00  0.00    -0.313 SA 
HETATM   14  C   UNL     1     -11.391   5.275  73.015  1.00  0.00    -0.309 A  
HETATM   15  S   UNL     1      -7.749   7.092  69.210  1.00  0.00    -0.110 SA 
ENDROOT
BRANCH   6  16
HETATM   16  O   UNL     1     -10.042   9.260  68.696  1.00  0.00    -0.176 OA 
BRANCH  16  17
HETATM   17  C   UNL     1     -10.452  10.619  68.466  1.00  0.00    -0.191 C  
HETATM   18  N   UNL     1      -9.128  12.299  67.043  1.00  0.00    -0.195 N  
HETATM   19  C   UNL     1      -9.282  11.636  68.466  1.00  0.00    -0.163 C  
HETATM   20  C   UNL     1     -10.457  12.993  66.705  1.00  0.00    -0.264 C  
HETATM   21  C   UNL     1      -8.873  11.166  66.040  1.00  0.00    -0.189 C  
HETATM   22  C   UNL     1     -11.626  12.027  66.806  1.00  0.00    -0.391 C  
HETATM   23  C   UNL     1     -10.092  10.242  66.007  1.00  0.00    -0.311 C  
HETATM   24  C   UNL     1     -11.125  10.619  67.086  1.00  0.00    -0.267 C  
BRANCH  18  25
HETATM   25  C   UNL     1      -7.916  13.273  67.128  1.00  0.00    -0.065 C  
BRANCH  25  26
HETATM   26  C   UNL     1      -7.213  13.428  68.487  1.00  0.00    -0.110 C  
BRANCH  26  27
HETATM   27  C   UNL     1      -6.897  14.868  68.865  1.00  0.00    -0.104 C  
BRANCH  27  28
HETATM   28  O   UNL     1      -7.846  15.408  69.774  1.00  0.00    -0.196 OA 
BRANCH  28  29
HETATM   29  C   UNL     1      -8.967  15.929  69.166  1.00  0.00    -0.256 A  
HETATM   30  C   UNL     1     -10.153  15.269  69.471  1.00  0.00    -0.261 A  
HETATM   31  C   UNL     1     -11.360  15.670  68.890  1.00  0.00    -0.341 A  
HETATM   32  C   UNL     1     -11.390  16.753  68.015  1.00  0.00     0.009 A  
HETATM   33  C   UNL     1     -10.219  17.443  67.731  1.00  0.00    -0.345 A  
HETATM   34  C   UNL     1      -9.013  17.038  68.308  1.00  0.00    -0.242 A  
ENDBRANCH  28  29
ENDBRANCH  27  28
ENDBRANCH  26  27
ENDBRANCH  25  26
ENDBRANCH  18  25
ENDBRANCH  16  17
ENDBRANCH   6  16
TORSDOF 7
ENDMDL
MODEL       86
REMARK 921   NORMALIZED FREE ENERGY PREDICTED BY IDOCK:   -4.96 KCAL/MOL
REMARK 922        TOTAL FREE ENERGY PREDICTED BY IDOCK:   -8.63 KCAL/MOL
REMARK 923 INTER-LIGAND FREE ENERGY PREDICTED BY IDOCK:   -7.13 KCAL/MOL
REMARK 924 INTRA-LIGAND FREE ENERGY PREDICTED BY IDOCK:   -1.50 KCAL/MOL
REMARK 927      BINDING AFFINITY PREDICTED BY RF-SCORE:    0.00 PKD
ROOT
HETATM    1  O   UNL     1      -8.806   8.319  64.750  1.00  0.00    -0.405 OA 
HETATM    2  C   UNL     1      -8.694   8.597  66.154  1.00  0.00    -0.156 C  
HETATM    3  H   UNL     1      -8.007   7.886  64.471  1.00  0.00     0.000 HD 
HETATM    4  C   UNL     1      -7.514   9.565  66.304  1.00  0.00    -0.097 A  
HETATM    5  C   UNL     1      -8.439   7.248  66.823  1.00  0.00    -0.121 A  
HETATM    6  C   UNL     1     -10.017   9.314  66.616  1.00  0.00    -0.264 C  
HETATM    7  C   UNL     1      -5.883  11.226  67.160  1.00  0.00    -0.082 A  
HETATM    8  C   UNL     1      -6.609   9.983  65.340  1.00  0.00    -0.110 A  
HETATM    9  C   UNL     1      -7.230   6.697  67.226  1.00  0.00    -0.085 A  
HETATM   10  O   UNL     1     -11.027   8.809  67.090  1.00  0.00    -0.105 OA 
HETATM   11  C   UNL     1      -5.681  10.945  65.829  1.00  0.00    -0.127 A  
HETATM   12  C   UNL     1      -7.356   5.378  67.748  1.00  0.00    -0.073 A  
HETATM   13  S   UNL     1      -9.701   6.086  67.016  1.00  0.00    -0.148 SA 
HETATM   14  C   UNL     1      -8.655   4.935  67.712  1.00  0.00    -0.103 A  
HETATM   15  S   UNL     1      -7.152  10.299  67.828  1.00  0.00    -0.086 SA 
ENDROOT
BRANCH   6  16
HETATM   16  O   UNL     1      -9.968  10.662  66.359  1.00  0.00    -0.206 OA 
BRANCH  16  17
HETATM   17  C   UNL     1     -11.210  11.385  66.324  1.00  0.00    -0.161 C  
HETATM   18  N   UNL     1     -11.398  13.935  66.573  1.00  0.00    -0.321 N  
HETATM   19  C   UNL     1     -11.282  12.559  67.334  1.00  0.00    -0.293 C  
HETATM   20  C   UNL     1     -12.664  13.883  65.703  1.00  0.00    -0.495 C  
HETATM   21  C   UNL     1     -10.163  14.060  65.670  1.00  0.00    -0.334 C  
HETATM   22  C   UNL     1     -12.652  12.673  64.782  1.00  0.00    -0.530 C  
HETATM   23  C   UNL     1     -10.185  12.936  64.632  1.00  0.00    -0.321 C  
HETATM   24  C   UNL     1     -11.328  11.936  64.896  1.00  0.00    -0.337 C  
BRANCH  18  25
HETATM   25  C   UNL     1     -11.429  15.051  67.658  1.00  0.00    -0.333 C  
BRANCH  25  26
HETATM   26  C   UNL     1     -10.729  16.382  67.339  1.00  0.00    -0.278 C  
BRANCH  26  27
HETATM   27  C   UNL     1     -10.074  17.047  68.543  1.00  0.00    -0.303 C  
BRANCH  27  28
HETATM   28  O   UNL     1      -9.233  16.155  69.261  1.00  0.00    -0.255 OA 
BRANCH  28  29
HETATM   29  C   UNL     1      -7.912  16.200  68.873  1.00  0.00    -0.223 A  
HETATM   30  C   UNL     1      -7.435  15.027  68.299  1.00  0.00    -0.107 A  
HETATM   31  C   UNL     1      -6.100  14.924  67.896  1.00  0.00    -0.169 A  
HETATM   32  C   UNL     1      -5.237  16.009  68.045  1.00  0.00    -0.127 A  
HETATM   33  C   UNL     1      -5.711  17.198  68.582  1.00  0.00    -0.143 A  
HETATM   34  C   UNL     1      -7.045  17.297  68.990  1.00  0.00    -0.233 A  
ENDBRANCH  28  29
ENDBRANCH  27  28
ENDBRANCH  26  27
ENDBRANCH  25  26
ENDBRANCH  18  25
ENDBRANCH  16  17
ENDBRANCH   6  16
TORSDOF 7
ENDMDL
MODEL       87
REMARK 921   NORMALIZED FREE ENERGY PREDICTED BY IDOCK:   -4.94 KCAL/MOL
REMARK 922        TOTAL FREE ENERGY PREDICTED BY IDOCK:   -8.61 KCAL/MOL
REMARK 923 INTER-LIGAND FREE ENERGY PREDICTED BY IDOCK:   -6.70 KCAL/MOL
REMARK 924 INTRA-LIGAND FREE ENERGY PREDICTED BY IDOCK:   -1.90 KCAL/MOL
REMARK 927      BINDING AFFINITY PREDICTED BY RF-SCORE:    0.00 PKD
ROOT
HETATM    1  O   UNL     1      -9.351  12.522  68.462  1.00  0.00    -0.330 OA 
HETATM    2  C   UNL     1     -10.077  11.521  67.732  1.00  0.00    -0.182 C  
HETATM    3  H   UNL     1      -8.744  12.941  67.863  1.00  0.00     0.000 HD 
HETATM    4  C   UNL     1      -9.037  10.495  67.266  1.00  0.00    -0.143 A  
HETATM    5  C   UNL     1     -10.742  12.258  66.571  1.00  0.00    -0.246 A  
HETATM    6  C   UNL     1     -11.083  10.826  68.724  1.00  0.00    -0.259 C  
HETATM    7  C   UNL     1      -7.910   8.459  66.408  1.00  0.00    -0.098 A  
HETATM    8  C   UNL     1      -7.655  10.560  67.359  1.00  0.00    -0.094 A  
HETATM    9  C   UNL     1     -10.313  12.360  65.253  1.00  0.00    -0.308 A  
HETATM   10  O   UNL     1     -12.256  11.110  68.937  1.00  0.00    -0.522 OA 
HETATM   11  C   UNL     1      -7.009   9.387  66.878  1.00  0.00    -0.081 A  
HETATM   12  C   UNL     1     -11.144  13.194  64.453  1.00  0.00    -0.407 A  
HETATM   13  S   UNL     1     -12.117  13.269  66.816  1.00  0.00    -0.294 SA 
HETATM   14  C   UNL     1     -12.178  13.735  65.178  1.00  0.00    -0.431 A  
HETATM   15  S   UNL     1      -9.520   9.020  66.501  1.00  0.00    -0.227 SA 
ENDROOT
BRANCH   6  16
HETATM   16  O   UNL     1     -10.465   9.834  69.445  1.00  0.00    -0.199 OA 
BRANCH  16  17
HETATM   17  C   UNL     1     -11.298   8.884  70.131  1.00  0.00    -0.106 C  
HETATM   18  N   UNL     1     -10.469   6.619  71.015  1.00  0.00    -0.211 N  
HETATM   19  C   UNL     1     -11.004   7.408  69.758  1.00  0.00    -0.200 C  
HETATM   20  C   UNL     1     -11.543   6.704  72.112  1.00  0.00    -0.298 C  
HETATM   21  C   UNL     1      -9.196   7.332  71.490  1.00  0.00    -0.144 C  
HETATM   22  C   UNL     1     -11.916   8.147  72.409  1.00  0.00    -0.431 C  
HETATM   23  C   UNL     1      -9.552   8.752  71.934  1.00  0.00    -0.372 C  
HETATM   24  C   UNL     1     -11.023   9.095  71.626  1.00  0.00    -0.445 C  
BRANCH  18  25
HETATM   25  C   UNL     1     -10.170   5.165  70.542  1.00  0.00    -0.260 C  
BRANCH  25  26
HETATM   26  C   UNL     1      -8.846   4.524  70.990  1.00  0.00    -0.151 C  
BRANCH  26  27
HETATM   27  C   UNL     1      -7.845   4.310  69.864  1.00  0.00    -0.052 C  
BRANCH  27  28
HETATM   28  O   UNL     1      -6.500   4.425  70.307  1.00  0.00    -0.029 OA 
BRANCH  28  29
HETATM   29  C   UNL     1      -6.134   5.708  70.651  1.00  0.00    -0.030 A  
HETATM   30  C   UNL     1      -5.699   5.857  71.963  1.00  0.00    -0.030 A  
HETATM   31  C   UNL     1      -5.335   7.114  72.454  1.00  0.00    -0.037 A  
HETATM   32  C   UNL     1      -5.382   8.231  71.622  1.00  0.00    -0.034 A  
HETATM   33  C   UNL     1      -5.778   8.089  70.299  1.00  0.00    -0.022 A  
HETATM   34  C   UNL     1      -6.148   6.832  69.812  1.00  0.00    -0.027 A  
ENDBRANCH  28  29
ENDBRANCH  27  28
ENDBRANCH  26  27
ENDBRANCH  25  26
ENDBRANCH  18  25
ENDBRANCH  16  17
ENDBRANCH   6  16
TORSDOF 7
ENDMDL
MODEL       88
REMARK 921   NORMALIZED FREE ENERGY PREDICTED BY IDOCK:   -4.91 KCAL/MOL
REMARK 922        TOTAL FREE ENERGY PREDICTED BY IDOCK:   -8.56 KCAL/MOL
REMARK 923 INTER-LIGAND FREE ENERGY PREDICTED BY IDOCK:   -7.13 KCAL/MOL
REMARK 924 INTRA-LIGAND FREE ENERGY PREDICTED BY IDOCK:   -1.43 KCAL/MOL
REMARK 927      BINDING AFFINITY PREDICTED BY RF-SCORE:    0.00 PKD
ROOT
HETATM    1  O   UNL     1      -8.198  15.386  66.186  1.00  0.00    -0.298 OA 
HETATM    2  C   UNL     1      -9.384  15.431  66.993  1.00  0.00    -0.224 C  
HETATM    3  H   UNL     1      -8.359  15.889  65.396  1.00  0.00     0.000 HD 
HETATM    4  C   UNL     1     -10.484  14.746  66.172  1.00  0.00    -0.304 A  
HETATM    5  C   UNL     1      -9.663  16.913  67.235  1.00  0.00    -0.251 A  
HETATM    6  C   UNL     1      -9.116  14.596  68.301  1.00  0.00    -0.189 C  
HETATM    7  C   UNL     1     -12.575  13.625  65.448  1.00  0.00    -0.491 A  
HETATM    8  C   UNL     1     -10.438  14.309  64.857  1.00  0.00    -0.454 A  
HETATM    9  C   UNL     1     -10.549  17.746  66.565  1.00  0.00    -0.220 A  
HETATM   10  O   UNL     1      -8.711  14.995  69.386  1.00  0.00    -0.189 OA 
HETATM   11  C   UNL     1     -11.633  13.656  64.447  1.00  0.00    -0.421 A  
HETATM   12  C   UNL     1     -10.495  19.099  67.006  1.00  0.00    -0.530 A  
HETATM   13  S   UNL     1      -8.714  17.839  68.339  1.00  0.00    -0.291 SA 
HETATM   14  C   UNL     1      -9.551  19.281  67.987  1.00  0.00    -0.340 A  
HETATM   15  S   UNL     1     -12.039  14.424  66.859  1.00  0.00    -0.254 SA 
ENDROOT
BRANCH   6  16
HETATM   16  O   UNL     1      -9.328  13.256  68.088  1.00  0.00    -0.211 OA 
BRANCH  16  17
HETATM   17  C   UNL     1      -8.183  12.430  67.816  1.00  0.00    -0.163 C  
HETATM   18  N   UNL     1      -7.705  10.200  68.999  1.00  0.00    -0.091 N  
HETATM   19  C   UNL     1      -7.572  11.769  69.079  1.00  0.00     0.004 C  
HETATM   20  C   UNL     1      -6.975   9.733  67.729  1.00  0.00    -0.086 C  
HETATM   21  C   UNL     1      -9.201   9.877  68.877  1.00  0.00    -0.160 C  
HETATM   22  C   UNL     1      -7.495  10.455  66.497  1.00  0.00    -0.119 C  
HETATM   23  C   UNL     1      -9.736  10.469  67.571  1.00  0.00    -0.190 C  
HETATM   24  C   UNL     1      -8.679  11.336  66.861  1.00  0.00    -0.157 C  
BRANCH  18  25
HETATM   25  C   UNL     1      -7.101   9.627  70.315  1.00  0.00    -0.127 C  
BRANCH  25  26
HETATM   26  C   UNL     1      -8.025   8.811  71.233  1.00  0.00    -0.176 C  
BRANCH  26  27
HETATM   27  C   UNL     1      -7.602   7.360  71.414  1.00  0.00    -0.082 C  
BRANCH  27  28
HETATM   28  O   UNL     1      -7.138   6.778  70.205  1.00  0.00    -0.067 OA 
BRANCH  28  29
HETATM   29  C   UNL     1      -8.146   6.396  69.347  1.00  0.00    -0.118 A  
HETATM   30  C   UNL     1      -9.238   5.795  69.964  1.00  0.00    -0.168 A  
HETATM   31  C   UNL     1     -10.314   5.326  69.205  1.00  0.00    -0.286 A  
HETATM   32  C   UNL     1     -10.314   5.477  67.820  1.00  0.00    -0.246 A  
HETATM   33  C   UNL     1      -9.247   6.108  67.196  1.00  0.00    -0.120 A  
HETATM   34  C   UNL     1      -8.169   6.572  67.955  1.00  0.00    -0.116 A  
ENDBRANCH  28  29
ENDBRANCH  27  28
ENDBRANCH  26  27
ENDBRANCH  25  26
ENDBRANCH  18  25
ENDBRANCH  16  17
ENDBRANCH   6  16
TORSDOF 7
ENDMDL
MODEL       89
REMARK 921   NORMALIZED FREE ENERGY PREDICTED BY IDOCK:   -4.89 KCAL/MOL
REMARK 922        TOTAL FREE ENERGY PREDICTED BY IDOCK:   -8.54 KCAL/MOL
REMARK 923 INTER-LIGAND FREE ENERGY PREDICTED BY IDOCK:   -7.47 KCAL/MOL
REMARK 924 INTRA-LIGAND FREE ENERGY PREDICTED BY IDOCK:   -1.08 KCAL/MOL
REMARK 927      BINDING AFFINITY PREDICTED BY RF-SCORE:    0.00 PKD
ROOT
HETATM    1  O   UNL     1      -8.908  18.083  68.715  1.00  0.00    -0.282 OA 
HETATM    2  C   UNL     1      -8.183  17.369  67.702  1.00  0.00    -0.206 C  
HETATM    3  H   UNL     1      -8.278  18.464  69.315  1.00  0.00     0.000 HD 
HETATM    4  C   UNL     1      -7.432  16.246  68.427  1.00  0.00    -0.163 A  
HETATM    5  C   UNL     1      -7.246  18.394  67.067  1.00  0.00    -0.203 A  
HETATM    6  C   UNL     1      -9.228  16.737  66.708  1.00  0.00    -0.243 C  
HETATM    7  C   UNL     1      -6.155  14.189  68.967  1.00  0.00    -0.093 A  
HETATM    8  C   UNL     1      -7.311  16.026  69.791  1.00  0.00     0.094 A  
HETATM    9  C   UNL     1      -5.900  18.616  67.333  1.00  0.00    -0.159 A  
HETATM   10  O   UNL     1      -9.659  17.207  65.661  1.00  0.00    -0.535 OA 
HETATM   11  C   UNL     1      -6.589  14.839  70.100  1.00  0.00    -0.145 A  
HETATM   12  C   UNL     1      -5.354  19.710  66.604  1.00  0.00    -0.163 A  
HETATM   13  S   UNL     1      -7.832  19.603  65.985  1.00  0.00    -0.283 SA 
HETATM   14  C   UNL     1      -6.297  20.322  65.814  1.00  0.00    -0.223 A  
HETATM   15  S   UNL     1      -6.574  15.032  67.542  1.00  0.00    -0.045 SA 
ENDROOT
BRANCH   6  16
HETATM   16  O   UNL     1      -9.710  15.544  67.185  1.00  0.00    -0.219 OA 
BRANCH  16  17
HETATM   17  C   UNL     1     -10.370  14.666  66.257  1.00  0.00    -0.294 C  
HETATM   18  N   UNL     1     -10.979  12.224  66.771  1.00  0.00    -0.263 N  
HETATM   19  C   UNL     1      -9.844  13.208  66.289  1.00  0.00    -0.283 C  
HETATM   20  C   UNL     1     -12.159  12.359  65.795  1.00  0.00    -0.311 C  
HETATM   21  C   UNL     1     -11.415  12.683  68.168  1.00  0.00    -0.313 C  
HETATM   22  C   UNL     1     -12.614  13.804  65.675  1.00  0.00    -0.551 C  
HETATM   23  C   UNL     1     -12.012  14.089  68.070  1.00  0.00    -0.386 C  
HETATM   24  C   UNL     1     -11.852  14.680  66.656  1.00  0.00    -0.325 C  
BRANCH  18  25
HETATM   25  C   UNL     1     -10.355  10.797  66.805  1.00  0.00    -0.243 C  
BRANCH  25  26
HETATM   26  C   UNL     1      -9.000  10.590  66.107  1.00  0.00    -0.178 C  
BRANCH  26  27
HETATM   27  C   UNL     1      -8.683   9.137  65.780  1.00  0.00    -0.165 C  
BRANCH  27  28
HETATM   28  O   UNL     1      -8.106   8.449  66.881  1.00  0.00    -0.098 OA 
BRANCH  28  29
HETATM   29  C   UNL     1      -8.649   7.204  67.107  1.00  0.00    -0.121 A  
HETATM   30  C   UNL     1     -10.038   7.177  67.162  1.00  0.00    -0.293 A  
HETATM   31  C   UNL     1     -10.717   5.983  67.424  1.00  0.00    -0.393 A  
HETATM   32  C   UNL     1     -10.006   4.800  67.611  1.00  0.00    -0.178 A  
HETATM   33  C   UNL     1      -8.621   4.806  67.523  1.00  0.00    -0.104 A  
HETATM   34  C   UNL     1      -7.944   6.002  67.266  1.00  0.00    -0.102 A  
ENDBRANCH  28  29
ENDBRANCH  27  28
ENDBRANCH  26  27
ENDBRANCH  25  26
ENDBRANCH  18  25
ENDBRANCH  16  17
ENDBRANCH   6  16
TORSDOF 7
ENDMDL
MODEL       90
REMARK 921   NORMALIZED FREE ENERGY PREDICTED BY IDOCK:   -4.89 KCAL/MOL
REMARK 922        TOTAL FREE ENERGY PREDICTED BY IDOCK:   -8.53 KCAL/MOL
REMARK 923 INTER-LIGAND FREE ENERGY PREDICTED BY IDOCK:   -7.30 KCAL/MOL
REMARK 924 INTRA-LIGAND FREE ENERGY PREDICTED BY IDOCK:   -1.24 KCAL/MOL
REMARK 927      BINDING AFFINITY PREDICTED BY RF-SCORE:    0.00 PKD
ROOT
HETATM    1  O   UNL     1      -8.962  12.407  68.796  1.00  0.00    -0.381 OA 
HETATM    2  C   UNL     1     -10.221  12.358  68.107  1.00  0.00    -0.225 C  
HETATM    3  H   UNL     1      -8.952  13.189  69.336  1.00  0.00     0.000 HD 
HETATM    4  C   UNL     1     -10.260  13.596  67.203  1.00  0.00    -0.244 A  
HETATM    5  C   UNL     1     -11.290  12.388  69.197  1.00  0.00    -0.269 A  
HETATM    6  C   UNL     1     -10.237  11.062  67.213  1.00  0.00    -0.199 C  
HETATM    7  C   UNL     1     -10.830  15.254  65.449  1.00  0.00    -0.387 A  
HETATM    8  C   UNL     1      -9.369  14.658  67.150  1.00  0.00    -0.231 A  
HETATM    9  C   UNL     1     -12.021  13.474  69.661  1.00  0.00    -0.397 A  
HETATM   10  O   UNL     1     -10.676   9.953  67.493  1.00  0.00    -0.258 OA 
HETATM   11  C   UNL     1      -9.690  15.602  66.135  1.00  0.00    -0.348 A  
HETATM   12  C   UNL     1     -12.884  13.151  70.747  1.00  0.00    -0.169 A  
HETATM   13  S   UNL     1     -11.618  11.004  70.175  1.00  0.00    -0.327 SA 
HETATM   14  C   UNL     1     -12.777  11.830  71.111  1.00  0.00    -0.305 A  
HETATM   15  S   UNL     1     -11.536  13.824  66.057  1.00  0.00    -0.362 SA 
ENDROOT
BRANCH   6  16
HETATM   16  O   UNL     1      -9.604  11.277  66.014  1.00  0.00    -0.203 OA 
BRANCH  16  17
HETATM   17  C   UNL     1      -8.204  10.960  65.927  1.00  0.00    -0.133 C  
HETATM   18  N   UNL     1      -7.224   8.634  66.406  1.00  0.00    -0.079 N  
HETATM   19  C   UNL     1      -7.709   9.995  67.036  1.00  0.00    -0.095 C  
HETATM   20  C   UNL     1      -6.094   8.954  65.415  1.00  0.00    -0.055 C  
HETATM   21  C   UNL     1      -8.416   8.035  65.647  1.00  0.00    -0.149 C  
HETATM   22  C   UNL     1      -6.537   9.981  64.385  1.00  0.00    -0.130 C  
HETATM   23  C   UNL     1      -8.808   8.977  64.506  1.00  0.00    -0.123 C  
HETATM   24  C   UNL     1      -8.014  10.296  64.556  1.00  0.00    -0.133 C  
BRANCH  18  25
HETATM   25  C   UNL     1      -6.781   7.722  67.588  1.00  0.00    -0.068 C  
BRANCH  25  26
HETATM   26  C   UNL     1      -7.806   6.720  68.145  1.00  0.00    -0.113 C  
BRANCH  26  27
HETATM   27  C   UNL     1      -7.836   6.639  69.665  1.00  0.00    -0.115 C  
BRANCH  27  28
HETATM   28  O   UNL     1      -8.282   7.848  70.262  1.00  0.00    -0.119 OA 
BRANCH  28  29
HETATM   29  C   UNL     1      -9.514   7.749  70.871  1.00  0.00    -0.160 A  
HETATM   30  C   UNL     1      -9.618   8.419  72.085  1.00  0.00    -0.367 A  
HETATM   31  C   UNL     1     -10.802   8.367  72.826  1.00  0.00    -0.195 A  
HETATM   32  C   UNL     1     -11.901   7.659  72.343  1.00  0.00    -0.336 A  
HETATM   33  C   UNL     1     -11.822   7.017  71.115  1.00  0.00    -0.380 A  
HETATM   34  C   UNL     1     -10.635   7.065  70.378  1.00  0.00    -0.244 A  
ENDBRANCH  28  29
ENDBRANCH  27  28
ENDBRANCH  26  27
ENDBRANCH  25  26
ENDBRANCH  18  25
ENDBRANCH  16  17
ENDBRANCH   6  16
TORSDOF 7
ENDMDL
MODEL       91
REMARK 921   NORMALIZED FREE ENERGY PREDICTED BY IDOCK:   -4.86 KCAL/MOL
REMARK 922        TOTAL FREE ENERGY PREDICTED BY IDOCK:   -8.50 KCAL/MOL
REMARK 923 INTER-LIGAND FREE ENERGY PREDICTED BY IDOCK:   -6.46 KCAL/MOL
REMARK 924 INTRA-LIGAND FREE ENERGY PREDICTED BY IDOCK:   -2.04 KCAL/MOL
REMARK 927      BINDING AFFINITY PREDICTED BY RF-SCORE:    0.00 PKD
ROOT
HETATM    1  O   UNL     1     -10.167  12.957  69.017  1.00  0.00    -0.431 OA 
HETATM    2  C   UNL     1      -9.871  12.353  67.749  1.00  0.00    -0.203 C  
HETATM    3  H   UNL     1      -9.774  13.822  69.030  1.00  0.00     0.000 HD 
HETATM    4  C   UNL     1      -8.345  12.215  67.688  1.00  0.00    -0.163 A  
HETATM    5  C   UNL     1     -10.420  13.312  66.695  1.00  0.00    -0.279 A  
HETATM    6  C   UNL     1     -10.522  10.919  67.727  1.00  0.00    -0.203 C  
HETATM    7  C   UNL     1      -6.028  11.570  67.081  1.00  0.00    -0.111 A  
HETATM    8  C   UNL     1      -7.395  12.708  68.571  1.00  0.00    -0.115 A  
HETATM    9  C   UNL     1      -9.738  14.276  65.964  1.00  0.00    -0.312 A  
HETATM   10  O   UNL     1     -11.623  10.593  67.300  1.00  0.00    -0.392 OA 
HETATM   11  C   UNL     1      -6.068  12.327  68.228  1.00  0.00    -0.054 A  
HETATM   12  C   UNL     1     -10.584  15.048  65.119  1.00  0.00    -0.440 A  
HETATM   13  S   UNL     1     -12.113  13.442  66.391  1.00  0.00    -0.388 SA 
HETATM   14  C   UNL     1     -11.902  14.680  65.240  1.00  0.00    -0.324 A  
HETATM   15  S   UNL     1      -7.577  11.362  66.393  1.00  0.00     0.047 SA 
ENDROOT
BRANCH   6  16
HETATM   16  O   UNL     1      -9.713   9.996  68.342  1.00  0.00    -0.142 OA 
BRANCH  16  17
HETATM   17  C   UNL     1     -10.219   9.332  69.512  1.00  0.00    -0.207 C  
HETATM   18  N   UNL     1      -9.748   6.873  70.089  1.00  0.00    -0.171 N  
HETATM   19  C   UNL     1     -10.655   7.865  69.263  1.00  0.00    -0.188 C  
HETATM   20  C   UNL     1      -9.886   7.241  71.575  1.00  0.00    -0.174 C  
HETATM   21  C   UNL     1      -8.299   7.102  69.638  1.00  0.00    -0.133 C  
HETATM   22  C   UNL     1      -9.563   8.707  71.813  1.00  0.00    -0.360 C  
HETATM   23  C   UNL     1      -7.884   8.532  69.989  1.00  0.00    -0.102 C  
HETATM   24  C   UNL     1      -9.070   9.354  70.530  1.00  0.00    -0.308 C  
BRANCH  18  25
HETATM   25  C   UNL     1     -10.233   5.432  69.752  1.00  0.00    -0.278 C  
BRANCH  25  26
HETATM   26  C   UNL     1      -9.180   4.409  69.295  1.00  0.00    -0.203 C  
BRANCH  26  27
HETATM   27  C   UNL     1      -9.443   3.816  67.918  1.00  0.00    -0.170 C  
BRANCH  27  28
HETATM   28  O   UNL     1      -8.341   3.983  67.037  1.00  0.00    -0.099 OA 
BRANCH  28  29
HETATM   29  C   UNL     1      -8.178   5.276  66.589  1.00  0.00    -0.108 A  
HETATM   30  C   UNL     1      -6.857   5.701  66.511  1.00  0.00    -0.059 A  
HETATM   31  C   UNL     1      -6.552   7.005  66.108  1.00  0.00    -0.052 A  
HETATM   32  C   UNL     1      -7.572   7.887  65.757  1.00  0.00    -0.083 A  
HETATM   33  C   UNL     1      -8.893   7.462  65.795  1.00  0.00    -0.106 A  
HETATM   34  C   UNL     1      -9.196   6.160  66.203  1.00  0.00    -0.150 A  
ENDBRANCH  28  29
ENDBRANCH  27  28
ENDBRANCH  26  27
ENDBRANCH  25  26
ENDBRANCH  18  25
ENDBRANCH  16  17
ENDBRANCH   6  16
TORSDOF 7
ENDMDL
MODEL       92
REMARK 921   NORMALIZED FREE ENERGY PREDICTED BY IDOCK:   -4.85 KCAL/MOL
REMARK 922        TOTAL FREE ENERGY PREDICTED BY IDOCK:   -8.49 KCAL/MOL
REMARK 923 INTER-LIGAND FREE ENERGY PREDICTED BY IDOCK:   -7.52 KCAL/MOL
REMARK 924 INTRA-LIGAND FREE ENERGY PREDICTED BY IDOCK:   -0.97 KCAL/MOL
REMARK 927      BINDING AFFINITY PREDICTED BY RF-SCORE:    0.00 PKD
ROOT
HETATM    1  O   UNL     1     -10.937  16.688  68.179  1.00  0.00    -0.352 OA 
HETATM    2  C   UNL     1      -9.795  16.944  67.348  1.00  0.00    -0.261 C  
HETATM    3  H   UNL     1     -10.754  17.032  69.046  1.00  0.00     0.000 HD 
HETATM    4  C   UNL     1      -8.632  16.160  67.968  1.00  0.00    -0.171 A  
HETATM    5  C   UNL     1      -9.581  18.456  67.396  1.00  0.00    -0.286 A  
HETATM    6  C   UNL     1     -10.099  16.374  65.912  1.00  0.00    -0.347 C  
HETATM    7  C   UNL     1      -6.470  15.011  68.364  1.00  0.00    -0.104 A  
HETATM    8  C   UNL     1      -8.597  15.470  69.170  1.00  0.00    -0.246 A  
HETATM    9  C   UNL     1      -8.691  19.178  68.181  1.00  0.00    -0.360 A  
HETATM   10  O   UNL     1     -10.572  16.963  64.947  1.00  0.00    -0.702 OA 
HETATM   11  C   UNL     1      -7.360  14.801  69.390  1.00  0.00    -0.162 A  
HETATM   12  C   UNL     1      -8.814  20.588  68.022  1.00  0.00    -0.002 A  
HETATM   13  S   UNL     1     -10.615  19.540  66.541  1.00  0.00    -0.464 SA 
HETATM   14  C   UNL     1      -9.812  20.919  67.138  1.00  0.00    -0.122 A  
HETATM   15  S   UNL     1      -7.104  16.049  67.165  1.00  0.00    -0.197 SA 
ENDROOT
BRANCH   6  16
HETATM   16  O   UNL     1      -9.831  15.029  65.844  1.00  0.00    -0.297 OA 
BRANCH  16  17
HETATM   17  C   UNL     1     -10.537  14.253  64.862  1.00  0.00    -0.431 C  
HETATM   18  N   UNL     1     -10.908  11.716  65.029  1.00  0.00    -0.294 N  
HETATM   19  C   UNL     1      -9.912  12.859  64.595  1.00  0.00    -0.129 C  
HETATM   20  C   UNL     1     -12.205  11.897  64.225  1.00  0.00    -0.233 C  
HETATM   21  C   UNL     1     -11.201  11.912  66.523  1.00  0.00    -0.327 C  
HETATM   22  C   UNL     1     -12.770  13.298  64.396  1.00  0.00    -0.188 C  
HETATM   23  C   UNL     1     -11.901  13.258  66.724  1.00  0.00    -0.448 C  
HETATM   24  C   UNL     1     -11.956  14.074  65.418  1.00  0.00    -0.386 C  
BRANCH  18  25
HETATM   25  C   UNL     1     -10.187  10.362  64.759  1.00  0.00    -0.249 C  
BRANCH  25  26
HETATM   26  C   UNL     1      -8.950  10.026  65.609  1.00  0.00    -0.203 C  
BRANCH  26  27
HETATM   27  C   UNL     1      -8.992   8.647  66.252  1.00  0.00    -0.173 C  
BRANCH  27  28
HETATM   28  O   UNL     1      -7.744   8.278  66.822  1.00  0.00    -0.092 OA 
BRANCH  28  29
HETATM   29  C   UNL     1      -7.210   7.122  66.297  1.00  0.00    -0.075 A  
HETATM   30  C   UNL     1      -7.027   6.096  67.218  1.00  0.00    -0.069 A  
HETATM   31  C   UNL     1      -6.458   4.881  66.825  1.00  0.00    -0.041 A  
HETATM   32  C   UNL     1      -6.088   4.677  65.497  1.00  0.00    -0.026 A  
HETATM   33  C   UNL     1      -6.300   5.680  64.561  1.00  0.00    -0.033 A  
HETATM   34  C   UNL     1      -6.864   6.896  64.956  1.00  0.00    -0.051 A  
ENDBRANCH  28  29
ENDBRANCH  27  28
ENDBRANCH  26  27
ENDBRANCH  25  26
ENDBRANCH  18  25
ENDBRANCH  16  17
ENDBRANCH   6  16
TORSDOF 7
ENDMDL
MODEL       93
REMARK 921   NORMALIZED FREE ENERGY PREDICTED BY IDOCK:   -4.85 KCAL/MOL
REMARK 922        TOTAL FREE ENERGY PREDICTED BY IDOCK:   -8.49 KCAL/MOL
REMARK 923 INTER-LIGAND FREE ENERGY PREDICTED BY IDOCK:   -7.61 KCAL/MOL
REMARK 924 INTRA-LIGAND FREE ENERGY PREDICTED BY IDOCK:   -0.88 KCAL/MOL
REMARK 927      BINDING AFFINITY PREDICTED BY RF-SCORE:    0.00 PKD
ROOT
HETATM    1  O   UNL     1     -12.779  10.572  68.800  1.00  0.00    -0.387 OA 
HETATM    2  C   UNL     1     -11.777  10.755  69.812  1.00  0.00    -0.324 C  
HETATM    3  H   UNL     1     -13.616  10.450  69.233  1.00  0.00     0.000 HD 
HETATM    4  C   UNL     1     -11.743   9.452  70.619  1.00  0.00    -0.240 A  
HETATM    5  C   UNL     1     -12.241  11.951  70.641  1.00  0.00    -0.331 A  
HETATM    6  C   UNL     1     -10.390  10.958  69.094  1.00  0.00    -0.208 C  
HETATM    7  C   UNL     1     -11.097   7.600  72.138  1.00  0.00    -0.267 A  
HETATM    8  C   UNL     1     -12.594   8.360  70.536  1.00  0.00     0.502 A  
HETATM    9  C   UNL     1     -12.919  11.952  71.853  1.00  0.00    -0.434 A  
HETATM   10  O   UNL     1      -9.848  12.010  68.775  1.00  0.00    -0.158 OA 
HETATM   11  C   UNL     1     -12.216   7.294  71.399  1.00  0.00    -0.384 A  
HETATM   12  C   UNL     1     -13.263  13.257  72.307  1.00  0.00    -0.567 A  
HETATM   13  S   UNL     1     -12.121  13.564  70.040  1.00  0.00    -0.314 SA 
HETATM   14  C   UNL     1     -12.865  14.229  71.421  1.00  0.00    -0.344 A  
HETATM   15  S   UNL     1     -10.536   9.183  71.829  1.00  0.00    -0.173 SA 
ENDROOT
BRANCH   6  16
HETATM   16  O   UNL     1      -9.819   9.753  68.765  1.00  0.00    -0.160 OA 
BRANCH  16  17
HETATM   17  C   UNL     1      -9.947   9.299  67.407  1.00  0.00    -0.199 C  
HETATM   18  N   UNL     1      -9.528  10.779  65.350  1.00  0.00    -0.201 N  
HETATM   19  C   UNL     1     -10.572  10.347  66.450  1.00  0.00    -0.127 C  
HETATM   20  C   UNL     1      -9.110   9.516  64.580  1.00  0.00    -0.210 C  
HETATM   21  C   UNL     1      -8.310  11.359  66.082  1.00  0.00    -0.071 C  
HETATM   22  C   UNL     1      -8.594   8.441  65.523  1.00  0.00    -0.201 C  
HETATM   23  C   UNL     1      -7.673  10.263  66.940  1.00  0.00    -0.105 C  
HETATM   24  C   UNL     1      -8.519   8.976  66.944  1.00  0.00    -0.120 C  
BRANCH  18  25
HETATM   25  C   UNL     1     -10.227  11.851  64.461  1.00  0.00    -0.282 C  
BRANCH  25  26
HETATM   26  C   UNL     1     -10.128  13.321  64.900  1.00  0.00    -0.247 C  
BRANCH  26  27
HETATM   27  C   UNL     1     -11.472  13.985  65.166  1.00  0.00    -0.328 C  
BRANCH  27  28
HETATM   28  O   UNL     1     -11.517  14.626  66.433  1.00  0.00    -0.349 OA 
BRANCH  28  29
HETATM   29  C   UNL     1     -10.645  15.686  66.552  1.00  0.00    -0.307 A  
HETATM   30  C   UNL     1      -9.711  15.559  67.574  1.00  0.00    -0.215 A  
HETATM   31  C   UNL     1      -8.792  16.581  67.830  1.00  0.00    -0.197 A  
HETATM   32  C   UNL     1      -8.789  17.733  67.045  1.00  0.00    -0.260 A  
HETATM   33  C   UNL     1      -9.693  17.856  65.999  1.00  0.00    -0.142 A  
HETATM   34  C   UNL     1     -10.615  16.835  65.748  1.00  0.00    -0.259 A  
ENDBRANCH  28  29
ENDBRANCH  27  28
ENDBRANCH  26  27
ENDBRANCH  25  26
ENDBRANCH  18  25
ENDBRANCH  16  17
ENDBRANCH   6  16
TORSDOF 7
ENDMDL
MODEL       94
REMARK 921   NORMALIZED FREE ENERGY PREDICTED BY IDOCK:   -4.84 KCAL/MOL
REMARK 922        TOTAL FREE ENERGY PREDICTED BY IDOCK:   -8.47 KCAL/MOL
REMARK 923 INTER-LIGAND FREE ENERGY PREDICTED BY IDOCK:   -7.21 KCAL/MOL
REMARK 924 INTRA-LIGAND FREE ENERGY PREDICTED BY IDOCK:   -1.26 KCAL/MOL
REMARK 927      BINDING AFFINITY PREDICTED BY RF-SCORE:    0.00 PKD
ROOT
HETATM    1  O   UNL     1      -8.684   6.222  72.366  1.00  0.00    -0.122 OA 
HETATM    2  C   UNL     1      -9.828   5.777  71.622  1.00  0.00    -0.167 C  
HETATM    3  H   UNL     1      -8.905   6.196  73.290  1.00  0.00     0.000 HD 
HETATM    4  C   UNL     1     -10.942   6.793  71.904  1.00  0.00    -0.239 A  
HETATM    5  C   UNL     1     -10.150   4.383  72.154  1.00  0.00    -0.195 A  
HETATM    6  C   UNL     1      -9.461   5.822  70.091  1.00  0.00    -0.160 C  
HETATM    7  C   UNL     1     -13.023   8.139  71.818  1.00  0.00    -0.342 A  
HETATM    8  C   UNL     1     -10.947   7.842  72.811  1.00  0.00    -0.456 A  
HETATM    9  C   UNL     1     -11.101   4.016  73.099  1.00  0.00    -0.242 A  
HETATM   10  O   UNL     1      -9.016   4.919  69.391  1.00  0.00    -0.092 OA 
HETATM   11  C   UNL     1     -12.136   8.621  72.752  1.00  0.00    -0.095 A  
HETATM   12  C   UNL     1     -11.076   2.629  73.416  1.00  0.00    -0.288 A  
HETATM   13  S   UNL     1      -9.182   3.015  71.743  1.00  0.00    -0.125 SA 
HETATM   14  C   UNL     1     -10.090   1.964  72.728  1.00  0.00    -0.123 A  
HETATM   15  S   UNL     1     -12.446   6.727  71.052  1.00  0.00    -0.137 SA 
ENDROOT
BRANCH   6  16
HETATM   16  O   UNL     1      -9.632   7.082  69.574  1.00  0.00    -0.154 OA 
BRANCH  16  17
HETATM   17  C   UNL     1      -8.573   7.628  68.770  1.00  0.00    -0.129 C  
HETATM   18  N   UNL     1      -8.339  10.123  68.200  1.00  0.00    -0.116 N  
HETATM   19  C   UNL     1      -9.030   8.759  67.813  1.00  0.00    -0.135 C  
HETATM   20  C   UNL     1      -6.818   9.916  68.116  1.00  0.00    -0.064 C  
HETATM   21  C   UNL     1      -8.733  10.435  69.650  1.00  0.00    -0.035 C  
HETATM   22  C   UNL     1      -6.373   8.739  68.970  1.00  0.00    -0.044 C  
HETATM   23  C   UNL     1      -8.180   9.341  70.567  1.00  0.00    -0.219 C  
HETATM   24  C   UNL     1      -7.546   8.189  69.764  1.00  0.00    -0.090 C  
BRANCH  18  25
HETATM   25  C   UNL     1      -8.880  11.200  67.214  1.00  0.00    -0.144 C  
BRANCH  25  26
HETATM   26  C   UNL     1      -9.609  12.416  67.809  1.00  0.00    -0.202 C  
BRANCH  26  27
HETATM   27  C   UNL     1     -11.092  12.189  68.068  1.00  0.00    -0.244 C  
BRANCH  27  28
HETATM   28  O   UNL     1     -11.739  11.551  66.976  1.00  0.00    -0.556 OA 
BRANCH  28  29
HETATM   29  C   UNL     1     -11.848  12.343  65.853  1.00  0.00    -0.405 A  
HETATM   30  C   UNL     1     -11.470  11.723  64.667  1.00  0.00    -0.303 A  
HETATM   31  C   UNL     1     -11.494  12.426  63.459  1.00  0.00    -0.561 A  
HETATM   32  C   UNL     1     -11.921  13.752  63.428  1.00  0.00    -0.065 A  
HETATM   33  C   UNL     1     -12.336  14.370  64.599  1.00  0.00    -0.435 A  
HETATM   34  C   UNL     1     -12.305  13.668  65.807  1.00  0.00    -0.524 A  
ENDBRANCH  28  29
ENDBRANCH  27  28
ENDBRANCH  26  27
ENDBRANCH  25  26
ENDBRANCH  18  25
ENDBRANCH  16  17
ENDBRANCH   6  16
TORSDOF 7
ENDMDL
MODEL       95
REMARK 921   NORMALIZED FREE ENERGY PREDICTED BY IDOCK:   -4.83 KCAL/MOL
REMARK 922        TOTAL FREE ENERGY PREDICTED BY IDOCK:   -8.46 KCAL/MOL
REMARK 923 INTER-LIGAND FREE ENERGY PREDICTED BY IDOCK:   -7.05 KCAL/MOL
REMARK 924 INTRA-LIGAND FREE ENERGY PREDICTED BY IDOCK:   -1.41 KCAL/MOL
REMARK 927      BINDING AFFINITY PREDICTED BY RF-SCORE:    0.00 PKD
ROOT
HETATM    1  O   UNL     1      -7.688   5.792  67.831  1.00  0.00    -0.094 OA 
HETATM    2  C   UNL     1      -8.593   4.688  67.680  1.00  0.00    -0.103 C  
HETATM    3  H   UNL     1      -6.804   5.469  67.698  1.00  0.00     0.000 HD 
HETATM    4  C   UNL     1      -8.245   3.695  68.796  1.00  0.00    -0.072 A  
HETATM    5  C   UNL     1      -8.330   4.126  66.285  1.00  0.00    -0.105 A  
HETATM    6  C   UNL     1     -10.057   5.225  67.901  1.00  0.00    -0.156 C  
HETATM    7  C   UNL     1      -8.289   1.835  70.435  1.00  0.00    -0.041 A  
HETATM    8  C   UNL     1      -7.180   3.730  69.684  1.00  0.00    -0.042 A  
HETATM    9  C   UNL     1      -7.547   3.036  65.925  1.00  0.00    -0.073 A  
HETATM   10  O   UNL     1     -10.855   5.620  67.060  1.00  0.00    -0.275 OA 
HETATM   11  C   UNL     1      -7.213   2.669  70.632  1.00  0.00    -0.033 A  
HETATM   12  C   UNL     1      -7.464   2.840  64.518  1.00  0.00    -0.074 A  
HETATM   13  S   UNL     1      -8.877   4.943  64.867  1.00  0.00    -0.134 SA 
HETATM   14  C   UNL     1      -8.163   3.799  63.825  1.00  0.00    -0.090 A  
HETATM   15  S   UNL     1      -9.225   2.300  69.086  1.00  0.00    -0.118 SA 
ENDROOT
BRANCH   6  16
HETATM   16  O   UNL     1     -10.370   5.281  69.237  1.00  0.00    -0.232 OA 
BRANCH  16  17
HETATM   17  C   UNL     1     -10.122   6.515  69.933  1.00  0.00    -0.173 C  
HETATM   18  N   UNL     1     -11.734   7.549  71.645  1.00  0.00    -0.272 N  
HETATM   19  C   UNL     1     -11.384   7.397  70.115  1.00  0.00    -0.177 C  
HETATM   20  C   UNL     1     -10.519   8.181  72.342  1.00  0.00    -0.319 C  
HETATM   21  C   UNL     1     -11.964   6.137  72.200  1.00  0.00    -0.260 C  
HETATM   22  C   UNL     1      -9.254   7.380  72.081  1.00  0.00    -0.158 C  
HETATM   23  C   UNL     1     -10.666   5.335  72.084  1.00  0.00    -0.271 C  
HETATM   24  C   UNL     1      -9.582   6.111  71.312  1.00  0.00    -0.189 C  
BRANCH  18  25
HETATM   25  C   UNL     1     -13.025   8.416  71.729  1.00  0.00    -0.344 C  
BRANCH  25  26
HETATM   26  C   UNL     1     -12.861   9.928  71.953  1.00  0.00    -0.524 C  
BRANCH  26  27
HETATM   27  C   UNL     1     -12.860  10.751  70.673  1.00  0.00    -0.293 C  
BRANCH  27  28
HETATM   28  O   UNL     1     -11.556  10.912  70.134  1.00  0.00    -0.289 OA 
BRANCH  28  29
HETATM   29  C   UNL     1     -11.515  11.684  68.993  1.00  0.00    -0.294 A  
HETATM   30  C   UNL     1     -11.232  10.983  67.827  1.00  0.00    -0.374 A  
HETATM   31  C   UNL     1     -11.122  11.652  66.604  1.00  0.00    -0.364 A  
HETATM   32  C   UNL     1     -11.318  13.030  66.538  1.00  0.00    -0.359 A  
HETATM   33  C   UNL     1     -11.638  13.735  67.690  1.00  0.00    -0.381 A  
HETATM   34  C   UNL     1     -11.742  13.066  68.913  1.00  0.00    -0.371 A  
ENDBRANCH  28  29
ENDBRANCH  27  28
ENDBRANCH  26  27
ENDBRANCH  25  26
ENDBRANCH  18  25
ENDBRANCH  16  17
ENDBRANCH   6  16
TORSDOF 7
ENDMDL
MODEL       96
REMARK 921   NORMALIZED FREE ENERGY PREDICTED BY IDOCK:   -4.81 KCAL/MOL
REMARK 922        TOTAL FREE ENERGY PREDICTED BY IDOCK:   -8.43 KCAL/MOL
REMARK 923 INTER-LIGAND FREE ENERGY PREDICTED BY IDOCK:   -7.34 KCAL/MOL
REMARK 924 INTRA-LIGAND FREE ENERGY PREDICTED BY IDOCK:   -1.09 KCAL/MOL
REMARK 927      BINDING AFFINITY PREDICTED BY RF-SCORE:    0.00 PKD
ROOT
HETATM    1  O   UNL     1      -9.912  13.423  69.012  1.00  0.00    -0.424 OA 
HETATM    2  C   UNL     1     -10.144  12.351  68.085  1.00  0.00    -0.224 C  
HETATM    3  H   UNL     1      -9.308  14.036  68.609  1.00  0.00     0.000 HD 
HETATM    4  C   UNL     1      -8.789  11.665  67.880  1.00  0.00    -0.155 A  
HETATM    5  C   UNL     1     -10.670  13.013  66.813  1.00  0.00    -0.262 A  
HETATM    6  C   UNL     1     -11.145  11.336  68.754  1.00  0.00    -0.233 C  
HETATM    7  C   UNL     1      -6.989  10.064  67.289  1.00  0.00    -0.083 A  
HETATM    8  C   UNL     1      -7.540  12.059  68.338  1.00  0.00    -0.128 A  
HETATM    9  C   UNL     1      -9.972  13.348  65.660  1.00  0.00    -0.249 A  
HETATM   10  O   UNL     1     -12.366  11.299  68.657  1.00  0.00    -0.534 OA 
HETATM   11  C   UNL     1      -6.510  11.134  68.009  1.00  0.00    -0.057 A  
HETATM   12  C   UNL     1     -10.768  14.026  64.695  1.00  0.00    -0.416 A  
HETATM   13  S   UNL     1     -12.281  13.625  66.717  1.00  0.00    -0.315 SA 
HETATM   14  C   UNL     1     -12.054  14.221  65.137  1.00  0.00    -0.410 A  
HETATM   15  S   UNL     1      -8.661  10.199  66.969  1.00  0.00    -0.129 SA 
ENDROOT
BRANCH   6  16
HETATM   16  O   UNL     1     -10.486  10.460  69.581  1.00  0.00    -0.231 OA 
BRANCH  16  17
HETATM   17  C   UNL     1     -11.242   9.380  70.155  1.00  0.00    -0.219 C  
HETATM   18  N   UNL     1     -10.439   6.941  70.227  1.00  0.00    -0.199 N  
HETATM   19  C   UNL     1     -11.144   8.053  69.359  1.00  0.00     0.095 C  
HETATM   20  C   UNL     1     -11.268   6.752  71.508  1.00  0.00    -0.260 C  
HETATM   21  C   UNL     1      -9.045   7.468  70.595  1.00  0.00    -0.155 C  
HETATM   22  C   UNL     1     -11.461   8.070  72.241  1.00  0.00    -0.419 C  
HETATM   23  C   UNL     1      -9.195   8.724  71.456  1.00  0.00    -0.332 C  
HETATM   24  C   UNL     1     -10.665   9.173  71.562  1.00  0.00    -0.437 C  
BRANCH  18  25
HETATM   25  C   UNL     1     -10.353   5.663  69.342  1.00  0.00    -0.273 C  
BRANCH  25  26
HETATM   26  C   UNL     1     -10.881   5.753  67.901  1.00  0.00    -0.257 C  
BRANCH  26  27
HETATM   27  C   UNL     1      -9.848   5.413  66.836  1.00  0.00    -0.166 C  
BRANCH  27  28
HETATM   28  O   UNL     1     -10.312   4.422  65.929  1.00  0.00    -0.256 OA 
BRANCH  28  29
HETATM   29  C   UNL     1      -9.312   3.842  65.179  1.00  0.00    -0.157 A  
HETATM   30  C   UNL     1      -8.582   2.862  65.842  1.00  0.00    -0.118 A  
HETATM   31  C   UNL     1      -7.513   2.220  65.209  1.00  0.00    -0.070 A  
HETATM   32  C   UNL     1      -7.183   2.542  63.894  1.00  0.00    -0.049 A  
HETATM   33  C   UNL     1      -7.928   3.492  63.208  1.00  0.00    -0.076 A  
HETATM   34  C   UNL     1      -8.992   4.136  63.845  1.00  0.00    -0.137 A  
ENDBRANCH  28  29
ENDBRANCH  27  28
ENDBRANCH  26  27
ENDBRANCH  25  26
ENDBRANCH  18  25
ENDBRANCH  16  17
ENDBRANCH   6  16
TORSDOF 7
ENDMDL
MODEL       97
REMARK 921   NORMALIZED FREE ENERGY PREDICTED BY IDOCK:   -4.77 KCAL/MOL
REMARK 922        TOTAL FREE ENERGY PREDICTED BY IDOCK:   -8.38 KCAL/MOL
REMARK 923 INTER-LIGAND FREE ENERGY PREDICTED BY IDOCK:   -6.17 KCAL/MOL
REMARK 924 INTRA-LIGAND FREE ENERGY PREDICTED BY IDOCK:   -2.21 KCAL/MOL
REMARK 927      BINDING AFFINITY PREDICTED BY RF-SCORE:    0.00 PKD
ROOT
HETATM    1  O   UNL     1     -11.196   7.569  67.926  1.00  0.00    -0.464 OA 
HETATM    2  C   UNL     1     -10.409   8.429  68.764  1.00  0.00    -0.206 C  
HETATM    3  H   UNL     1     -12.109   7.808  68.032  1.00  0.00     0.000 HD 
HETATM    4  C   UNL     1     -10.845   8.134  70.205  1.00  0.00    -0.241 A  
HETATM    5  C   UNL     1     -10.744   9.852  68.325  1.00  0.00    -0.234 A  
HETATM    6  C   UNL     1      -8.896   8.031  68.587  1.00  0.00    -0.134 C  
HETATM    7  C   UNL     1     -10.972   7.987  72.677  1.00  0.00    -0.382 A  
HETATM    8  C   UNL     1     -11.889   7.338  70.648  1.00  0.00    -0.290 A  
HETATM    9  C   UNL     1     -11.638  10.747  68.899  1.00  0.00    -0.361 A  
HETATM   10  O   UNL     1      -8.072   8.508  67.817  1.00  0.00    -0.113 OA 
HETATM   11  C   UNL     1     -11.954   7.244  72.066  1.00  0.00    -0.333 A  
HETATM   12  C   UNL     1     -11.757  11.969  68.178  1.00  0.00    -0.398 A  
HETATM   13  S   UNL     1     -10.134  10.507  66.850  1.00  0.00    -0.225 SA 
HETATM   14  C   UNL     1     -10.972  11.977  67.051  1.00  0.00    -0.274 A  
HETATM   15  S   UNL     1     -10.008   8.832  71.549  1.00  0.00    -0.325 SA 
ENDROOT
BRANCH   6  16
HETATM   16  O   UNL     1      -8.564   6.967  69.390  1.00  0.00    -0.132 OA 
BRANCH  16  17
HETATM   17  C   UNL     1      -7.948   5.825  68.771  1.00  0.00    -0.101 C  
HETATM   18  N   UNL     1      -7.573   3.576  69.954  1.00  0.00    -0.045 N  
HETATM   19  C   UNL     1      -7.010   5.029  69.714  1.00  0.00    -0.053 C  
HETATM   20  C   UNL     1      -7.685   2.887  68.584  1.00  0.00    -0.050 C  
HETATM   21  C   UNL     1      -8.972   3.726  70.567  1.00  0.00    -0.092 C  
HETATM   22  C   UNL     1      -8.517   3.713  67.617  1.00  0.00    -0.105 C  
HETATM   23  C   UNL     1      -9.885   4.433  69.563  1.00  0.00    -0.258 C  
HETATM   24  C   UNL     1      -9.106   4.921  68.326  1.00  0.00    -0.138 C  
BRANCH  18  25
HETATM   25  C   UNL     1      -6.591   2.867  70.933  1.00  0.00    -0.031 C  
BRANCH  25  26
HETATM   26  C   UNL     1      -6.246   3.585  72.248  1.00  0.00    -0.013 C  
BRANCH  26  27
HETATM   27  C   UNL     1      -6.444   2.734  73.494  1.00  0.00    -0.021 C  
BRANCH  27  28
HETATM   28  O   UNL     1      -7.273   3.370  74.457  1.00  0.00    -0.049 OA 
BRANCH  28  29
HETATM   29  C   UNL     1      -8.619   3.282  74.177  1.00  0.00    -0.080 A  
HETATM   30  C   UNL     1      -9.305   4.490  74.237  1.00  0.00    -0.127 A  
HETATM   31  C   UNL     1     -10.685   4.537  74.013  1.00  0.00    -0.340 A  
HETATM   32  C   UNL     1     -11.384   3.372  73.704  1.00  0.00    -0.210 A  
HETATM   33  C   UNL     1     -10.705   2.166  73.605  1.00  0.00    -0.250 A  
HETATM   34  C   UNL     1      -9.327   2.120  73.835  1.00  0.00    -0.091 A  
ENDBRANCH  28  29
ENDBRANCH  27  28
ENDBRANCH  26  27
ENDBRANCH  25  26
ENDBRANCH  18  25
ENDBRANCH  16  17
ENDBRANCH   6  16
TORSDOF 7
ENDMDL
MODEL       98
REMARK 921   NORMALIZED FREE ENERGY PREDICTED BY IDOCK:   -4.76 KCAL/MOL
REMARK 922        TOTAL FREE ENERGY PREDICTED BY IDOCK:   -8.35 KCAL/MOL
REMARK 923 INTER-LIGAND FREE ENERGY PREDICTED BY IDOCK:   -6.75 KCAL/MOL
REMARK 924 INTRA-LIGAND FREE ENERGY PREDICTED BY IDOCK:   -1.61 KCAL/MOL
REMARK 927      BINDING AFFINITY PREDICTED BY RF-SCORE:    0.00 PKD
ROOT
HETATM    1  O   UNL     1      -8.488  10.966  65.306  1.00  0.00    -0.281 OA 
HETATM    2  C   UNL     1      -8.234  10.508  66.643  1.00  0.00    -0.129 C  
HETATM    3  H   UNL     1      -8.780  11.869  65.355  1.00  0.00     0.000 HD 
HETATM    4  C   UNL     1      -9.579  10.566  67.376  1.00  0.00    -0.158 A  
HETATM    5  C   UNL     1      -7.203  11.474  67.222  1.00  0.00    -0.132 A  
HETATM    6  C   UNL     1      -7.751   9.011  66.561  1.00  0.00    -0.096 C  
HETATM    7  C   UNL     1     -11.425  10.264  69.005  1.00  0.00    -0.137 A  
HETATM    8  C   UNL     1     -10.782  11.099  66.938  1.00  0.00    -0.322 A  
HETATM    9  C   UNL     1      -7.413  12.571  68.048  1.00  0.00    -0.117 A  
HETATM   10  O   UNL     1      -6.603   8.587  66.506  1.00  0.00    -0.058 OA 
HETATM   11  C   UNL     1     -11.843  10.915  67.868  1.00  0.00     0.015 A  
HETATM   12  C   UNL     1      -6.224  13.298  68.336  1.00  0.00    -0.086 A  
HETATM   13  S   UNL     1      -5.546  11.417  66.742  1.00  0.00    -0.139 SA 
HETATM   14  C   UNL     1      -5.129  12.760  67.703  1.00  0.00    -0.094 A  
HETATM   15  S   UNL     1      -9.753   9.921  68.973  1.00  0.00    -0.204 SA 
ENDROOT
BRANCH   6  16
HETATM   16  O   UNL     1      -8.817   8.148  66.482  1.00  0.00    -0.133 OA 
BRANCH  16  17
HETATM   17  C   UNL     1      -8.576   6.758  66.755  1.00  0.00    -0.119 C  
HETATM   18  N   UNL     1      -9.378   5.549  68.875  1.00  0.00    -0.122 N  
HETATM   19  C   UNL     1      -8.255   6.456  68.242  1.00  0.00    -0.116 C  
HETATM   20  C   UNL     1      -9.448   4.250  68.056  1.00  0.00    -0.159 C  
HETATM   21  C   UNL     1     -10.705   6.309  68.741  1.00  0.00    -0.297 C  
HETATM   22  C   UNL     1      -9.656   4.540  66.578  1.00  0.00    -0.200 C  
HETATM   23  C   UNL     1     -11.025   6.500  67.257  1.00  0.00    -0.475 C  
HETATM   24  C   UNL     1      -9.867   6.029  66.357  1.00  0.00    -0.155 C  
BRANCH  18  25
HETATM   25  C   UNL     1      -8.992   5.328  70.368  1.00  0.00    -0.128 C  
BRANCH  25  26
HETATM   26  C   UNL     1      -9.925   4.461  71.229  1.00  0.00    -0.245 C  
BRANCH  26  27
HETATM   27  C   UNL     1     -10.857   5.255  72.133  1.00  0.00    -0.188 C  
BRANCH  27  28
HETATM   28  O   UNL     1     -10.530   6.637  72.166  1.00  0.00    -0.201 OA 
BRANCH  28  29
HETATM   29  C   UNL     1     -11.617   7.472  72.024  1.00  0.00    -0.287 A  
HETATM   30  C   UNL     1     -12.753   6.862  71.505  1.00  0.00    -0.396 A  
HETATM   31  C   UNL     1     -13.916   7.604  71.273  1.00  0.00    -0.365 A  
HETATM   32  C   UNL     1     -13.953   8.962  71.583  1.00  0.00    -0.417 A  
HETATM   33  C   UNL     1     -12.837   9.574  72.137  1.00  0.00    -0.471 A  
HETATM   34  C   UNL     1     -11.674   8.832  72.362  1.00  0.00    -0.337 A  
ENDBRANCH  28  29
ENDBRANCH  27  28
ENDBRANCH  26  27
ENDBRANCH  25  26
ENDBRANCH  18  25
ENDBRANCH  16  17
ENDBRANCH   6  16
TORSDOF 7
ENDMDL
MODEL       99
REMARK 921   NORMALIZED FREE ENERGY PREDICTED BY IDOCK:   -4.73 KCAL/MOL
REMARK 922        TOTAL FREE ENERGY PREDICTED BY IDOCK:   -8.31 KCAL/MOL
REMARK 923 INTER-LIGAND FREE ENERGY PREDICTED BY IDOCK:   -7.08 KCAL/MOL
REMARK 924 INTRA-LIGAND FREE ENERGY PREDICTED BY IDOCK:   -1.23 KCAL/MOL
REMARK 927      BINDING AFFINITY PREDICTED BY RF-SCORE:    0.00 PKD
ROOT
HETATM    1  O   UNL     1      -7.961   6.253  68.771  1.00  0.00    -0.100 OA 
HETATM    2  C   UNL     1      -9.332   5.863  68.948  1.00  0.00    -0.126 C  
HETATM    3  H   UNL     1      -7.444   5.824  69.442  1.00  0.00     0.000 HD 
HETATM    4  C   UNL     1      -9.751   6.391  70.325  1.00  0.00    -0.167 A  
HETATM    5  C   UNL     1      -9.339   4.338  68.872  1.00  0.00    -0.158 A  
HETATM    6  C   UNL     1     -10.189   6.575  67.836  1.00  0.00    -0.168 C  
HETATM    7  C   UNL     1     -11.050   7.121  72.308  1.00  0.00    -0.254 A  
HETATM    8  C   UNL     1      -8.963   6.980  71.303  1.00  0.00    -0.137 A  
HETATM    9  C   UNL     1      -9.343   3.420  69.915  1.00  0.00    -0.238 A  
HETATM   10  O   UNL     1     -10.510   6.146  66.735  1.00  0.00    -0.225 OA 
HETATM   11  C   UNL     1      -9.711   7.409  72.435  1.00  0.00    -0.194 A  
HETATM   12  C   UNL     1      -9.273   2.067  69.477  1.00  0.00    -0.176 A  
HETATM   13  S   UNL     1      -9.157   3.510  67.369  1.00  0.00    -0.181 SA 
HETATM   14  C   UNL     1      -9.189   1.975  68.109  1.00  0.00    -0.188 A  
HETATM   15  S   UNL     1     -11.395   6.293  70.855  1.00  0.00    -0.301 SA 
ENDROOT
BRANCH   6  16
HETATM   16  O   UNL     1     -10.520   7.856  68.207  1.00  0.00    -0.202 OA 
BRANCH  16  17
HETATM   17  C   UNL     1      -9.743   8.935  67.660  1.00  0.00    -0.161 C  
HETATM   18  N   UNL     1     -10.617  11.334  67.372  1.00  0.00    -0.212 N  
HETATM   19  C   UNL     1     -10.552   9.889  66.743  1.00  0.00    -0.144 C  
HETATM   20  C   UNL     1      -9.173  11.833  67.545  1.00  0.00    -0.175 C  
HETATM   21  C   UNL     1     -11.279  11.200  68.750  1.00  0.00    -0.253 C  
HETATM   22  C   UNL     1      -8.342  10.850  68.353  1.00  0.00    -0.136 C  
HETATM   23  C   UNL     1     -10.398  10.327  69.647  1.00  0.00    -0.281 C  
HETATM   24  C   UNL     1      -9.215   9.719  68.869  1.00  0.00    -0.155 C  
BRANCH  18  25
HETATM   25  C   UNL     1     -11.471  12.208  66.408  1.00  0.00    -0.370 C  
BRANCH  25  26
HETATM   26  C   UNL     1     -10.732  13.199  65.493  1.00  0.00    -0.297 C  
BRANCH  26  27
HETATM   27  C   UNL     1     -10.491  14.565  66.119  1.00  0.00    -0.298 C  
BRANCH  27  28
HETATM   28  O   UNL     1      -9.256  15.137  65.710  1.00  0.00    -0.264 OA 
BRANCH  28  29
HETATM   29  C   UNL     1      -8.765  16.085  66.580  1.00  0.00    -0.274 A  
HETATM   30  C   UNL     1      -9.026  15.833  67.922  1.00  0.00    -0.180 A  
HETATM   31  C   UNL     1      -8.617  16.735  68.909  1.00  0.00    -0.218 A  
HETATM   32  C   UNL     1      -7.922  17.891  68.556  1.00  0.00    -0.302 A  
HETATM   33  C   UNL     1      -7.624  18.136  67.223  1.00  0.00    -0.227 A  
HETATM   34  C   UNL     1      -8.038  17.235  66.238  1.00  0.00    -0.315 A  
ENDBRANCH  28  29
ENDBRANCH  27  28
ENDBRANCH  26  27
ENDBRANCH  25  26
ENDBRANCH  18  25
ENDBRANCH  16  17
ENDBRANCH   6  16
TORSDOF 7
ENDMDL
MODEL      100
REMARK 921   NORMALIZED FREE ENERGY PREDICTED BY IDOCK:   -4.70 KCAL/MOL
REMARK 922        TOTAL FREE ENERGY PREDICTED BY IDOCK:   -8.28 KCAL/MOL
REMARK 923 INTER-LIGAND FREE ENERGY PREDICTED BY IDOCK:   -7.06 KCAL/MOL
REMARK 924 INTRA-LIGAND FREE ENERGY PREDICTED BY IDOCK:   -1.21 KCAL/MOL
REMARK 927      BINDING AFFINITY PREDICTED BY RF-SCORE:    0.00 PKD
ROOT
HETATM    1  O   UNL     1      -8.638  11.815  68.428  1.00  0.00    -0.160 OA 
HETATM    2  C   UNL     1      -9.924  11.670  67.807  1.00  0.00    -0.181 C  
HETATM    3  H   UNL     1      -8.654  12.604  68.959  1.00  0.00     0.000 HD 
HETATM    4  C   UNL     1     -10.097  12.891  66.895  1.00  0.00    -0.241 A  
HETATM    5  C   UNL     1     -10.934  11.641  68.953  1.00  0.00    -0.233 A  
HETATM    6  C   UNL     1      -9.897  10.364  66.928  1.00  0.00    -0.191 C  
HETATM    7  C   UNL     1     -10.873  14.482  65.158  1.00  0.00    -0.395 A  
HETATM    8  C   UNL     1      -9.287  14.011  66.784  1.00  0.00    -0.289 A  
HETATM    9  C   UNL     1     -11.714  12.679  69.445  1.00  0.00    -0.387 A  
HETATM   10  O   UNL     1     -10.242   9.231  67.243  1.00  0.00    -0.216 OA 
HETATM   11  C   UNL     1      -9.726  14.917  65.779  1.00  0.00    -0.359 A  
HETATM   12  C   UNL     1     -12.494  12.312  70.578  1.00  0.00    -0.272 A  
HETATM   13  S   UNL     1     -11.113  10.251  69.960  1.00  0.00    -0.328 SA 
HETATM   14  C   UNL     1     -12.277  11.007  70.948  1.00  0.00    -0.367 A  
HETATM   15  S   UNL     1     -11.445  13.014  65.817  1.00  0.00    -0.349 SA 
ENDROOT
BRANCH   6  16
HETATM   16  O   UNL     1      -9.344  10.606  65.695  1.00  0.00    -0.182 OA 
BRANCH  16  17
HETATM   17  C   UNL     1      -7.932  10.387  65.538  1.00  0.00    -0.153 C  
HETATM   18  N   UNL     1      -6.838   8.064  65.450  1.00  0.00    -0.061 N  
HETATM   19  C   UNL     1      -7.381   9.212  66.386  1.00  0.00    -0.092 C  
HETATM   20  C   UNL     1      -5.734   8.666  64.565  1.00  0.00    -0.063 C  
HETATM   21  C   UNL     1      -8.007   7.607  64.568  1.00  0.00    -0.130 C  
HETATM   22  C   UNL     1      -6.236   9.886  63.809  1.00  0.00    -0.125 C  
HETATM   23  C   UNL     1      -8.455   8.773  63.684  1.00  0.00    -0.110 C  
HETATM   24  C   UNL     1      -7.724  10.079  64.048  1.00  0.00    -0.143 C  
BRANCH  18  25
HETATM   25  C   UNL     1      -6.340   6.920  66.381  1.00  0.00    -0.050 C  
BRANCH  25  26
HETATM   26  C   UNL     1      -7.002   5.539  66.238  1.00  0.00    -0.060 C  
BRANCH  26  27
HETATM   27  C   UNL     1      -7.318   4.859  67.563  1.00  0.00    -0.078 C  
BRANCH  27  28
HETATM   28  O   UNL     1      -8.627   4.310  67.590  1.00  0.00    -0.101 OA 
BRANCH  28  29
HETATM   29  C   UNL     1      -9.467   4.914  68.499  1.00  0.00    -0.143 A  
HETATM   30  C   UNL     1      -9.299   4.495  69.814  1.00  0.00    -0.223 A  
HETATM   31  C   UNL     1     -10.113   5.001  70.832  1.00  0.00    -0.302 A  
HETATM   32  C   UNL     1     -11.091   5.950  70.540  1.00  0.00    -0.347 A  
HETATM   33  C   UNL     1     -11.245   6.404  69.237  1.00  0.00    -0.440 A  
HETATM   34  C   UNL     1     -10.433   5.893  68.220  1.00  0.00    -0.293 A  
ENDBRANCH  28  29
ENDBRANCH  27  28
ENDBRANCH  26  27
ENDBRANCH  25  26
ENDBRANCH  18  25
ENDBRANCH  16  17
ENDBRANCH   6  16
TORSDOF 7
ENDMDL
MODEL      101
REMARK 921   NORMALIZED FREE ENERGY PREDICTED BY IDOCK:   -4.70 KCAL/MOL
REMARK 922        TOTAL FREE ENERGY PREDICTED BY IDOCK:   -8.28 KCAL/MOL
REMARK 923 INTER-LIGAND FREE ENERGY PREDICTED BY IDOCK:   -6.92 KCAL/MOL
REMARK 924 INTRA-LIGAND FREE ENERGY PREDICTED BY IDOCK:   -1.36 KCAL/MOL
REMARK 927      BINDING AFFINITY PREDICTED BY RF-SCORE:    0.00 PKD
ROOT
HETATM    1  O   UNL     1      -9.734  16.466  66.151  1.00  0.00    -0.290 OA 
HETATM    2  C   UNL     1      -9.053  16.278  67.401  1.00  0.00    -0.195 C  
HETATM    3  H   UNL     1     -10.268  17.248  66.221  1.00  0.00     0.000 HD 
HETATM    4  C   UNL     1     -10.146  16.050  68.452  1.00  0.00    -0.229 A  
HETATM    5  C   UNL     1      -8.263  17.563  67.638  1.00  0.00    -0.215 A  
HETATM    6  C   UNL     1      -8.167  14.981  67.283  1.00  0.00    -0.211 C  
HETATM    7  C   UNL     1     -11.387  15.456  70.516  1.00  0.00    -0.326 A  
HETATM    8  C   UNL     1     -11.521  16.160  68.308  1.00  0.00    -0.259 A  
HETATM    9  C   UNL     1      -8.604  18.654  68.426  1.00  0.00    -0.366 A  
HETATM   10  O   UNL     1      -6.989  14.894  66.958  1.00  0.00    -0.180 OA 
HETATM   11  C   UNL     1     -12.232  15.808  69.489  1.00  0.00    -0.178 A  
HETATM   12  C   UNL     1      -7.662  19.719  68.356  1.00  0.00    -0.336 A  
HETATM   13  S   UNL     1      -6.824  17.913  66.752  1.00  0.00    -0.201 SA 
HETATM   14  C   UNL     1      -6.630  19.434  67.494  1.00  0.00    -0.208 A  
HETATM   15  S   UNL     1      -9.744  15.599  70.073  1.00  0.00     0.181 SA 
ENDROOT
BRANCH   6  16
HETATM   16  O   UNL     1      -8.906  13.850  67.530  1.00  0.00    -0.175 OA 
BRANCH  16  17
HETATM   17  C   UNL     1      -8.886  12.805  66.543  1.00  0.00    -0.038 C  
HETATM   18  N   UNL     1     -10.331  10.685  66.663  1.00  0.00    -0.235 N  
HETATM   19  C   UNL     1      -8.997  11.377  67.138  1.00  0.00    -0.162 C  
HETATM   20  C   UNL     1     -10.312  10.638  65.126  1.00  0.00    -0.261 C  
HETATM   21  C   UNL     1     -11.494  11.570  67.133  1.00  0.00    -0.237 C  
HETATM   22  C   UNL     1     -10.097  12.021  64.535  1.00  0.00    -0.293 C  
HETATM   23  C   UNL     1     -11.394  12.935  66.448  1.00  0.00    -0.361 C  
HETATM   24  C   UNL     1     -10.093  13.071  65.634  1.00  0.00    -0.276 C  
BRANCH  18  25
HETATM   25  C   UNL     1     -10.374   9.279  67.332  1.00  0.00    -0.263 C  
BRANCH  25  26
HETATM   26  C   UNL     1      -9.717   8.108  66.583  1.00  0.00    -0.318 C  
BRANCH  26  27
HETATM   27  C   UNL     1      -8.604   7.417  67.359  1.00  0.00    -0.118 C  
BRANCH  27  28
HETATM   28  O   UNL     1      -8.890   6.049  67.612  1.00  0.00    -0.109 OA 
BRANCH  28  29
HETATM   29  C   UNL     1      -9.025   5.747  68.950  1.00  0.00    -0.113 A  
HETATM   30  C   UNL     1      -8.613   6.752  69.817  1.00  0.00    -0.141 A  
HETATM   31  C   UNL     1      -8.660   6.560  71.202  1.00  0.00    -0.130 A  
HETATM   32  C   UNL     1      -9.142   5.363  71.727  1.00  0.00    -0.152 A  
HETATM   33  C   UNL     1      -9.591   4.366  70.872  1.00  0.00    -0.255 A  
HETATM   34  C   UNL     1      -9.538   4.557  69.488  1.00  0.00    -0.266 A  
ENDBRANCH  28  29
ENDBRANCH  27  28
ENDBRANCH  26  27
ENDBRANCH  25  26
ENDBRANCH  18  25
ENDBRANCH  16  17
ENDBRANCH   6  16
TORSDOF 7
ENDMDL
MODEL      102
REMARK 921   NORMALIZED FREE ENERGY PREDICTED BY IDOCK:   -4.70 KCAL/MOL
REMARK 922        TOTAL FREE ENERGY PREDICTED BY IDOCK:   -8.27 KCAL/MOL
REMARK 923 INTER-LIGAND FREE ENERGY PREDICTED BY IDOCK:   -6.27 KCAL/MOL
REMARK 924 INTRA-LIGAND FREE ENERGY PREDICTED BY IDOCK:   -1.99 KCAL/MOL
REMARK 927      BINDING AFFINITY PREDICTED BY RF-SCORE:    0.00 PKD
ROOT
HETATM    1  O   UNL     1      -8.953  10.335  69.811  1.00  0.00    -0.350 OA 
HETATM    2  C   UNL     1     -10.181  10.341  69.068  1.00  0.00    -0.210 C  
HETATM    3  H   UNL     1      -8.941  11.106  70.366  1.00  0.00     0.000 HD 
HETATM    4  C   UNL     1     -10.143  11.597  68.189  1.00  0.00    -0.196 A  
HETATM    5  C   UNL     1     -11.295  10.383  70.112  1.00  0.00    -0.323 A  
HETATM    6  C   UNL     1     -10.200   9.064  68.146  1.00  0.00    -0.204 C  
HETATM    7  C   UNL     1     -10.585  13.307  66.448  1.00  0.00    -0.284 A  
HETATM    8  C   UNL     1      -9.218  12.630  68.196  1.00  0.00    -0.209 A  
HETATM    9  C   UNL     1     -12.012  11.483  70.567  1.00  0.00    -0.439 A  
HETATM   10  O   UNL     1     -10.685   7.964  68.385  1.00  0.00    -0.141 OA 
HETATM   11  C   UNL     1      -9.465  13.604  67.189  1.00  0.00    -0.244 A  
HETATM   12  C   UNL     1     -12.930  11.166  71.608  1.00  0.00    -0.548 A  
HETATM   13  S   UNL     1     -11.708   8.992  71.045  1.00  0.00    -0.294 SA 
HETATM   14  C   UNL     1     -12.881   9.836  71.948  1.00  0.00    -0.427 A  
HETATM   15  S   UNL     1     -11.361  11.888  66.995  1.00  0.00    -0.319 SA 
ENDROOT
BRANCH   6  16
HETATM   16  O   UNL     1      -9.509   9.281  66.980  1.00  0.00    -0.148 OA 
BRANCH  16  17
HETATM   17  C   UNL     1      -8.395   8.421  66.689  1.00  0.00    -0.110 C  
HETATM   18  N   UNL     1      -7.036   8.514  64.510  1.00  0.00    -0.077 N  
HETATM   19  C   UNL     1      -8.332   7.953  65.212  1.00  0.00    -0.133 C  
HETATM   20  C   UNL     1      -5.819   8.003  65.299  1.00  0.00    -0.041 C  
HETATM   21  C   UNL     1      -7.098  10.045  64.601  1.00  0.00    -0.140 C  
HETATM   22  C   UNL     1      -5.924   8.366  66.771  1.00  0.00    -0.053 C  
HETATM   23  C   UNL     1      -7.063  10.462  66.073  1.00  0.00    -0.133 C  
HETATM   24  C   UNL     1      -7.140   9.244  67.014  1.00  0.00    -0.086 C  
BRANCH  18  25
HETATM   25  C   UNL     1      -7.075   8.026  63.032  1.00  0.00    -0.088 C  
BRANCH  25  26
HETATM   26  C   UNL     1      -8.157   7.004  62.642  1.00  0.00    -0.075 C  
BRANCH  26  27
HETATM   27  C   UNL     1      -7.662   5.566  62.579  1.00  0.00    -0.071 C  
BRANCH  27  28
HETATM   28  O   UNL     1      -8.602   4.647  63.119  1.00  0.00    -0.106 OA 
BRANCH  28  29
HETATM   29  C   UNL     1      -8.535   4.521  64.489  1.00  0.00    -0.128 A  
HETATM   30  C   UNL     1      -9.768   4.457  65.128  1.00  0.00    -0.186 A  
HETATM   31  C   UNL     1      -9.843   4.367  66.521  1.00  0.00    -0.247 A  
HETATM   32  C   UNL     1      -8.678   4.318  67.284  1.00  0.00    -0.111 A  
HETATM   33  C   UNL     1      -7.441   4.344  66.656  1.00  0.00    -0.082 A  
HETATM   34  C   UNL     1      -7.368   4.440  65.263  1.00  0.00    -0.073 A  
ENDBRANCH  28  29
ENDBRANCH  27  28
ENDBRANCH  26  27
ENDBRANCH  25  26
ENDBRANCH  18  25
ENDBRANCH  16  17
ENDBRANCH   6  16
TORSDOF 7
ENDMDL
MODEL      103
REMARK 921   NORMALIZED FREE ENERGY PREDICTED BY IDOCK:   -4.68 KCAL/MOL
REMARK 922        TOTAL FREE ENERGY PREDICTED BY IDOCK:   -8.25 KCAL/MOL
REMARK 923 INTER-LIGAND FREE ENERGY PREDICTED BY IDOCK:   -7.04 KCAL/MOL
REMARK 924 INTRA-LIGAND FREE ENERGY PREDICTED BY IDOCK:   -1.21 KCAL/MOL
REMARK 927      BINDING AFFINITY PREDICTED BY RF-SCORE:    0.00 PKD
ROOT
HETATM    1  O   UNL     1      -9.309   3.981  72.732  1.00  0.00    -0.116 OA 
HETATM    2  C   UNL     1      -8.077   4.342  72.091  1.00  0.00    -0.099 C  
HETATM    3  H   UNL     1      -9.448   3.050  72.601  1.00  0.00     0.000 HD 
HETATM    4  C   UNL     1      -8.277   4.067  70.596  1.00  0.00    -0.065 A  
HETATM    5  C   UNL     1      -7.008   3.450  72.718  1.00  0.00    -0.043 A  
HETATM    6  C   UNL     1      -7.848   5.885  72.309  1.00  0.00    -0.103 C  
HETATM    7  C   UNL     1      -8.048   4.011  68.127  1.00  0.00    -0.084 A  
HETATM    8  C   UNL     1      -9.344   3.443  69.966  1.00  0.00    -0.242 A  
HETATM    9  C   UNL     1      -6.472   2.267  72.226  1.00  0.00    -0.014 A  
HETATM   10  O   UNL     1      -7.213   6.439  73.198  1.00  0.00    -0.085 OA 
HETATM   11  C   UNL     1      -9.217   3.423  68.549  1.00  0.00    -0.229 A  
HETATM   12  C   UNL     1      -5.543   1.655  73.115  1.00  0.00     0.000 A  
HETATM   13  S   UNL     1      -6.418   3.737  74.314  1.00  0.00    -0.040 SA 
HETATM   14  C   UNL     1      -5.405   2.367  74.282  1.00  0.00     0.000 A  
HETATM   15  S   UNL     1      -7.086   4.541  69.434  1.00  0.00    -0.051 SA 
ENDROOT
BRANCH   6  16
HETATM   16  O   UNL     1      -8.535   6.626  71.378  1.00  0.00    -0.123 OA 
BRANCH  16  17
HETATM   17  C   UNL     1      -9.416   7.655  71.857  1.00  0.00    -0.146 C  
HETATM   18  N   UNL     1     -11.076   8.934  70.370  1.00  0.00    -0.242 N  
HETATM   19  C   UNL     1      -9.585   8.844  70.876  1.00  0.00    -0.238 C  
HETATM   20  C   UNL     1     -11.978   9.109  71.603  1.00  0.00    -0.367 C  
HETATM   21  C   UNL     1     -11.403   7.602  69.683  1.00  0.00     0.131 C  
HETATM   22  C   UNL     1     -11.742   8.005  72.621  1.00  0.00    -0.418 C  
HETATM   23  C   UNL     1     -11.315   6.472  70.712  1.00  0.00    -0.399 C  
HETATM   24  C   UNL     1     -10.775   6.972  72.065  1.00  0.00    -0.243 C  
BRANCH  18  25
HETATM   25  C   UNL     1     -11.143  10.127  69.371  1.00  0.00    -0.243 C  
BRANCH  25  26
HETATM   26  C   UNL     1     -11.812  11.426  69.848  1.00  0.00    -0.435 C  
BRANCH  26  27
HETATM   27  C   UNL     1     -12.016  12.462  68.752  1.00  0.00    -0.229 C  
BRANCH  27  28
HETATM   28  O   UNL     1     -11.811  11.922  67.454  1.00  0.00    -0.571 OA 
BRANCH  28  29
HETATM   29  C   UNL     1     -11.785  12.870  66.454  1.00  0.00    -0.395 A  
HETATM   30  C   UNL     1     -11.023  13.996  66.741  1.00  0.00    -0.298 A  
HETATM   31  C   UNL     1     -10.942  15.053  65.828  1.00  0.00    -0.351 A  
HETATM   32  C   UNL     1     -11.610  14.975  64.607  1.00  0.00    -0.386 A  
HETATM   33  C   UNL     1     -12.343  13.840  64.293  1.00  0.00    -0.384 A  
HETATM   34  C   UNL     1     -12.427  12.787  65.209  1.00  0.00    -0.528 A  
ENDBRANCH  28  29
ENDBRANCH  27  28
ENDBRANCH  26  27
ENDBRANCH  25  26
ENDBRANCH  18  25
ENDBRANCH  16  17
ENDBRANCH   6  16
TORSDOF 7
ENDMDL
MODEL      104
REMARK 921   NORMALIZED FREE ENERGY PREDICTED BY IDOCK:   -4.67 KCAL/MOL
REMARK 922        TOTAL FREE ENERGY PREDICTED BY IDOCK:   -8.23 KCAL/MOL
REMARK 923 INTER-LIGAND FREE ENERGY PREDICTED BY IDOCK:   -7.21 KCAL/MOL
REMARK 924 INTRA-LIGAND FREE ENERGY PREDICTED BY IDOCK:   -1.02 KCAL/MOL
REMARK 927      BINDING AFFINITY PREDICTED BY RF-SCORE:    0.00 PKD
ROOT
HETATM    1  O   UNL     1     -10.661   5.961  67.965  1.00  0.00    -0.250 OA 
HETATM    2  C   UNL     1      -9.306   5.620  67.635  1.00  0.00    -0.110 C  
HETATM    3  H   UNL     1     -11.156   5.154  68.048  1.00  0.00     0.000 HD 
HETATM    4  C   UNL     1      -9.362   4.920  66.272  1.00  0.00    -0.149 A  
HETATM    5  C   UNL     1      -8.828   4.698  68.754  1.00  0.00    -0.100 A  
HETATM    6  C   UNL     1      -8.486   6.958  67.499  1.00  0.00    -0.122 C  
HETATM    7  C   UNL     1      -8.787   3.917  64.078  1.00  0.00    -0.111 A  
HETATM    8  C   UNL     1     -10.476   4.525  65.547  1.00  0.00    -0.241 A  
HETATM    9  C   UNL     1      -8.769   3.310  68.765  1.00  0.00    -0.145 A  
HETATM   10  O   UNL     1      -7.828   7.535  68.356  1.00  0.00    -0.117 OA 
HETATM   11  C   UNL     1     -10.146   3.960  64.284  1.00  0.00    -0.216 A  
HETATM   12  C   UNL     1      -8.340   2.772  70.011  1.00  0.00    -0.077 A  
HETATM   13  S   UNL     1      -8.436   5.308  70.319  1.00  0.00    -0.112 SA 
HETATM   14  C   UNL     1      -8.103   3.757  70.940  1.00  0.00    -0.066 A  
HETATM   15  S   UNL     1      -7.913   4.507  65.421  1.00  0.00    -0.099 SA 
ENDROOT
BRANCH   6  16
HETATM   16  O   UNL     1      -8.638   7.509  66.250  1.00  0.00    -0.130 OA 
BRANCH  16  17
HETATM   17  C   UNL     1      -9.606   8.561  66.094  1.00  0.00    -0.206 C  
HETATM   18  N   UNL     1      -9.285  10.953  66.976  1.00  0.00    -0.152 N  
HETATM   19  C   UNL     1      -9.736   9.484  67.333  1.00  0.00    -0.157 C  
HETATM   20  C   UNL     1     -10.178  11.449  65.827  1.00  0.00    -0.248 C  
HETATM   21  C   UNL     1      -7.830  10.877  66.495  1.00  0.00    -0.152 C  
HETATM   22  C   UNL     1     -10.141  10.493  64.646  1.00  0.00    -0.408 C  
HETATM   23  C   UNL     1      -7.766  10.034  65.220  1.00  0.00    -0.139 C  
HETATM   24  C   UNL     1      -9.127   9.389  64.893  1.00  0.00    -0.258 C  
BRANCH  18  25
HETATM   25  C   UNL     1      -9.416  11.794  68.280  1.00  0.00    -0.193 C  
BRANCH  25  26
HETATM   26  C   UNL     1     -10.789  12.405  68.605  1.00  0.00    -0.273 C  
BRANCH  26  27
HETATM   27  C   UNL     1     -11.814  11.399  69.110  1.00  0.00    -0.345 C  
BRANCH  27  28
HETATM   28  O   UNL     1     -12.066  11.537  70.501  1.00  0.00    -0.356 OA 
BRANCH  28  29
HETATM   29  C   UNL     1     -11.972  10.355  71.204  1.00  0.00    -0.362 A  
HETATM   30  C   UNL     1     -10.770   9.676  71.039  1.00  0.00    -0.393 A  
HETATM   31  C   UNL     1     -10.558   8.444  71.666  1.00  0.00    -0.327 A  
HETATM   32  C   UNL     1     -11.544   7.894  72.483  1.00  0.00    -0.443 A  
HETATM   33  C   UNL     1     -12.733   8.581  72.685  1.00  0.00    -0.241 A  
HETATM   34  C   UNL     1     -12.946   9.809  72.053  1.00  0.00    -0.515 A  
ENDBRANCH  28  29
ENDBRANCH  27  28
ENDBRANCH  26  27
ENDBRANCH  25  26
ENDBRANCH  18  25
ENDBRANCH  16  17
ENDBRANCH   6  16
TORSDOF 7
ENDMDL
MODEL      105
REMARK 921   NORMALIZED FREE ENERGY PREDICTED BY IDOCK:   -4.66 KCAL/MOL
REMARK 922        TOTAL FREE ENERGY PREDICTED BY IDOCK:   -8.22 KCAL/MOL
REMARK 923 INTER-LIGAND FREE ENERGY PREDICTED BY IDOCK:   -7.41 KCAL/MOL
REMARK 924 INTRA-LIGAND FREE ENERGY PREDICTED BY IDOCK:   -0.81 KCAL/MOL
REMARK 927      BINDING AFFINITY PREDICTED BY RF-SCORE:    0.00 PKD
ROOT
HETATM    1  O   UNL     1      -7.708   5.783  68.460  1.00  0.00    -0.090 OA 
HETATM    2  C   UNL     1      -8.655   4.709  68.367  1.00  0.00    -0.097 C  
HETATM    3  H   UNL     1      -6.861   5.455  68.178  1.00  0.00     0.000 HD 
HETATM    4  C   UNL     1      -8.177   3.633  69.349  1.00  0.00    -0.053 A  
HETATM    5  C   UNL     1      -8.610   4.244  66.913  1.00  0.00    -0.108 A  
HETATM    6  C   UNL     1     -10.057   5.253  68.834  1.00  0.00    -0.184 C  
HETATM    7  C   UNL     1      -8.036   1.660  70.846  1.00  0.00    -0.038 A  
HETATM    8  C   UNL     1      -6.996   3.585  70.074  1.00  0.00    -0.041 A  
HETATM    9  C   UNL     1      -7.917   3.170  66.369  1.00  0.00    -0.084 A  
HETATM   10  O   UNL     1     -10.956   5.721  68.146  1.00  0.00    -0.230 OA 
HETATM   11  C   UNL     1      -6.921   2.459  70.941  1.00  0.00    -0.033 A  
HETATM   12  C   UNL     1      -8.042   3.075  64.954  1.00  0.00    -0.086 A  
HETATM   13  S   UNL     1      -9.332   5.170  65.648  1.00  0.00    -0.101 SA 
HETATM   14  C   UNL     1      -8.807   4.092  64.438  1.00  0.00    -0.138 A  
HETATM   15  S   UNL     1      -9.144   2.237  69.681  1.00  0.00    -0.115 SA 
ENDROOT
BRANCH   6  16
HETATM   16  O   UNL     1     -10.173   5.219  70.202  1.00  0.00    -0.237 OA 
BRANCH  16  17
HETATM   17  C   UNL     1      -9.774   6.387  70.939  1.00  0.00    -0.176 C  
HETATM   18  N   UNL     1     -11.155   8.550  71.064  1.00  0.00    -0.251 N  
HETATM   19  C   UNL     1     -10.106   7.723  70.226  1.00  0.00    -0.195 C  
HETATM   20  C   UNL     1     -10.546   8.806  72.452  1.00  0.00    -0.144 C  
HETATM   21  C   UNL     1     -12.409   7.676  71.210  1.00  0.00    -0.309 C  
HETATM   22  C   UNL     1     -10.119   7.508  73.116  1.00  0.00    -0.362 C  
HETATM   23  C   UNL     1     -12.052   6.415  72.000  1.00  0.00    -0.353 C  
HETATM   24  C   UNL     1     -10.538   6.318  72.269  1.00  0.00    -0.244 C  
BRANCH  18  25
HETATM   25  C   UNL     1     -11.452   9.850  70.260  1.00  0.00    -0.281 C  
BRANCH  25  26
HETATM   26  C   UNL     1     -11.035   9.889  68.780  1.00  0.00    -0.217 C  
BRANCH  26  27
HETATM   27  C   UNL     1     -11.278  11.229  68.100  1.00  0.00    -0.286 C  
BRANCH  27  28
HETATM   28  O   UNL     1     -10.309  11.511  67.100  1.00  0.00    -0.206 OA 
BRANCH  28  29
HETATM   29  C   UNL     1     -10.850  11.902  65.894  1.00  0.00    -0.297 A  
HETATM   30  C   UNL     1     -11.849  12.864  65.991  1.00  0.00    -0.485 A  
HETATM   31  C   UNL     1     -12.509  13.322  64.846  1.00  0.00    -0.465 A  
HETATM   32  C   UNL     1     -12.155  12.832  63.590  1.00  0.00    -0.624 A  
HETATM   33  C   UNL     1     -11.134  11.899  63.477  1.00  0.00    -0.506 A  
HETATM   34  C   UNL     1     -10.479  11.438  64.623  1.00  0.00    -0.373 A  
ENDBRANCH  28  29
ENDBRANCH  27  28
ENDBRANCH  26  27
ENDBRANCH  25  26
ENDBRANCH  18  25
ENDBRANCH  16  17
ENDBRANCH   6  16
TORSDOF 7
ENDMDL
MODEL      106
REMARK 921   NORMALIZED FREE ENERGY PREDICTED BY IDOCK:   -4.66 KCAL/MOL
REMARK 922        TOTAL FREE ENERGY PREDICTED BY IDOCK:   -8.21 KCAL/MOL
REMARK 923 INTER-LIGAND FREE ENERGY PREDICTED BY IDOCK:   -7.22 KCAL/MOL
REMARK 924 INTRA-LIGAND FREE ENERGY PREDICTED BY IDOCK:   -1.00 KCAL/MOL
REMARK 927      BINDING AFFINITY PREDICTED BY RF-SCORE:    0.00 PKD
ROOT
HETATM    1  O   UNL     1      -8.281   6.586  71.995  1.00  0.00    -0.108 OA 
HETATM    2  C   UNL     1      -9.437   6.162  71.257  1.00  0.00    -0.163 C  
HETATM    3  H   UNL     1      -8.496   6.558  72.921  1.00  0.00     0.000 HD 
HETATM    4  C   UNL     1     -10.534   7.192  71.554  1.00  0.00    -0.203 A  
HETATM    5  C   UNL     1      -9.776   4.769  71.785  1.00  0.00    -0.166 A  
HETATM    6  C   UNL     1      -9.081   6.210  69.724  1.00  0.00    -0.141 C  
HETATM    7  C   UNL     1     -12.596   8.569  71.490  1.00  0.00    -0.316 A  
HETATM    8  C   UNL     1     -10.517   8.236  72.466  1.00  0.00    -0.406 A  
HETATM    9  C   UNL     1     -10.725   4.411  72.734  1.00  0.00    -0.235 A  
HETATM   10  O   UNL     1      -8.654   5.305  69.016  1.00  0.00    -0.094 OA 
HETATM   11  C   UNL     1     -11.695   9.033  72.420  1.00  0.00    -0.171 A  
HETATM   12  C   UNL     1     -10.718   3.022  73.043  1.00  0.00    -0.221 A  
HETATM   13  S   UNL     1      -8.830   3.390  71.358  1.00  0.00    -0.090 SA 
HETATM   14  C   UNL     1      -9.746   2.346  72.345  1.00  0.00    -0.123 A  
HETATM   15  S   UNL     1     -12.045   7.152  70.712  1.00  0.00    -0.242 SA 
ENDROOT
BRANCH   6  16
HETATM   16  O   UNL     1      -9.238   7.476  69.216  1.00  0.00    -0.145 OA 
BRANCH  16  17
HETATM   17  C   UNL     1      -9.479   7.608  67.805  1.00  0.00    -0.142 C  
HETATM   18  N   UNL     1      -9.726   9.860  66.593  1.00  0.00    -0.187 N  
HETATM   19  C   UNL     1     -10.461   8.752  67.441  1.00  0.00    -0.279 C  
HETATM   20  C   UNL     1      -9.173   9.189  65.326  1.00  0.00    -0.179 C  
HETATM   21  C   UNL     1      -8.561  10.384  67.444  1.00  0.00    -0.125 C  
HETATM   22  C   UNL     1      -8.293   7.998  65.671  1.00  0.00    -0.146 C  
HETATM   23  C   UNL     1      -7.573   9.243  67.698  1.00  0.00    -0.088 C  
HETATM   24  C   UNL     1      -8.109   7.896  67.176  1.00  0.00    -0.117 C  
BRANCH  18  25
HETATM   25  C   UNL     1     -10.773  10.976  66.305  1.00  0.00    -0.212 C  
BRANCH  25  26
HETATM   26  C   UNL     1     -11.402  11.698  67.508  1.00  0.00    -0.364 C  
BRANCH  26  27
HETATM   27  C   UNL     1     -12.108  13.000  67.155  1.00  0.00    -0.264 C  
BRANCH  27  28
HETATM   28  O   UNL     1     -12.008  13.967  68.190  1.00  0.00    -0.357 OA 
BRANCH  28  29
HETATM   29  C   UNL     1     -11.267  15.077  67.846  1.00  0.00    -0.323 A  
HETATM   30  C   UNL     1     -11.179  16.047  68.838  1.00  0.00    -0.353 A  
HETATM   31  C   UNL     1     -10.490  17.241  68.606  1.00  0.00    -0.356 A  
HETATM   32  C   UNL     1      -9.862  17.461  67.381  1.00  0.00    -0.281 A  
HETATM   33  C   UNL     1      -9.912  16.485  66.396  1.00  0.00    -0.318 A  
HETATM   34  C   UNL     1     -10.606  15.294  66.628  1.00  0.00    -0.304 A  
ENDBRANCH  28  29
ENDBRANCH  27  28
ENDBRANCH  26  27
ENDBRANCH  25  26
ENDBRANCH  18  25
ENDBRANCH  16  17
ENDBRANCH   6  16
TORSDOF 7
ENDMDL
MODEL      107
REMARK 921   NORMALIZED FREE ENERGY PREDICTED BY IDOCK:   -4.64 KCAL/MOL
REMARK 922        TOTAL FREE ENERGY PREDICTED BY IDOCK:   -8.18 KCAL/MOL
REMARK 923 INTER-LIGAND FREE ENERGY PREDICTED BY IDOCK:   -6.93 KCAL/MOL
REMARK 924 INTRA-LIGAND FREE ENERGY PREDICTED BY IDOCK:   -1.26 KCAL/MOL
REMARK 927      BINDING AFFINITY PREDICTED BY RF-SCORE:    0.00 PKD
ROOT
HETATM    1  O   UNL     1      -6.660   6.733  65.441  1.00  0.00    -0.048 OA 
HETATM    2  C   UNL     1      -7.597   7.714  65.911  1.00  0.00    -0.091 C  
HETATM    3  H   UNL     1      -7.010   6.347  64.646  1.00  0.00     0.000 HD 
HETATM    4  C   UNL     1      -8.884   6.949  66.244  1.00  0.00    -0.148 A  
HETATM    5  C   UNL     1      -7.778   8.698  64.757  1.00  0.00    -0.108 A  
HETATM    6  C   UNL     1      -7.017   8.352  67.228  1.00  0.00    -0.075 C  
HETATM    7  C   UNL     1     -11.110   6.286  67.113  1.00  0.00    -0.303 A  
HETATM    8  C   UNL     1      -9.186   5.617  66.003  1.00  0.00    -0.164 A  
HETATM    9  C   UNL     1      -8.791   8.742  63.808  1.00  0.00     0.143 A  
HETATM   10  O   UNL     1      -6.338   9.366  67.343  1.00  0.00    -0.060 OA 
HETATM   11  C   UNL     1     -10.458   5.235  66.513  1.00  0.00    -0.354 A  
HETATM   12  C   UNL     1      -8.602   9.755  62.825  1.00  0.00    -0.194 A  
HETATM   13  S   UNL     1      -6.560   9.855  64.361  1.00  0.00    -0.129 SA 
HETATM   14  C   UNL     1      -7.433  10.449  63.024  1.00  0.00    -0.098 A  
HETATM   15  S   UNL     1     -10.215   7.737  67.019  1.00  0.00    -0.323 SA 
ENDROOT
BRANCH   6  16
HETATM   16  O   UNL     1      -7.300   7.576  68.324  1.00  0.00    -0.090 OA 
BRANCH  16  17
HETATM   17  C   UNL     1      -7.214   8.188  69.622  1.00  0.00    -0.065 C  
HETATM   18  N   UNL     1      -9.175   8.341  71.274  1.00  0.00    -0.152 N  
HETATM   19  C   UNL     1      -8.477   8.995  70.020  1.00  0.00    -0.145 C  
HETATM   20  C   UNL     1      -8.153   8.321  72.422  1.00  0.00    -0.147 C  
HETATM   21  C   UNL     1      -9.540   6.900  70.890  1.00  0.00    -0.164 C  
HETATM   22  C   UNL     1      -6.868   7.625  72.004  1.00  0.00    -0.063 C  
HETATM   23  C   UNL     1      -8.257   6.120  70.596  1.00  0.00    -0.121 C  
HETATM   24  C   UNL     1      -7.016   7.033  70.612  1.00  0.00    -0.062 C  
BRANCH  18  25
HETATM   25  C   UNL     1     -10.443   9.191  71.579  1.00  0.00    -0.352 C  
BRANCH  25  26
HETATM   26  C   UNL     1     -11.712   8.906  70.759  1.00  0.00    -0.269 C  
BRANCH  26  27
HETATM   27  C   UNL     1     -12.625  10.112  70.584  1.00  0.00    -0.269 C  
BRANCH  27  28
HETATM   28  O   UNL     1     -12.643  10.948  71.732  1.00  0.00    -0.353 OA 
BRANCH  28  29
HETATM   29  C   UNL     1     -12.709  12.293  71.441  1.00  0.00    -0.248 A  
HETATM   30  C   UNL     1     -13.490  13.039  72.318  1.00  0.00    -0.645 A  
HETATM   31  C   UNL     1     -13.674  14.410  72.115  1.00  0.00    -0.557 A  
HETATM   32  C   UNL     1     -13.055  15.049  71.042  1.00  0.00    -0.482 A  
HETATM   33  C   UNL     1     -12.244  14.323  70.182  1.00  0.00    -0.407 A  
HETATM   34  C   UNL     1     -12.066  12.951  70.382  1.00  0.00    -0.385 A  
ENDBRANCH  28  29
ENDBRANCH  27  28
ENDBRANCH  26  27
ENDBRANCH  25  26
ENDBRANCH  18  25
ENDBRANCH  16  17
ENDBRANCH   6  16
TORSDOF 7
ENDMDL
MODEL      108
REMARK 921   NORMALIZED FREE ENERGY PREDICTED BY IDOCK:   -4.64 KCAL/MOL
REMARK 922        TOTAL FREE ENERGY PREDICTED BY IDOCK:   -8.18 KCAL/MOL
REMARK 923 INTER-LIGAND FREE ENERGY PREDICTED BY IDOCK:   -6.72 KCAL/MOL
REMARK 924 INTRA-LIGAND FREE ENERGY PREDICTED BY IDOCK:   -1.46 KCAL/MOL
REMARK 927      BINDING AFFINITY PREDICTED BY RF-SCORE:    0.00 PKD
ROOT
HETATM    1  O   UNL     1     -12.494  12.032  65.760  1.00  0.00    -0.366 OA 
HETATM    2  C   UNL     1     -11.174  12.211  66.295  1.00  0.00    -0.334 C  
HETATM    3  H   UNL     1     -13.100  12.524  66.301  1.00  0.00     0.000 HD 
HETATM    4  C   UNL     1     -11.200  11.607  67.704  1.00  0.00    -0.281 A  
HETATM    5  C   UNL     1     -10.933  13.719  66.303  1.00  0.00    -0.297 A  
HETATM    6  C   UNL     1     -10.169  11.395  65.398  1.00  0.00    -0.270 C  
HETATM    7  C   UNL     1     -10.567  10.663  69.909  1.00  0.00    -0.151 A  
HETATM    8  C   UNL     1     -12.286  11.128  68.421  1.00  0.00     0.143 A  
HETATM    9  C   UNL     1     -11.067  14.611  67.359  1.00  0.00    -0.331 A  
HETATM   10  O   UNL     1      -9.520  11.788  64.436  1.00  0.00    -0.111 OA 
HETATM   11  C   UNL     1     -11.920  10.576  69.680  1.00  0.00    -0.279 A  
HETATM   12  C   UNL     1     -10.833  15.965  66.988  1.00  0.00    -0.252 A  
HETATM   13  S   UNL     1     -10.607  14.587  64.847  1.00  0.00    -0.385 SA 
HETATM   14  C   UNL     1     -10.550  16.088  65.650  1.00  0.00    -0.377 A  
HETATM   15  S   UNL     1      -9.749  11.451  68.634  1.00  0.00    -0.142 SA 
ENDROOT
BRANCH   6  16
HETATM   16  O   UNL     1     -10.127  10.074  65.773  1.00  0.00    -0.273 OA 
BRANCH  16  17
HETATM   17  C   UNL     1      -8.869   9.387  65.672  1.00  0.00    -0.174 C  
HETATM   18  N   UNL     1      -7.737   8.165  67.628  1.00  0.00    -0.101 N  
HETATM   19  C   UNL     1      -7.960   9.555  66.918  1.00  0.00    -0.109 C  
HETATM   20  C   UNL     1      -7.093   7.215  66.605  1.00  0.00    -0.078 C  
HETATM   21  C   UNL     1      -9.120   7.630  68.023  1.00  0.00    -0.135 C  
HETATM   22  C   UNL     1      -7.924   7.127  65.336  1.00  0.00    -0.125 C  
HETATM   23  C   UNL     1      -9.946   7.392  66.757  1.00  0.00    -0.300 C  
HETATM   24  C   UNL     1      -9.221   7.903  65.498  1.00  0.00     0.146 C  
BRANCH  18  25
HETATM   25  C   UNL     1      -6.848   8.435  68.878  1.00  0.00    -0.061 C  
BRANCH  25  26
HETATM   26  C   UNL     1      -7.545   8.545  70.244  1.00  0.00    -0.075 C  
BRANCH  26  27
HETATM   27  C   UNL     1      -7.414   7.302  71.113  1.00  0.00    -0.079 C  
BRANCH  27  28
HETATM   28  O   UNL     1      -8.120   7.424  72.340  1.00  0.00    -0.097 OA 
BRANCH  28  29
HETATM   29  C   UNL     1      -9.490   7.350  72.205  1.00  0.00    -0.146 A  
HETATM   30  C   UNL     1      -9.946   6.231  71.517  1.00  0.00    -0.208 A  
HETATM   31  C   UNL     1     -11.312   6.053  71.275  1.00  0.00    -0.296 A  
HETATM   32  C   UNL     1     -12.234   6.987  71.743  1.00  0.00    -0.387 A  
HETATM   33  C   UNL     1     -11.794   8.089  72.464  1.00  0.00    -0.419 A  
HETATM   34  C   UNL     1     -10.428   8.269  72.699  1.00  0.00    -0.373 A  
ENDBRANCH  28  29
ENDBRANCH  27  28
ENDBRANCH  26  27
ENDBRANCH  25  26
ENDBRANCH  18  25
ENDBRANCH  16  17
ENDBRANCH   6  16
TORSDOF 7
ENDMDL
MODEL      109
REMARK 921   NORMALIZED FREE ENERGY PREDICTED BY IDOCK:   -4.62 KCAL/MOL
REMARK 922        TOTAL FREE ENERGY PREDICTED BY IDOCK:   -8.16 KCAL/MOL
REMARK 923 INTER-LIGAND FREE ENERGY PREDICTED BY IDOCK:   -6.63 KCAL/MOL
REMARK 924 INTRA-LIGAND FREE ENERGY PREDICTED BY IDOCK:   -1.53 KCAL/MOL
REMARK 927      BINDING AFFINITY PREDICTED BY RF-SCORE:    0.00 PKD
ROOT
HETATM    1  O   UNL     1      -9.573   7.547  71.280  1.00  0.00    -0.157 OA 
HETATM    2  C   UNL     1      -8.305   7.492  70.609  1.00  0.00    -0.126 C  
HETATM    3  H   UNL     1      -9.844   6.656  71.470  1.00  0.00     0.000 HD 
HETATM    4  C   UNL     1      -8.551   6.747  69.291  1.00  0.00    -0.129 A  
HETATM    5  C   UNL     1      -7.371   6.735  71.550  1.00  0.00    -0.085 A  
HETATM    6  C   UNL     1      -7.856   8.969  70.294  1.00  0.00    -0.109 C  
HETATM    7  C   UNL     1      -8.346   5.810  67.004  1.00  0.00    -0.108 A  
HETATM    8  C   UNL     1      -9.700   6.096  68.867  1.00  0.00    -0.151 A  
HETATM    9  C   UNL     1      -7.013   5.393  71.519  1.00  0.00    -0.066 A  
HETATM   10  O   UNL     1      -7.143   9.704  70.966  1.00  0.00    -0.295 OA 
HETATM   11  C   UNL     1      -9.585   5.569  67.550  1.00  0.00    -0.131 A  
HETATM   12  C   UNL     1      -6.177   5.006  72.604  1.00  0.00    -0.031 A  
HETATM   13  S   UNL     1      -6.737   7.473  72.976  1.00  0.00    -0.070 SA 
HETATM   14  C   UNL     1      -5.932   6.052  73.460  1.00  0.00    -0.061 A  
HETATM   15  S   UNL     1      -7.311   6.623  68.092  1.00  0.00    -0.092 SA 
ENDROOT
BRANCH   6  16
HETATM   16  O   UNL     1      -8.434   9.428  69.136  1.00  0.00    -0.125 OA 
BRANCH  16  17
HETATM   17  C   UNL     1      -9.605  10.255  69.253  1.00  0.00    -0.224 C  
HETATM   18  N   UNL     1     -10.181  12.169  67.639  1.00  0.00    -0.195 N  
HETATM   19  C   UNL     1      -9.356  11.748  68.915  1.00  0.00     0.090 C  
HETATM   20  C   UNL     1     -11.667  11.916  67.938  1.00  0.00    -0.298 C  
HETATM   21  C   UNL     1      -9.730  11.261  66.487  1.00  0.00    -0.202 C  
HETATM   22  C   UNL     1     -11.906  10.479  68.374  1.00  0.00     0.056 C  
HETATM   23  C   UNL     1     -10.081   9.810  66.825  1.00  0.00    -0.295 C  
HETATM   24  C   UNL     1     -10.622   9.673  68.261  1.00  0.00    -0.268 C  
BRANCH  18  25
HETATM   25  C   UNL     1      -9.844  13.663  67.356  1.00  0.00    -0.234 C  
BRANCH  25  26
HETATM   26  C   UNL     1      -9.635  14.592  68.564  1.00  0.00    -0.220 C  
BRANCH  26  27
HETATM   27  C   UNL     1     -10.724  15.641  68.739  1.00  0.00    -0.250 C  
BRANCH  27  28
HETATM   28  O   UNL     1     -12.017  15.064  68.858  1.00  0.00    -0.304 OA 
BRANCH  28  29
HETATM   29  C   UNL     1     -12.382  14.778  70.156  1.00  0.00    -0.330 A  
HETATM   30  C   UNL     1     -12.117  15.791  71.070  1.00  0.00    -0.464 A  
HETATM   31  C   UNL     1     -12.403  15.617  72.428  1.00  0.00    -0.519 A  
HETATM   32  C   UNL     1     -12.979  14.429  72.876  1.00  0.00    -0.575 A  
HETATM   33  C   UNL     1     -13.282  13.425  71.967  1.00  0.00    -0.531 A  
HETATM   34  C   UNL     1     -12.991  13.599  70.611  1.00  0.00    -0.134 A  
ENDBRANCH  28  29
ENDBRANCH  27  28
ENDBRANCH  26  27
ENDBRANCH  25  26
ENDBRANCH  18  25
ENDBRANCH  16  17
ENDBRANCH   6  16
TORSDOF 7
ENDMDL
MODEL      110
REMARK 921   NORMALIZED FREE ENERGY PREDICTED BY IDOCK:   -4.61 KCAL/MOL
REMARK 922        TOTAL FREE ENERGY PREDICTED BY IDOCK:   -8.15 KCAL/MOL
REMARK 923 INTER-LIGAND FREE ENERGY PREDICTED BY IDOCK:   -6.88 KCAL/MOL
REMARK 924 INTRA-LIGAND FREE ENERGY PREDICTED BY IDOCK:   -1.27 KCAL/MOL
REMARK 927      BINDING AFFINITY PREDICTED BY RF-SCORE:    0.00 PKD
ROOT
HETATM    1  O   UNL     1     -10.197   5.142  72.012  1.00  0.00    -0.190 OA 
HETATM    2  C   UNL     1      -8.824   5.288  71.620  1.00  0.00    -0.135 C  
HETATM    3  H   UNL     1     -10.479   4.265  71.780  1.00  0.00     0.000 HD 
HETATM    4  C   UNL     1      -8.798   5.134  70.094  1.00  0.00    -0.115 A  
HETATM    5  C   UNL     1      -8.069   4.172  72.339  1.00  0.00    -0.095 A  
HETATM    6  C   UNL     1      -8.359   6.742  72.003  1.00  0.00    -0.111 C  
HETATM    7  C   UNL     1      -8.139   5.162  67.703  1.00  0.00    -0.099 A  
HETATM    8  C   UNL     1      -9.829   4.765  69.244  1.00  0.00    -0.269 A  
HETATM    9  C   UNL     1      -7.680   2.933  71.845  1.00  0.00    -0.053 A  
HETATM   10  O   UNL     1      -7.804   7.115  73.031  1.00  0.00    -0.095 OA 
HETATM   11  C   UNL     1      -9.454   4.793  67.871  1.00  0.00    -0.181 A  
HETATM   12  C   UNL     1      -7.056   2.106  72.822  1.00  0.00    -0.027 A  
HETATM   13  S   UNL     1      -7.736   4.255  74.030  1.00  0.00    -0.085 SA 
HETATM   14  C   UNL     1      -7.003   2.717  74.052  1.00  0.00    -0.035 A  
HETATM   15  S   UNL     1      -7.349   5.424  69.194  1.00  0.00    -0.067 SA 
ENDROOT
BRANCH   6  16
HETATM   16  O   UNL     1      -8.717   7.650  71.037  1.00  0.00    -0.134 OA 
BRANCH  16  17
HETATM   17  C   UNL     1      -9.612   8.711  71.412  1.00  0.00    -0.243 C  
HETATM   18  N   UNL     1     -10.579  10.427  69.762  1.00  0.00    -0.260 N  
HETATM   19  C   UNL     1      -9.347  10.047  70.670  1.00  0.00     0.449 C  
HETATM   20  C   UNL     1     -11.813  10.541  70.672  1.00  0.00    -0.360 C  
HETATM   21  C   UNL     1     -10.782   9.275  68.768  1.00  0.00    -0.154 C  
HETATM   22  C   UNL     1     -12.019   9.272  71.484  1.00  0.00    -0.439 C  
HETATM   23  C   UNL     1     -11.132   8.001  69.541  1.00  0.00     0.026 C  
HETATM   24  C   UNL     1     -11.019   8.208  71.064  1.00  0.00    -0.273 C  
BRANCH  18  25
HETATM   25  C   UNL     1     -10.212  11.754  69.034  1.00  0.00    -0.021 C  
BRANCH  25  26
HETATM   26  C   UNL     1     -11.358  12.710  68.665  1.00  0.00    -0.331 C  
BRANCH  26  27
HETATM   27  C   UNL     1     -11.043  14.181  68.899  1.00  0.00    -0.263 C  
BRANCH  27  28
HETATM   28  O   UNL     1     -12.212  14.952  69.141  1.00  0.00    -0.250 OA 
BRANCH  28  29
HETATM   29  C   UNL     1     -12.405  15.269  70.468  1.00  0.00    -0.387 A  
HETATM   30  C   UNL     1     -13.709  15.101  70.920  1.00  0.00    -0.352 A  
HETATM   31  C   UNL     1     -14.052  15.424  72.237  1.00  0.00    -0.660 A  
HETATM   32  C   UNL     1     -13.081  15.896  73.118  1.00  0.00    -0.673 A  
HETATM   33  C   UNL     1     -11.768  16.032  72.689  1.00  0.00    -0.513 A  
HETATM   34  C   UNL     1     -11.429  15.715  71.370  1.00  0.00    -0.488 A  
ENDBRANCH  28  29
ENDBRANCH  27  28
ENDBRANCH  26  27
ENDBRANCH  25  26
ENDBRANCH  18  25
ENDBRANCH  16  17
ENDBRANCH   6  16
TORSDOF 7
ENDMDL
MODEL      111
REMARK 921   NORMALIZED FREE ENERGY PREDICTED BY IDOCK:   -4.61 KCAL/MOL
REMARK 922        TOTAL FREE ENERGY PREDICTED BY IDOCK:   -8.14 KCAL/MOL
REMARK 923 INTER-LIGAND FREE ENERGY PREDICTED BY IDOCK:   -6.78 KCAL/MOL
REMARK 924 INTRA-LIGAND FREE ENERGY PREDICTED BY IDOCK:   -1.36 KCAL/MOL
REMARK 927      BINDING AFFINITY PREDICTED BY RF-SCORE:    0.00 PKD
ROOT
HETATM    1  O   UNL     1      -9.797  13.234  69.203  1.00  0.00    -0.393 OA 
HETATM    2  C   UNL     1     -11.091  13.187  68.583  1.00  0.00    -0.269 C  
HETATM    3  H   UNL     1      -9.601  14.140  69.407  1.00  0.00     0.000 HD 
HETATM    4  C   UNL     1     -10.969  13.985  67.280  1.00  0.00    -0.295 A  
HETATM    5  C   UNL     1     -12.050  13.831  69.582  1.00  0.00    -0.336 A  
HETATM    6  C   UNL     1     -11.416  11.684  68.244  1.00  0.00    -0.303 C  
HETATM    7  C   UNL     1     -11.353  14.956  65.030  1.00  0.00    -0.398 A  
HETATM    8  C   UNL     1      -9.903  14.750  66.829  1.00  0.00    -0.263 A  
HETATM    9  C   UNL     1     -12.530  15.135  69.603  1.00  0.00    -0.171 A  
HETATM   10  O   UNL     1     -12.031  10.870  68.922  1.00  0.00    -0.395 OA 
HETATM   11  C   UNL     1     -10.120  15.296  65.534  1.00  0.00    -0.408 A  
HETATM   12  C   UNL     1     -13.353  15.416  70.731  1.00  0.00    -0.385 A  
HETATM   13  S   UNL     1     -12.554  13.003  71.010  1.00  0.00    -0.212 SA 
HETATM   14  C   UNL     1     -13.466  14.331  71.566  1.00  0.00    -0.351 A  
HETATM   15  S   UNL     1     -12.264  14.024  66.133  1.00  0.00    -0.450 SA 
ENDROOT
BRANCH   6  16
HETATM   16  O   UNL     1     -10.847  11.309  67.052  1.00  0.00    -0.253 OA 
BRANCH  16  17
HETATM   17  C   UNL     1      -9.576  10.639  67.096  1.00  0.00    -0.164 C  
HETATM   18  N   UNL     1      -8.796   8.918  65.356  1.00  0.00    -0.193 N  
HETATM   19  C   UNL     1      -9.637   9.149  66.670  1.00  0.00    -0.203 C  
HETATM   20  C   UNL     1      -7.348   9.346  65.645  1.00  0.00    -0.092 C  
HETATM   21  C   UNL     1      -9.390   9.827  64.271  1.00  0.00    -0.190 C  
HETATM   22  C   UNL     1      -7.289  10.772  66.167  1.00  0.00    -0.127 C  
HETATM   23  C   UNL     1      -9.223  11.288  64.694  1.00  0.00    -0.090 C  
HETATM   24  C   UNL     1      -8.669  11.408  66.126  1.00  0.00    -0.153 C  
BRANCH  18  25
HETATM   25  C   UNL     1      -8.942   7.412  64.985  1.00  0.00     0.482 C  
BRANCH  25  26
HETATM   26  C   UNL     1      -7.664   6.632  64.638  1.00  0.00    -0.112 C  
BRANCH  26  27
HETATM   27  C   UNL     1      -7.435   5.395  65.496  1.00  0.00    -0.077 C  
BRANCH  27  28
HETATM   28  O   UNL     1      -8.638   4.684  65.751  1.00  0.00    -0.118 OA 
BRANCH  28  29
HETATM   29  C   UNL     1      -8.971   3.780  64.766  1.00  0.00    -0.125 A  
HETATM   30  C   UNL     1     -10.296   3.835  64.350  1.00  0.00    -0.235 A  
HETATM   31  C   UNL     1     -10.776   2.945  63.383  1.00  0.00    -0.242 A  
HETATM   32  C   UNL     1      -9.920   2.007  62.809  1.00  0.00    -0.097 A  
HETATM   33  C   UNL     1      -8.586   1.967  63.189  1.00  0.00    -0.076 A  
HETATM   34  C   UNL     1      -8.110   2.853  64.159  1.00  0.00    -0.082 A  
ENDBRANCH  28  29
ENDBRANCH  27  28
ENDBRANCH  26  27
ENDBRANCH  25  26
ENDBRANCH  18  25
ENDBRANCH  16  17
ENDBRANCH   6  16
TORSDOF 7
ENDMDL
MODEL      112
REMARK 921   NORMALIZED FREE ENERGY PREDICTED BY IDOCK:   -4.57 KCAL/MOL
REMARK 922        TOTAL FREE ENERGY PREDICTED BY IDOCK:   -8.09 KCAL/MOL
REMARK 923 INTER-LIGAND FREE ENERGY PREDICTED BY IDOCK:   -6.09 KCAL/MOL
REMARK 924 INTRA-LIGAND FREE ENERGY PREDICTED BY IDOCK:   -1.99 KCAL/MOL
REMARK 927      BINDING AFFINITY PREDICTED BY RF-SCORE:    0.00 PKD
ROOT
HETATM    1  O   UNL     1      -9.183   7.960  66.036  1.00  0.00    -0.288 OA 
HETATM    2  C   UNL     1      -8.778   9.319  66.262  1.00  0.00    -0.142 C  
HETATM    3  H   UNL     1     -10.093   7.964  65.765  1.00  0.00     0.000 HD 
HETATM    4  C   UNL     1      -9.647   9.836  67.414  1.00  0.00    -0.155 A  
HETATM    5  C   UNL     1      -9.042  10.051  64.948  1.00  0.00    -0.221 A  
HETATM    6  C   UNL     1      -7.269   9.310  66.712  1.00  0.00    -0.083 C  
HETATM    7  C   UNL     1     -10.579  11.160  69.293  1.00  0.00    -0.175 A  
HETATM    8  C   UNL     1     -10.725   9.219  68.031  1.00  0.00    -0.231 A  
HETATM    9  C   UNL     1     -10.133  10.837  64.600  1.00  0.00    -0.410 A  
HETATM   10  O   UNL     1      -6.269   9.432  66.015  1.00  0.00    -0.064 OA 
HETATM   11  C   UNL     1     -11.251   9.973  69.117  1.00  0.00    -0.197 A  
HETATM   12  C   UNL     1     -10.086  11.306  63.256  1.00  0.00    -0.428 A  
HETATM   13  S   UNL     1      -8.021   9.833  63.575  1.00  0.00    -0.156 SA 
HETATM   14  C   UNL     1      -8.973  10.848  62.593  1.00  0.00    -0.319 A  
HETATM   15  S   UNL     1      -9.353  11.386  68.126  1.00  0.00    -0.187 SA 
ENDROOT
BRANCH   6  16
HETATM   16  O   UNL     1      -7.154   9.066  68.059  1.00  0.00    -0.077 OA 
BRANCH  16  17
HETATM   17  C   UNL     1      -6.227   8.051  68.480  1.00  0.00    -0.045 C  
HETATM   18  N   UNL     1      -6.373   6.812  70.726  1.00  0.00    -0.042 N  
HETATM   19  C   UNL     1      -5.871   8.113  69.988  1.00  0.00    -0.022 C  
HETATM   20  C   UNL     1      -5.701   5.604  70.053  1.00  0.00    -0.016 C  
HETATM   21  C   UNL     1      -7.892   6.732  70.520  1.00  0.00    -0.105 C  
HETATM   22  C   UNL     1      -5.955   5.595  68.554  1.00  0.00    -0.017 C  
HETATM   23  C   UNL     1      -8.188   6.578  69.026  1.00  0.00    -0.116 C  
HETATM   24  C   UNL     1      -6.912   6.712  68.174  1.00  0.00    -0.077 C  
BRANCH  18  25
HETATM   25  C   UNL     1      -6.006   6.976  72.230  1.00  0.00    -0.038 C  
BRANCH  25  26
HETATM   26  C   UNL     1      -6.879   7.911  73.084  1.00  0.00    -0.103 C  
BRANCH  26  27
HETATM   27  C   UNL     1      -7.728   7.194  74.124  1.00  0.00    -0.111 C  
BRANCH  27  28
HETATM   28  O   UNL     1      -8.994   7.812  74.307  1.00  0.00    -0.224 OA 
BRANCH  28  29
HETATM   29  C   UNL     1     -10.000   7.257  73.547  1.00  0.00    -0.320 A  
HETATM   30  C   UNL     1     -10.625   8.142  72.675  1.00  0.00    -0.414 A  
HETATM   31  C   UNL     1     -11.689   7.718  71.873  1.00  0.00    -0.335 A  
HETATM   32  C   UNL     1     -12.121   6.394  71.925  1.00  0.00    -0.362 A  
HETATM   33  C   UNL     1     -11.481   5.492  72.764  1.00  0.00    -0.339 A  
HETATM   34  C   UNL     1     -10.421   5.919  73.569  1.00  0.00    -0.274 A  
ENDBRANCH  28  29
ENDBRANCH  27  28
ENDBRANCH  26  27
ENDBRANCH  25  26
ENDBRANCH  18  25
ENDBRANCH  16  17
ENDBRANCH   6  16
TORSDOF 7
ENDMDL
MODEL      113
REMARK 921   NORMALIZED FREE ENERGY PREDICTED BY IDOCK:   -4.56 KCAL/MOL
REMARK 922        TOTAL FREE ENERGY PREDICTED BY IDOCK:   -8.08 KCAL/MOL
REMARK 923 INTER-LIGAND FREE ENERGY PREDICTED BY IDOCK:   -6.89 KCAL/MOL
REMARK 924 INTRA-LIGAND FREE ENERGY PREDICTED BY IDOCK:   -1.18 KCAL/MOL
REMARK 927      BINDING AFFINITY PREDICTED BY RF-SCORE:    0.00 PKD
ROOT
HETATM    1  O   UNL     1     -10.093  14.753  66.402  1.00  0.00    -0.261 OA 
HETATM    2  C   UNL     1      -9.640  15.373  67.616  1.00  0.00    -0.210 C  
HETATM    3  H   UNL     1     -10.928  15.139  66.168  1.00  0.00     0.000 HD 
HETATM    4  C   UNL     1     -10.679  15.021  68.687  1.00  0.00    -0.244 A  
HETATM    5  C   UNL     1      -9.582  16.869  67.317  1.00  0.00    -0.246 A  
HETATM    6  C   UNL     1      -8.256  14.731  68.005  1.00  0.00    -0.142 C  
HETATM    7  C   UNL     1     -11.863  14.658  70.836  1.00  0.00    -0.313 A  
HETATM    8  C   UNL     1     -11.901  14.384  68.532  1.00  0.00    -0.369 A  
HETATM    9  C   UNL     1     -10.520  17.848  67.619  1.00  0.00    -0.406 A  
HETATM   10  O   UNL     1      -7.131  15.127  67.723  1.00  0.00    -0.132 OA 
HETATM   11  C   UNL     1     -12.574  14.165  69.767  1.00  0.00    -0.151 A  
HETATM   12  C   UNL     1     -10.172  19.136  67.122  1.00  0.00    -0.489 A  
HETATM   13  S   UNL     1      -8.327  17.546  66.345  1.00  0.00    -0.243 SA 
HETATM   14  C   UNL     1      -8.987  19.114  66.427  1.00  0.00    -0.342 A  
HETATM   15  S   UNL     1     -10.417  15.424  70.349  1.00  0.00    -0.053 SA 
ENDROOT
BRANCH   6  16
HETATM   16  O   UNL     1      -8.428  13.552  68.687  1.00  0.00    -0.124 OA 
BRANCH  16  17
HETATM   17  C   UNL     1      -8.906  12.413  67.950  1.00  0.00    -0.180 C  
HETATM   18  N   UNL     1      -7.378  10.730  66.754  1.00  0.00    -0.122 N  
HETATM   19  C   UNL     1      -8.106  12.124  66.653  1.00  0.00     0.018 C  
HETATM   20  C   UNL     1      -8.453   9.656  66.986  1.00  0.00    -0.124 C  
HETATM   21  C   UNL     1      -6.447  10.791  67.973  1.00  0.00    -0.062 C  
HETATM   22  C   UNL     1      -9.312   9.987  68.195  1.00  0.00    -0.137 C  
HETATM   23  C   UNL     1      -7.288  10.984  69.237  1.00  0.00    -0.113 C  
HETATM   24  C   UNL     1      -8.774  11.218  68.904  1.00  0.00    -0.053 C  
BRANCH  18  25
HETATM   25  C   UNL     1      -6.578  10.541  65.431  1.00  0.00    -0.074 C  
BRANCH  25  26
HETATM   26  C   UNL     1      -7.285   9.838  64.260  1.00  0.00    -0.129 C  
BRANCH  26  27
HETATM   27  C   UNL     1      -8.327  10.696  63.556  1.00  0.00    -0.053 C  
BRANCH  27  28
HETATM   28  O   UNL     1      -9.637  10.158  63.670  1.00  0.00    -0.294 OA 
BRANCH  28  29
HETATM   29  C   UNL     1     -10.587  11.080  64.054  1.00  0.00    -0.324 A  
HETATM   30  C   UNL     1     -11.017  11.927  63.039  1.00  0.00    -0.103 A  
HETATM   31  C   UNL     1     -11.950  12.935  63.301  1.00  0.00    -0.516 A  
HETATM   32  C   UNL     1     -12.477  13.086  64.582  1.00  0.00    -0.460 A  
HETATM   33  C   UNL     1     -12.083  12.223  65.595  1.00  0.00    -0.306 A  
HETATM   34  C   UNL     1     -11.146  11.219  65.333  1.00  0.00    -0.138 A  
ENDBRANCH  28  29
ENDBRANCH  27  28
ENDBRANCH  26  27
ENDBRANCH  25  26
ENDBRANCH  18  25
ENDBRANCH  16  17
ENDBRANCH   6  16
TORSDOF 7
ENDMDL
MODEL      114
REMARK 921   NORMALIZED FREE ENERGY PREDICTED BY IDOCK:   -4.55 KCAL/MOL
REMARK 922        TOTAL FREE ENERGY PREDICTED BY IDOCK:   -8.06 KCAL/MOL
REMARK 923 INTER-LIGAND FREE ENERGY PREDICTED BY IDOCK:   -7.46 KCAL/MOL
REMARK 924 INTRA-LIGAND FREE ENERGY PREDICTED BY IDOCK:   -0.60 KCAL/MOL
REMARK 927      BINDING AFFINITY PREDICTED BY RF-SCORE:    0.00 PKD
ROOT
HETATM    1  O   UNL     1      -9.963  14.429  70.216  1.00  0.00     0.084 OA 
HETATM    2  C   UNL     1     -11.384  14.504  70.021  1.00  0.00    -0.224 C  
HETATM    3  H   UNL     1      -9.797  13.841  70.944  1.00  0.00     0.000 HD 
HETATM    4  C   UNL     1     -11.959  15.113  71.304  1.00  0.00    -0.344 A  
HETATM    5  C   UNL     1     -11.845  13.067  69.790  1.00  0.00    -0.311 A  
HETATM    6  C   UNL     1     -11.659  15.478  68.814  1.00  0.00    -0.378 C  
HETATM    7  C   UNL     1     -13.434  16.190  72.984  1.00  0.00    -0.337 A  
HETATM    8  C   UNL     1     -11.309  15.395  72.496  1.00  0.00    -0.317 A  
HETATM    9  C   UNL     1     -12.403  12.181  70.703  1.00  0.00    -0.385 A  
HETATM   10  O   UNL     1     -11.801  15.198  67.630  1.00  0.00    -0.294 OA 
HETATM   11  C   UNL     1     -12.152  16.023  73.455  1.00  0.00    -0.587 A  
HETATM   12  C   UNL     1     -12.646  10.888  70.159  1.00  0.00    -0.304 A  
HETATM   13  S   UNL     1     -11.546  12.253  68.298  1.00  0.00    -0.347 SA 
HETATM   14  C   UNL     1     -12.244  10.799  68.849  1.00  0.00     0.105 A  
HETATM   15  S   UNL     1     -13.631  15.548  71.414  1.00  0.00    -0.363 SA 
ENDROOT
BRANCH   6  16
HETATM   16  O   UNL     1     -11.659  16.789  69.224  1.00  0.00     0.073 OA 
BRANCH  16  17
HETATM   17  C   UNL     1     -10.402  17.485  69.248  1.00  0.00    -0.160 C  
HETATM   18  N   UNL     1      -8.817  17.663  67.234  1.00  0.00    -0.233 N  
HETATM   19  C   UNL     1      -9.275  16.775  68.453  1.00  0.00    -0.229 C  
HETATM   20  C   UNL     1      -8.328  19.009  67.793  1.00  0.00    -0.288 C  
HETATM   21  C   UNL     1     -10.052  17.895  66.352  1.00  0.00    -0.369 C  
HETATM   22  C   UNL     1      -9.389  19.664  68.663  1.00  0.00    -0.386 C  
HETATM   23  C   UNL     1     -11.097  18.680  67.149  1.00  0.00     0.021 C  
HETATM   24  C   UNL     1     -10.677  18.859  68.620  1.00  0.00     0.276 C  
BRANCH  18  25
HETATM   25  C   UNL     1      -7.716  16.861  66.479  1.00  0.00    -0.291 C  
BRANCH  25  26
HETATM   26  C   UNL     1      -7.527  15.380  66.849  1.00  0.00    -0.054 C  
BRANCH  26  27
HETATM   27  C   UNL     1      -8.647  14.469  66.367  1.00  0.00     0.192 C  
BRANCH  27  28
HETATM   28  O   UNL     1      -9.377  15.035  65.287  1.00  0.00     0.027 OA 
BRANCH  28  29
HETATM   29  C   UNL     1     -10.381  14.223  64.807  1.00  0.00    -0.343 A  
HETATM   30  C   UNL     1     -10.087  12.864  64.823  1.00  0.00    -0.242 A  
HETATM   31  C   UNL     1     -11.004  11.932  64.328  1.00  0.00    -0.411 A  
HETATM   32  C   UNL     1     -12.236  12.356  63.832  1.00  0.00    -0.603 A  
HETATM   33  C   UNL     1     -12.556  13.706  63.844  1.00  0.00    -0.125 A  
HETATM   34  C   UNL     1     -11.636  14.637  64.335  1.00  0.00    -0.315 A  
ENDBRANCH  28  29
ENDBRANCH  27  28
ENDBRANCH  26  27
ENDBRANCH  25  26
ENDBRANCH  18  25
ENDBRANCH  16  17
ENDBRANCH   6  16
TORSDOF 7
ENDMDL
MODEL      115
REMARK 921   NORMALIZED FREE ENERGY PREDICTED BY IDOCK:   -4.53 KCAL/MOL
REMARK 922        TOTAL FREE ENERGY PREDICTED BY IDOCK:   -8.04 KCAL/MOL
REMARK 923 INTER-LIGAND FREE ENERGY PREDICTED BY IDOCK:   -6.18 KCAL/MOL
REMARK 924 INTRA-LIGAND FREE ENERGY PREDICTED BY IDOCK:   -1.85 KCAL/MOL
REMARK 927      BINDING AFFINITY PREDICTED BY RF-SCORE:    0.00 PKD
ROOT
HETATM    1  O   UNL     1      -8.971  10.242  70.077  1.00  0.00    -0.388 OA 
HETATM    2  C   UNL     1     -10.159  10.196  69.273  1.00  0.00    -0.222 C  
HETATM    3  H   UNL     1      -8.966  11.066  70.551  1.00  0.00     0.000 HD 
HETATM    4  C   UNL     1     -10.041  11.353  68.273  1.00  0.00    -0.196 A  
HETATM    5  C   UNL     1     -11.323  10.372  70.245  1.00  0.00    -0.328 A  
HETATM    6  C   UNL     1     -10.165   8.831  68.488  1.00  0.00    -0.195 C  
HETATM    7  C   UNL     1     -10.346  12.882  66.343  1.00  0.00    -0.268 A  
HETATM    8  C   UNL     1      -9.089  12.361  68.224  1.00  0.00    -0.183 A  
HETATM    9  C   UNL     1     -12.032  11.528  70.546  1.00  0.00    -0.439 A  
HETATM   10  O   UNL     1     -10.691   7.773  68.812  1.00  0.00    -0.170 OA 
HETATM   11  C   UNL     1      -9.258  13.230  67.110  1.00  0.00    -0.235 A  
HETATM   12  C   UNL     1     -13.011  11.342  71.562  1.00  0.00    -0.505 A  
HETATM   13  S   UNL     1     -11.821   9.095  71.293  1.00  0.00    -0.349 SA 
HETATM   14  C   UNL     1     -13.015  10.054  72.040  1.00  0.00    -0.416 A  
HETATM   15  S   UNL     1     -11.187  11.545  66.992  1.00  0.00    -0.266 SA 
ENDROOT
BRANCH   6  16
HETATM   16  O   UNL     1      -9.409   8.911  67.344  1.00  0.00    -0.133 OA 
BRANCH  16  17
HETATM   17  C   UNL     1      -8.361   7.944  67.163  1.00  0.00    -0.117 C  
HETATM   18  N   UNL     1      -7.876   6.749  64.941  1.00  0.00    -0.113 N  
HETATM   19  C   UNL     1      -8.756   6.754  66.249  1.00  0.00    -0.146 C  
HETATM   20  C   UNL     1      -6.403   6.645  65.368  1.00  0.00    -0.042 C  
HETATM   21  C   UNL     1      -8.109   8.090  64.232  1.00  0.00    -0.117 C  
HETATM   22  C   UNL     1      -6.034   7.746  66.349  1.00  0.00    -0.041 C  
HETATM   23  C   UNL     1      -7.618   9.225  65.133  1.00  0.00    -0.106 C  
HETATM   24  C   UNL     1      -7.196   8.711  66.522  1.00  0.00    -0.080 C  
BRANCH  18  25
HETATM   25  C   UNL     1      -8.363   5.550  64.074  1.00  0.00    -0.091 C  
BRANCH  25  26
HETATM   26  C   UNL     1      -7.722   4.175  64.328  1.00  0.00    -0.084 C  
BRANCH  26  27
HETATM   27  C   UNL     1      -8.589   3.225  65.142  1.00  0.00    -0.109 C  
BRANCH  27  28
HETATM   28  O   UNL     1      -7.920   2.740  66.298  1.00  0.00    -0.080 OA 
BRANCH  28  29
HETATM   29  C   UNL     1      -8.200   3.451  67.444  1.00  0.00    -0.086 A  
HETATM   30  C   UNL     1      -7.118   4.142  67.978  1.00  0.00    -0.059 A  
HETATM   31  C   UNL     1      -7.255   4.873  69.162  1.00  0.00    -0.053 A  
HETATM   32  C   UNL     1      -8.489   4.935  69.808  1.00  0.00    -0.091 A  
HETATM   33  C   UNL     1      -9.585   4.280  69.265  1.00  0.00    -0.261 A  
HETATM   34  C   UNL     1      -9.445   3.545  68.084  1.00  0.00    -0.215 A  
ENDBRANCH  28  29
ENDBRANCH  27  28
ENDBRANCH  26  27
ENDBRANCH  25  26
ENDBRANCH  18  25
ENDBRANCH  16  17
ENDBRANCH   6  16
TORSDOF 7
ENDMDL
MODEL      116
REMARK 921   NORMALIZED FREE ENERGY PREDICTED BY IDOCK:   -4.51 KCAL/MOL
REMARK 922        TOTAL FREE ENERGY PREDICTED BY IDOCK:   -8.00 KCAL/MOL
REMARK 923 INTER-LIGAND FREE ENERGY PREDICTED BY IDOCK:   -6.91 KCAL/MOL
REMARK 924 INTRA-LIGAND FREE ENERGY PREDICTED BY IDOCK:   -1.10 KCAL/MOL
REMARK 927      BINDING AFFINITY PREDICTED BY RF-SCORE:    0.00 PKD
ROOT
HETATM    1  O   UNL     1     -11.122  17.758  67.522  1.00  0.00    -0.188 OA 
HETATM    2  C   UNL     1     -10.221  16.649  67.387  1.00  0.00    -0.286 C  
HETATM    3  H   UNL     1     -11.001  18.133  68.386  1.00  0.00     0.000 HD 
HETATM    4  C   UNL     1     -10.645  15.624  68.446  1.00  0.00    -0.252 A  
HETATM    5  C   UNL     1      -8.826  17.216  67.638  1.00  0.00    -0.218 A  
HETATM    6  C   UNL     1     -10.424  16.028  65.953  1.00  0.00    -0.359 C  
HETATM    7  C   UNL     1     -10.943  13.556  69.782  1.00  0.00     0.207 A  
HETATM    8  C   UNL     1     -11.585  15.762  69.456  1.00  0.00    -0.368 A  
HETATM    9  C   UNL     1      -8.079  17.187  68.809  1.00  0.00    -0.252 A  
HETATM   10  O   UNL     1      -9.809  16.281  64.924  1.00  0.00    -0.149 OA 
HETATM   11  C   UNL     1     -11.764  14.571  70.214  1.00  0.00    -0.356 A  
HETATM   12  C   UNL     1      -6.842  17.885  68.708  1.00  0.00    -0.255 A  
HETATM   13  S   UNL     1      -8.022  18.187  66.460  1.00  0.00    -0.263 SA 
HETATM   14  C   UNL     1      -6.678  18.458  67.470  1.00  0.00    -0.198 A  
HETATM   15  S   UNL     1      -9.928  14.051  68.502  1.00  0.00    -0.210 SA 
ENDROOT
BRANCH   6  16
HETATM   16  O   UNL     1     -11.482  15.154  65.935  1.00  0.00    -0.284 OA 
BRANCH  16  17
HETATM   17  C   UNL     1     -11.658  14.336  64.766  1.00  0.00    -0.401 C  
HETATM   18  N   UNL     1     -10.596  12.016  64.461  1.00  0.00    -0.294 N  
HETATM   19  C   UNL     1     -10.378  13.573  64.336  1.00  0.00    -0.281 C  
HETATM   20  C   UNL     1     -11.787  11.638  63.565  1.00  0.00    -0.260 C  
HETATM   21  C   UNL     1     -10.947  11.724  65.926  1.00  0.00    -0.304 C  
HETATM   22  C   UNL     1     -13.019  12.458  63.908  1.00  0.00    -0.271 C  
HETATM   23  C   UNL     1     -12.264  12.421  66.276  1.00  0.00    -0.062 C  
HETATM   24  C   UNL     1     -12.754  13.325  65.128  1.00  0.00    -0.464 C  
BRANCH  18  25
HETATM   25  C   UNL     1      -9.258  11.337  64.045  1.00  0.00    -0.046 C  
BRANCH  25  26
HETATM   26  C   UNL     1      -9.203   9.800  64.047  1.00  0.00    -0.267 C  
BRANCH  26  27
HETATM   27  C   UNL     1      -8.492   9.203  65.254  1.00  0.00    -0.154 C  
BRANCH  27  28
HETATM   28  O   UNL     1      -7.265   9.861  65.538  1.00  0.00    -0.109 OA 
BRANCH  28  29
HETATM   29  C   UNL     1      -7.127  10.237  66.856  1.00  0.00    -0.092 A  
HETATM   30  C   UNL     1      -6.396  11.403  67.054  1.00  0.00    -0.122 A  
HETATM   31  C   UNL     1      -6.147  11.876  68.346  1.00  0.00    -0.050 A  
HETATM   32  C   UNL     1      -6.650  11.192  69.451  1.00  0.00    -0.109 A  
HETATM   33  C   UNL     1      -7.412  10.047  69.265  1.00  0.00    -0.103 A  
HETATM   34  C   UNL     1      -7.655   9.573  67.973  1.00  0.00    -0.086 A  
ENDBRANCH  28  29
ENDBRANCH  27  28
ENDBRANCH  26  27
ENDBRANCH  25  26
ENDBRANCH  18  25
ENDBRANCH  16  17
ENDBRANCH   6  16
TORSDOF 7
ENDMDL
MODEL      117
REMARK 921   NORMALIZED FREE ENERGY PREDICTED BY IDOCK:   -4.48 KCAL/MOL
REMARK 922        TOTAL FREE ENERGY PREDICTED BY IDOCK:   -7.97 KCAL/MOL
REMARK 923 INTER-LIGAND FREE ENERGY PREDICTED BY IDOCK:   -6.79 KCAL/MOL
REMARK 924 INTRA-LIGAND FREE ENERGY PREDICTED BY IDOCK:   -1.18 KCAL/MOL
REMARK 927      BINDING AFFINITY PREDICTED BY RF-SCORE:    0.00 PKD
ROOT
HETATM    1  O   UNL     1      -7.254   5.050  70.035  1.00  0.00    -0.055 OA 
HETATM    2  C   UNL     1      -8.310   5.158  69.068  1.00  0.00    -0.087 C  
HETATM    3  H   UNL     1      -7.505   4.392  70.673  1.00  0.00     0.000 HD 
HETATM    4  C   UNL     1      -9.544   5.644  69.838  1.00  0.00    -0.161 A  
HETATM    5  C   UNL     1      -8.488   3.755  68.492  1.00  0.00    -0.087 A  
HETATM    6  C   UNL     1      -7.895   6.249  68.011  1.00  0.00    -0.104 C  
HETATM    7  C   UNL     1     -11.764   6.564  70.455  1.00  0.00    -0.375 A  
HETATM    8  C   UNL     1      -9.705   5.800  71.206  1.00  0.00    -0.210 A  
HETATM    9  C   UNL     1      -9.424   2.789  68.840  1.00  0.00    -0.171 A  
HETATM   10  O   UNL     1      -7.322   6.088  66.940  1.00  0.00    -0.073 OA 
HETATM   11  C   UNL     1     -10.974   6.339  71.559  1.00  0.00    -0.322 A  
HETATM   12  C   UNL     1      -9.250   1.558  68.146  1.00  0.00    -0.212 A  
HETATM   13  S   UNL     1      -7.352   3.089  67.376  1.00  0.00    -0.058 SA 
HETATM   14  C   UNL     1      -8.168   1.595  67.300  1.00  0.00    -0.073 A  
HETATM   15  S   UNL     1     -10.998   6.082  69.007  1.00  0.00    -0.290 SA 
ENDROOT
BRANCH   6  16
HETATM   16  O   UNL     1      -8.192   7.513  68.458  1.00  0.00    -0.123 OA 
BRANCH  16  17
HETATM   17  C   UNL     1      -7.479   8.617  67.874  1.00  0.00    -0.097 C  
HETATM   18  N   UNL     1      -8.529  10.909  67.381  1.00  0.00    -0.120 N  
HETATM   19  C   UNL     1      -8.315   9.437  66.858  1.00  0.00    -0.127 C  
HETATM   20  C   UNL     1      -7.142  11.539  67.586  1.00  0.00    -0.098 C  
HETATM   21  C   UNL     1      -9.249  10.809  68.733  1.00  0.00    -0.189 C  
HETATM   22  C   UNL     1      -6.277  10.686  68.498  1.00  0.00    -0.049 C  
HETATM   23  C   UNL     1      -8.348  10.074  69.728  1.00  0.00    -0.187 C  
HETATM   24  C   UNL     1      -7.080   9.520  69.050  1.00  0.00    -0.066 C  
BRANCH  18  25
HETATM   25  C   UNL     1      -9.401  11.643  66.321  1.00  0.00    -0.216 C  
BRANCH  25  26
HETATM   26  C   UNL     1     -10.927  11.474  66.405  1.00  0.00    -0.336 C  
BRANCH  26  27
HETATM   27  C   UNL     1     -11.700  12.250  65.348  1.00  0.00    -0.370 C  
BRANCH  27  28
HETATM   28  O   UNL     1     -12.507  13.275  65.911  1.00  0.00    -0.426 OA 
BRANCH  28  29
HETATM   29  C   UNL     1     -11.796  14.384  66.317  1.00  0.00    -0.379 A  
HETATM   30  C   UNL     1     -11.049  14.993  65.315  1.00  0.00    -0.391 A  
HETATM   31  C   UNL     1     -10.251  16.105  65.600  1.00  0.00    -0.390 A  
HETATM   32  C   UNL     1     -10.215  16.629  66.891  1.00  0.00    -0.291 A  
HETATM   33  C   UNL     1     -10.985  16.052  67.891  1.00  0.00    -0.327 A  
HETATM   34  C   UNL     1     -11.778  14.937  67.606  1.00  0.00    -0.329 A  
ENDBRANCH  28  29
ENDBRANCH  27  28
ENDBRANCH  26  27
ENDBRANCH  25  26
ENDBRANCH  18  25
ENDBRANCH  16  17
ENDBRANCH   6  16
TORSDOF 7
ENDMDL
MODEL      118
REMARK 921   NORMALIZED FREE ENERGY PREDICTED BY IDOCK:   -4.47 KCAL/MOL
REMARK 922        TOTAL FREE ENERGY PREDICTED BY IDOCK:   -7.95 KCAL/MOL
REMARK 923 INTER-LIGAND FREE ENERGY PREDICTED BY IDOCK:   -6.63 KCAL/MOL
REMARK 924 INTRA-LIGAND FREE ENERGY PREDICTED BY IDOCK:   -1.32 KCAL/MOL
REMARK 927      BINDING AFFINITY PREDICTED BY RF-SCORE:    0.00 PKD
ROOT
HETATM    1  O   UNL     1      -9.679  13.410  69.202  1.00  0.00    -0.385 OA 
HETATM    2  C   UNL     1     -10.990  13.301  68.626  1.00  0.00    -0.264 C  
HETATM    3  H   UNL     1      -9.506  14.329  69.368  1.00  0.00     0.000 HD 
HETATM    4  C   UNL     1     -10.933  14.055  67.292  1.00  0.00    -0.295 A  
HETATM    5  C   UNL     1     -11.938  13.950  69.632  1.00  0.00    -0.342 A  
HETATM    6  C   UNL     1     -11.276  11.778  68.349  1.00  0.00    -0.251 C  
HETATM    7  C   UNL     1     -11.418  14.933  65.023  1.00  0.00    -0.379 A  
HETATM    8  C   UNL     1      -9.907  14.837  66.782  1.00  0.00    -0.263 A  
HETATM    9  C   UNL     1     -12.459  15.238  69.623  1.00  0.00    -0.174 A  
HETATM   10  O   UNL     1     -11.842  10.969  69.075  1.00  0.00    -0.310 OA 
HETATM   11  C   UNL     1     -10.181  15.330  65.475  1.00  0.00    -0.417 A  
HETATM   12  C   UNL     1     -13.255  15.533  70.765  1.00  0.00    -0.391 A  
HETATM   13  S   UNL     1     -12.371  13.158  71.102  1.00  0.00    -0.071 SA 
HETATM   14  C   UNL     1     -13.307  14.475  71.641  1.00  0.00    -0.363 A  
HETATM   15  S   UNL     1     -12.264  14.013  66.187  1.00  0.00    -0.450 SA 
ENDROOT
BRANCH   6  16
HETATM   16  O   UNL     1     -10.732  11.378  67.153  1.00  0.00    -0.223 OA 
BRANCH  16  17
HETATM   17  C   UNL     1      -9.394  10.851  67.167  1.00  0.00    -0.159 C  
HETATM   18  N   UNL     1      -8.783   8.501  68.006  1.00  0.00    -0.141 N  
HETATM   19  C   UNL     1      -9.069   9.996  68.419  1.00  0.00    -0.121 C  
HETATM   20  C   UNL     1      -7.600   8.506  67.024  1.00  0.00    -0.092 C  
HETATM   21  C   UNL     1     -10.037   7.979  67.293  1.00  0.00    -0.240 C  
HETATM   22  C   UNL     1      -7.866   9.427  65.844  1.00  0.00    -0.099 C  
HETATM   23  C   UNL     1     -10.263   8.793  66.017  1.00  0.00     0.138 C  
HETATM   24  C   UNL     1      -9.282   9.976  65.911  1.00  0.00    -0.211 C  
BRANCH  18  25
HETATM   25  C   UNL     1      -8.502   7.716  69.321  1.00  0.00    -0.138 C  
BRANCH  25  26
HETATM   26  C   UNL     1      -7.083   7.166  69.539  1.00  0.00    -0.071 C  
BRANCH  26  27
HETATM   27  C   UNL     1      -7.005   5.647  69.603  1.00  0.00    -0.063 C  
BRANCH  27  28
HETATM   28  O   UNL     1      -6.558   5.077  68.380  1.00  0.00    -0.042 OA 
BRANCH  28  29
HETATM   29  C   UNL     1      -7.557   4.911  67.446  1.00  0.00    -0.090 A  
HETATM   30  C   UNL     1      -7.170   5.153  66.133  1.00  0.00    -0.073 A  
HETATM   31  C   UNL     1      -8.096   5.058  65.089  1.00  0.00    -0.112 A  
HETATM   32  C   UNL     1      -9.415   4.696  65.354  1.00  0.00    -0.176 A  
HETATM   33  C   UNL     1      -9.805   4.415  66.656  1.00  0.00    -0.246 A  
HETATM   34  C   UNL     1      -8.879   4.516  67.699  1.00  0.00    -0.117 A  
ENDBRANCH  28  29
ENDBRANCH  27  28
ENDBRANCH  26  27
ENDBRANCH  25  26
ENDBRANCH  18  25
ENDBRANCH  16  17
ENDBRANCH   6  16
TORSDOF 7
ENDMDL
MODEL      119
REMARK 921   NORMALIZED FREE ENERGY PREDICTED BY IDOCK:   -4.41 KCAL/MOL
REMARK 922        TOTAL FREE ENERGY PREDICTED BY IDOCK:   -7.86 KCAL/MOL
REMARK 923 INTER-LIGAND FREE ENERGY PREDICTED BY IDOCK:   -6.09 KCAL/MOL
REMARK 924 INTRA-LIGAND FREE ENERGY PREDICTED BY IDOCK:   -1.77 KCAL/MOL
REMARK 927      BINDING AFFINITY PREDICTED BY RF-SCORE:    0.00 PKD
ROOT
HETATM    1  O   UNL     1     -10.465  15.954  66.307  1.00  0.00    -0.301 OA 
HETATM    2  C   UNL     1      -9.662  15.960  67.496  1.00  0.00    -0.223 C  
HETATM    3  H   UNL     1     -11.078  16.678  66.361  1.00  0.00     0.000 HD 
HETATM    4  C   UNL     1     -10.627  15.720  68.664  1.00  0.00    -0.250 A  
HETATM    5  C   UNL     1      -9.008  17.339  67.545  1.00  0.00    -0.222 A  
HETATM    6  C   UNL     1      -8.647  14.760  67.406  1.00  0.00    -0.196 C  
HETATM    7  C   UNL     1     -11.609  15.198  70.881  1.00  0.00    -0.338 A  
HETATM    8  C   UNL     1     -12.013  15.668  68.645  1.00  0.00    -0.201 A  
HETATM    9  C   UNL     1      -9.403  18.459  68.266  1.00  0.00    -0.342 A  
HETATM   10  O   UNL     1      -7.499  14.768  66.978  1.00  0.00    -0.111 OA 
HETATM   11  C   UNL     1     -12.575  15.357  69.914  1.00  0.00    -0.203 A  
HETATM   12  C   UNL     1      -8.599  19.606  68.014  1.00  0.00    -0.355 A  
HETATM   13  S   UNL     1      -7.700  17.753  66.498  1.00  0.00    -0.283 SA 
HETATM   14  C   UNL     1      -7.619  19.351  67.085  1.00  0.00    -0.235 A  
HETATM   15  S   UNL     1     -10.038  15.472  70.271  1.00  0.00     0.158 SA 
ENDROOT
BRANCH   6  16
HETATM   16  O   UNL     1      -9.227  13.586  67.820  1.00  0.00    -0.195 OA 
BRANCH  16  17
HETATM   17  C   UNL     1      -8.982  12.404  67.038  1.00  0.00    -0.209 C  
HETATM   18  N   UNL     1     -10.139  10.146  67.445  1.00  0.00    -0.194 N  
HETATM   19  C   UNL     1      -8.954  11.096  67.871  1.00  0.00    -0.143 C  
HETATM   20  C   UNL     1      -9.981   9.845  65.945  1.00  0.00    -0.277 C  
HETATM   21  C   UNL     1     -11.445  10.919  67.676  1.00  0.00    -0.200 C  
HETATM   22  C   UNL     1      -9.900  11.126  65.131  1.00  0.00    -0.307 C  
HETATM   23  C   UNL     1     -11.468  12.149  66.766  1.00  0.00    -0.418 C  
HETATM   24  C   UNL     1     -10.131  12.335  66.023  1.00  0.00    -0.269 C  
BRANCH  18  25
HETATM   25  C   UNL     1     -10.052   8.882  68.350  1.00  0.00    -0.189 C  
BRANCH  25  26
HETATM   26  C   UNL     1      -9.213   7.696  67.847  1.00  0.00    -0.139 C  
BRANCH  26  27
HETATM   27  C   UNL     1      -8.115   7.258  68.806  1.00  0.00    -0.124 C  
BRANCH  27  28
HETATM   28  O   UNL     1      -6.816   7.450  68.264  1.00  0.00    -0.059 OA 
BRANCH  28  29
HETATM   29  C   UNL     1      -6.307   8.713  68.470  1.00  0.00    -0.054 A  
HETATM   30  C   UNL     1      -5.862   9.355  67.319  1.00  0.00    -0.045 A  
HETATM   31  C   UNL     1      -5.286  10.627  67.391  1.00  0.00    -0.040 A  
HETATM   32  C   UNL     1      -5.173  11.276  68.619  1.00  0.00    -0.043 A  
HETATM   33  C   UNL     1      -5.647  10.662  69.770  1.00  0.00    -0.043 A  
HETATM   34  C   UNL     1      -6.217   9.388  69.697  1.00  0.00    -0.039 A  
ENDBRANCH  28  29
ENDBRANCH  27  28
ENDBRANCH  26  27
ENDBRANCH  25  26
ENDBRANCH  18  25
ENDBRANCH  16  17
ENDBRANCH   6  16
TORSDOF 7
ENDMDL
MODEL      120
REMARK 921   NORMALIZED FREE ENERGY PREDICTED BY IDOCK:   -4.39 KCAL/MOL
REMARK 922        TOTAL FREE ENERGY PREDICTED BY IDOCK:   -7.84 KCAL/MOL
REMARK 923 INTER-LIGAND FREE ENERGY PREDICTED BY IDOCK:   -5.91 KCAL/MOL
REMARK 924 INTRA-LIGAND FREE ENERGY PREDICTED BY IDOCK:   -1.93 KCAL/MOL
REMARK 927      BINDING AFFINITY PREDICTED BY RF-SCORE:    0.00 PKD
ROOT
HETATM    1  O   UNL     1     -11.191   6.405  66.579  1.00  0.00    -0.699 OA 
HETATM    2  C   UNL     1      -9.788   6.294  66.862  1.00  0.00    -0.156 C  
HETATM    3  H   UNL     1     -11.288   6.682  65.676  1.00  0.00     0.000 HD 
HETATM    4  C   UNL     1      -9.208   7.704  66.701  1.00  0.00    -0.170 A  
HETATM    5  C   UNL     1      -9.237   5.307  65.835  1.00  0.00    -0.159 A  
HETATM    6  C   UNL     1      -9.627   5.835  68.360  1.00  0.00    -0.125 C  
HETATM    7  C   UNL     1      -7.750   9.709  66.778  1.00  0.00    -0.098 A  
HETATM    8  C   UNL     1      -9.831   8.847  66.221  1.00  0.00    -0.355 A  
HETATM    9  C   UNL     1      -8.584   5.578  64.640  1.00  0.00    -0.067 A  
HETATM   10  O   UNL     1      -9.511   4.695  68.795  1.00  0.00    -0.130 OA 
HETATM   11  C   UNL     1      -8.997   9.999  66.277  1.00  0.00    -0.170 A  
HETATM   12  C   UNL     1      -8.272   4.409  63.889  1.00  0.00    -0.099 A  
HETATM   13  S   UNL     1      -9.534   3.612  65.965  1.00  0.00    -0.128 SA 
HETATM   14  C   UNL     1      -8.717   3.267  64.511  1.00  0.00    -0.099 A  
HETATM   15  S   UNL     1      -7.568   8.049  67.132  1.00  0.00    -0.098 SA 
ENDROOT
BRANCH   6  16
HETATM   16  O   UNL     1      -9.703   6.903  69.219  1.00  0.00    -0.155 OA 
BRANCH  16  17
HETATM   17  C   UNL     1     -10.838   6.980  70.098  1.00  0.00    -0.256 C  
HETATM   18  N   UNL     1     -10.676   7.457  72.617  1.00  0.00    -0.261 N  
HETATM   19  C   UNL     1     -10.593   6.352  71.495  1.00  0.00    -0.231 C  
HETATM   20  C   UNL     1     -12.072   8.097  72.541  1.00  0.00    -0.318 C  
HETATM   21  C   UNL     1      -9.612   8.513  72.293  1.00  0.00    -0.307 C  
HETATM   22  C   UNL     1     -12.364   8.620  71.144  1.00  0.00    -0.243 C  
HETATM   23  C   UNL     1      -9.947   9.169  70.952  1.00  0.00    -0.357 C  
HETATM   24  C   UNL     1     -11.136   8.477  70.259  1.00  0.00    -0.222 C  
BRANCH  18  25
HETATM   25  C   UNL     1     -10.386   6.746  73.972  1.00  0.00    -0.347 C  
BRANCH  25  26
HETATM   26  C   UNL     1      -8.968   6.864  74.554  1.00  0.00    -0.222 C  
BRANCH  26  27
HETATM   27  C   UNL     1      -7.989   5.826  74.025  1.00  0.00    -0.105 C  
BRANCH  27  28
HETATM   28  O   UNL     1      -7.018   6.391  73.156  1.00  0.00    -0.074 OA 
BRANCH  28  29
HETATM   29  C   UNL     1      -6.810   5.665  72.004  1.00  0.00    -0.071 A  
HETATM   30  C   UNL     1      -7.119   4.313  72.106  1.00  0.00    -0.059 A  
HETATM   31  C   UNL     1      -6.918   3.454  71.022  1.00  0.00    -0.033 A  
HETATM   32  C   UNL     1      -6.425   3.950  69.816  1.00  0.00    -0.033 A  
HETATM   33  C   UNL     1      -6.147   5.304  69.691  1.00  0.00    -0.021 A  
HETATM   34  C   UNL     1      -6.343   6.161  70.778  1.00  0.00    -0.040 A  
ENDBRANCH  28  29
ENDBRANCH  27  28
ENDBRANCH  26  27
ENDBRANCH  25  26
ENDBRANCH  18  25
ENDBRANCH  16  17
ENDBRANCH   6  16
TORSDOF 7
ENDMDL
MODEL      121
REMARK 921   NORMALIZED FREE ENERGY PREDICTED BY IDOCK:   -4.39 KCAL/MOL
REMARK 922        TOTAL FREE ENERGY PREDICTED BY IDOCK:   -7.83 KCAL/MOL
REMARK 923 INTER-LIGAND FREE ENERGY PREDICTED BY IDOCK:   -6.00 KCAL/MOL
REMARK 924 INTRA-LIGAND FREE ENERGY PREDICTED BY IDOCK:   -1.83 KCAL/MOL
REMARK 927      BINDING AFFINITY PREDICTED BY RF-SCORE:    0.00 PKD
ROOT
HETATM    1  O   UNL     1     -11.909  11.120  67.229  1.00  0.00    -0.525 OA 
HETATM    2  C   UNL     1     -10.629  11.751  67.378  1.00  0.00    -0.224 C  
HETATM    3  H   UNL     1     -12.369  11.186  68.058  1.00  0.00     0.000 HD 
HETATM    4  C   UNL     1      -9.875  10.942  68.440  1.00  0.00    -0.177 A  
HETATM    5  C   UNL     1     -10.923  13.182  67.824  1.00  0.00    -0.251 A  
HETATM    6  C   UNL     1      -9.867  11.641  66.004  1.00  0.00    -0.230 C  
HETATM    7  C   UNL     1      -8.125   9.969  69.904  1.00  0.00    -0.166 A  
HETATM    8  C   UNL     1     -10.347   9.911  69.239  1.00  0.00    -0.235 A  
HETATM    9  C   UNL     1     -10.904  13.708  69.109  1.00  0.00    -0.189 A  
HETATM   10  O   UNL     1      -9.838  12.452  65.086  1.00  0.00    -0.232 OA 
HETATM   11  C   UNL     1      -9.340   9.346  70.069  1.00  0.00    -0.253 A  
HETATM   12  C   UNL     1     -11.308  15.072  69.167  1.00  0.00    -0.311 A  
HETATM   13  S   UNL     1     -11.528  14.363  66.721  1.00  0.00    -0.382 SA 
HETATM   14  C   UNL     1     -11.653  15.557  67.929  1.00  0.00    -0.223 A  
HETATM   15  S   UNL     1      -8.211  11.260  68.790  1.00  0.00    -0.083 SA 
ENDROOT
BRANCH   6  16
HETATM   16  O   UNL     1      -9.239  10.426  65.879  1.00  0.00    -0.159 OA 
BRANCH  16  17
HETATM   17  C   UNL     1      -7.885  10.416  65.399  1.00  0.00    -0.143 C  
HETATM   18  N   UNL     1      -6.509   8.280  65.018  1.00  0.00    -0.052 N  
HETATM   19  C   UNL     1      -6.986   9.348  66.075  1.00  0.00    -0.090 C  
HETATM   20  C   UNL     1      -5.739   9.025  63.915  1.00  0.00    -0.070 C  
HETATM   21  C   UNL     1      -7.769   7.641  64.418  1.00  0.00    -0.127 C  
HETATM   22  C   UNL     1      -6.575  10.145  63.318  1.00  0.00    -0.134 C  
HETATM   23  C   UNL     1      -8.574   8.714  63.683  1.00  0.00    -0.012 C  
HETATM   24  C   UNL     1      -7.981  10.120  63.896  1.00  0.00    -0.153 C  
BRANCH  18  25
HETATM   25  C   UNL     1      -5.647   7.236  65.788  1.00  0.00    -0.032 C  
BRANCH  25  26
HETATM   26  C   UNL     1      -5.672   7.279  67.325  1.00  0.00    -0.029 C  
BRANCH  26  27
HETATM   27  C   UNL     1      -6.360   6.085  67.971  1.00  0.00    -0.044 C  
BRANCH  27  28
HETATM   28  O   UNL     1      -7.591   5.763  67.338  1.00  0.00    -0.093 OA 
BRANCH  28  29
HETATM   29  C   UNL     1      -8.684   5.839  68.174  1.00  0.00    -0.107 A  
HETATM   30  C   UNL     1      -8.423   5.521  69.502  1.00  0.00    -0.105 A  
HETATM   31  C   UNL     1      -9.452   5.521  70.449  1.00  0.00    -0.209 A  
HETATM   32  C   UNL     1     -10.749   5.862  70.074  1.00  0.00    -0.396 A  
HETATM   33  C   UNL     1     -11.016   6.218  68.759  1.00  0.00    -0.424 A  
HETATM   34  C   UNL     1      -9.987   6.212  67.812  1.00  0.00    -0.143 A  
ENDBRANCH  28  29
ENDBRANCH  27  28
ENDBRANCH  26  27
ENDBRANCH  25  26
ENDBRANCH  18  25
ENDBRANCH  16  17
ENDBRANCH   6  16
TORSDOF 7
ENDMDL
MODEL      122
REMARK 921   NORMALIZED FREE ENERGY PREDICTED BY IDOCK:   -4.38 KCAL/MOL
REMARK 922        TOTAL FREE ENERGY PREDICTED BY IDOCK:   -7.82 KCAL/MOL
REMARK 923 INTER-LIGAND FREE ENERGY PREDICTED BY IDOCK:   -6.56 KCAL/MOL
REMARK 924 INTRA-LIGAND FREE ENERGY PREDICTED BY IDOCK:   -1.26 KCAL/MOL
REMARK 927      BINDING AFFINITY PREDICTED BY RF-SCORE:    0.00 PKD
ROOT
HETATM    1  O   UNL     1     -11.288  15.457  66.768  1.00  0.00    -0.258 OA 
HETATM    2  C   UNL     1     -10.369  15.753  67.830  1.00  0.00    -0.261 C  
HETATM    3  H   UNL     1     -12.015  16.066  66.829  1.00  0.00     0.000 HD 
HETATM    4  C   UNL     1     -11.131  15.500  69.136  1.00  0.00    -0.272 A  
HETATM    5  C   UNL     1      -9.982  17.219  67.646  1.00  0.00    -0.297 A  
HETATM    6  C   UNL     1      -9.164  14.743  67.728  1.00  0.00    -0.194 C  
HETATM    7  C   UNL     1     -11.737  15.102  71.509  1.00  0.00    -0.390 A  
HETATM    8  C   UNL     1     -12.475  15.208  69.312  1.00  0.00    -0.014 A  
HETATM    9  C   UNL     1     -10.494  18.336  68.294  1.00  0.00    -0.324 A  
HETATM   10  O   UNL     1      -8.095  14.895  67.149  1.00  0.00    -0.198 OA 
HETATM   11  C   UNL     1     -12.820  14.969  70.671  1.00  0.00    -0.413 A  
HETATM   12  C   UNL     1      -9.953  19.563  67.817  1.00  0.00    -0.494 A  
HETATM   13  S   UNL     1      -8.905  17.716  66.394  1.00  0.00    -0.201 SA 
HETATM   14  C   UNL     1      -9.057  19.364  66.794  1.00  0.00    -0.334 A  
HETATM   15  S   UNL     1     -10.325  15.563  70.666  1.00  0.00     0.348 SA 
ENDROOT
BRANCH   6  16
HETATM   16  O   UNL     1      -9.463  13.549  68.337  1.00  0.00    -0.211 OA 
BRANCH  16  17
HETATM   17  C   UNL     1     -10.119  12.540  67.550  1.00  0.00    -0.207 C  
HETATM   18  N   UNL     1      -8.905  10.566  66.441  1.00  0.00    -0.150 N  
HETATM   19  C   UNL     1      -9.307  12.085  66.310  1.00  0.00    -0.223 C  
HETATM   20  C   UNL     1     -10.200   9.750  66.578  1.00  0.00    -0.219 C  
HETATM   21  C   UNL     1      -8.075  10.426  67.725  1.00  0.00    -0.103 C  
HETATM   22  C   UNL     1     -11.055  10.258  67.727  1.00  0.00    -0.335 C  
HETATM   23  C   UNL     1      -8.946  10.796  68.928  1.00  0.00    -0.158 C  
HETATM   24  C   UNL     1     -10.318  11.345  68.492  1.00  0.00    -0.219 C  
BRANCH  18  25
HETATM   25  C   UNL     1      -8.069  10.208  65.177  1.00  0.00    -0.148 C  
BRANCH  25  26
HETATM   26  C   UNL     1      -8.501   8.983  64.355  1.00  0.00    -0.190 C  
BRANCH  26  27
HETATM   27  C   UNL     1      -7.482   7.851  64.341  1.00  0.00    -0.098 C  
BRANCH  27  28
HETATM   28  O   UNL     1      -7.185   7.375  65.646  1.00  0.00    -0.063 OA 
BRANCH  28  29
HETATM   29  C   UNL     1      -8.135   6.518  66.157  1.00  0.00    -0.118 A  
HETATM   30  C   UNL     1      -8.507   6.778  67.471  1.00  0.00    -0.121 A  
HETATM   31  C   UNL     1      -9.434   5.959  68.123  1.00  0.00    -0.120 A  
HETATM   32  C   UNL     1     -10.013   4.884  67.452  1.00  0.00    -0.209 A  
HETATM   33  C   UNL     1      -9.678   4.636  66.128  1.00  0.00    -0.211 A  
HETATM   34  C   UNL     1      -8.747   5.452  65.479  1.00  0.00    -0.154 A  
ENDBRANCH  28  29
ENDBRANCH  27  28
ENDBRANCH  26  27
ENDBRANCH  25  26
ENDBRANCH  18  25
ENDBRANCH  16  17
ENDBRANCH   6  16
TORSDOF 7
ENDMDL
MODEL      123
REMARK 921   NORMALIZED FREE ENERGY PREDICTED BY IDOCK:   -4.37 KCAL/MOL
REMARK 922        TOTAL FREE ENERGY PREDICTED BY IDOCK:   -7.81 KCAL/MOL
REMARK 923 INTER-LIGAND FREE ENERGY PREDICTED BY IDOCK:   -6.80 KCAL/MOL
REMARK 924 INTRA-LIGAND FREE ENERGY PREDICTED BY IDOCK:   -1.00 KCAL/MOL
REMARK 927      BINDING AFFINITY PREDICTED BY RF-SCORE:    0.00 PKD
ROOT
HETATM    1  O   UNL     1      -7.699   5.878  69.540  1.00  0.00    -0.092 OA 
HETATM    2  C   UNL     1      -9.079   5.760  69.917  1.00  0.00    -0.144 C  
HETATM    3  H   UNL     1      -7.172   5.485  70.226  1.00  0.00     0.000 HD 
HETATM    4  C   UNL     1      -9.240   6.573  71.207  1.00  0.00    -0.155 A  
HETATM    5  C   UNL     1      -9.324   4.267  70.125  1.00  0.00    -0.158 A  
HETATM    6  C   UNL     1      -9.953   6.411  68.780  1.00  0.00    -0.147 C  
HETATM    7  C   UNL     1     -10.158   7.832  73.137  1.00  0.00    -0.327 A  
HETATM    8  C   UNL     1      -8.258   7.175  71.979  1.00  0.00    -0.102 A  
HETATM    9  C   UNL     1      -9.335   3.550  71.315  1.00  0.00    -0.209 A  
HETATM   10  O   UNL     1     -10.469   5.864  67.813  1.00  0.00    -0.191 OA 
HETATM   11  C   UNL     1      -8.786   7.907  73.079  1.00  0.00    -0.277 A  
HETATM   12  C   UNL     1      -9.522   2.151  71.130  1.00  0.00    -0.212 A  
HETATM   13  S   UNL     1      -9.456   3.181  68.791  1.00  0.00    -0.043 SA 
HETATM   14  C   UNL     1      -9.624   1.819  69.801  1.00  0.00     0.007 A  
HETATM   15  S   UNL     1     -10.802   6.844  71.902  1.00  0.00    -0.235 SA 
ENDROOT
BRANCH   6  16
HETATM   16  O   UNL     1     -10.039   7.773  68.938  1.00  0.00    -0.185 OA 
BRANCH  16  17
HETATM   17  C   UNL     1     -10.098   8.584  67.753  1.00  0.00    -0.211 C  
HETATM   18  N   UNL     1      -8.777  10.764  67.435  1.00  0.00    -0.126 N  
HETATM   19  C   UNL     1     -10.080  10.109  68.034  1.00  0.00    -0.157 C  
HETATM   20  C   UNL     1      -8.766  10.486  65.923  1.00  0.00    -0.167 C  
HETATM   21  C   UNL     1      -7.576  10.068  68.091  1.00  0.00    -0.084 C  
HETATM   22  C   UNL     1      -8.891   8.999  65.635  1.00  0.00    -0.224 C  
HETATM   23  C   UNL     1      -7.585   8.587  67.709  1.00  0.00    -0.098 C  
HETATM   24  C   UNL     1      -8.859   8.205  66.930  1.00  0.00    -0.145 C  
BRANCH  18  25
HETATM   25  C   UNL     1      -8.827  12.279  67.793  1.00  0.00    -0.174 C  
BRANCH  25  26
HETATM   26  C   UNL     1     -10.012  12.777  68.638  1.00  0.00    -0.099 C  
BRANCH  26  27
HETATM   27  C   UNL     1     -10.778  13.936  68.015  1.00  0.00    -0.247 C  
BRANCH  27  28
HETATM   28  O   UNL     1     -12.046  13.537  67.513  1.00  0.00    -0.357 OA 
BRANCH  28  29
HETATM   29  C   UNL     1     -12.078  13.375  66.145  1.00  0.00    -0.429 A  
HETATM   30  C   UNL     1     -12.208  14.556  65.423  1.00  0.00    -0.294 A  
HETATM   31  C   UNL     1     -12.292  14.531  64.027  1.00  0.00    -0.207 A  
HETATM   32  C   UNL     1     -12.224  13.319  63.343  1.00  0.00    -0.476 A  
HETATM   33  C   UNL     1     -12.057  12.136  64.050  1.00  0.00    -0.540 A  
HETATM   34  C   UNL     1     -11.978  12.163  65.446  1.00  0.00    -0.296 A  
ENDBRANCH  28  29
ENDBRANCH  27  28
ENDBRANCH  26  27
ENDBRANCH  25  26
ENDBRANCH  18  25
ENDBRANCH  16  17
ENDBRANCH   6  16
TORSDOF 7
ENDMDL
MODEL      124
REMARK 921   NORMALIZED FREE ENERGY PREDICTED BY IDOCK:   -4.35 KCAL/MOL
REMARK 922        TOTAL FREE ENERGY PREDICTED BY IDOCK:   -7.78 KCAL/MOL
REMARK 923 INTER-LIGAND FREE ENERGY PREDICTED BY IDOCK:   -6.35 KCAL/MOL
REMARK 924 INTRA-LIGAND FREE ENERGY PREDICTED BY IDOCK:   -1.43 KCAL/MOL
REMARK 927      BINDING AFFINITY PREDICTED BY RF-SCORE:    0.00 PKD
ROOT
HETATM    1  O   UNL     1     -10.350  15.596  66.195  1.00  0.00    -0.285 OA 
HETATM    2  C   UNL     1      -9.684  16.030  67.390  1.00  0.00    -0.232 C  
HETATM    3  H   UNL     1     -11.126  16.132  66.078  1.00  0.00     0.000 HD 
HETATM    4  C   UNL     1     -10.660  15.765  68.542  1.00  0.00    -0.253 A  
HETATM    5  C   UNL     1      -9.399  17.517  67.186  1.00  0.00    -0.250 A  
HETATM    6  C   UNL     1      -8.399  15.141  67.583  1.00  0.00    -0.160 C  
HETATM    7  C   UNL     1     -11.676  15.423  70.779  1.00  0.00    -0.348 A  
HETATM    8  C   UNL     1     -11.982  15.352  68.480  1.00  0.00    -0.205 A  
HETATM    9  C   UNL     1     -10.122  18.607  67.652  1.00  0.00    -0.404 A  
HETATM   10  O   UNL     1      -7.255  15.369  67.207  1.00  0.00    -0.199 OA 
HETATM   11  C   UNL     1     -12.561  15.144  69.763  1.00  0.00    -0.149 A  
HETATM   12  C   UNL     1      -9.608  19.858  67.206  1.00  0.00    -0.502 A  
HETATM   13  S   UNL     1      -8.147  18.058  66.130  1.00  0.00    -0.106 SA 
HETATM   14  C   UNL     1      -8.517  19.701  66.387  1.00  0.00    -0.356 A  
HETATM   15  S   UNL     1     -10.174  15.980  70.189  1.00  0.00     0.127 SA 
ENDROOT
BRANCH   6  16
HETATM   16  O   UNL     1      -8.704  13.953  68.200  1.00  0.00    -0.168 OA 
BRANCH  16  17
HETATM   17  C   UNL     1      -8.315  12.735  67.543  1.00  0.00    -0.179 C  
HETATM   18  N   UNL     1      -9.196  10.409  68.187  1.00  0.00    -0.143 N  
HETATM   19  C   UNL     1      -8.136  11.532  68.506  1.00  0.00    -0.146 C  
HETATM   20  C   UNL     1      -8.994   9.976  66.726  1.00  0.00    -0.135 C  
HETATM   21  C   UNL     1     -10.586  11.039  68.346  1.00  0.00    -0.193 C  
HETATM   22  C   UNL     1      -9.062  11.167  65.783  1.00  0.00    -0.222 C  
HETATM   23  C   UNL     1     -10.751  12.158  67.315  1.00  0.00    -0.264 C  
HETATM   24  C   UNL     1      -9.441  12.424  66.547  1.00  0.00    -0.242 C  
BRANCH  18  25
HETATM   25  C   UNL     1      -8.964   9.264  69.217  1.00  0.00    -0.147 C  
BRANCH  25  26
HETATM   26  C   UNL     1      -7.546   8.681  69.334  1.00  0.00    -0.092 C  
BRANCH  26  27
HETATM   27  C   UNL     1      -7.449   7.203  68.982  1.00  0.00    -0.094 C  
BRANCH  27  28
HETATM   28  O   UNL     1      -7.336   6.987  67.583  1.00  0.00    -0.091 OA 
BRANCH  28  29
HETATM   29  C   UNL     1      -8.201   6.032  67.094  1.00  0.00    -0.105 A  
HETATM   30  C   UNL     1      -7.710   4.732  67.128  1.00  0.00    -0.091 A  
HETATM   31  C   UNL     1      -8.471   3.671  66.626  1.00  0.00    -0.106 A  
HETATM   32  C   UNL     1      -9.742   3.906  66.105  1.00  0.00    -0.173 A  
HETATM   33  C   UNL     1     -10.258   5.195  66.100  1.00  0.00    -0.258 A  
HETATM   34  C   UNL     1      -9.494   6.254  66.597  1.00  0.00    -0.178 A  
ENDBRANCH  28  29
ENDBRANCH  27  28
ENDBRANCH  26  27
ENDBRANCH  25  26
ENDBRANCH  18  25
ENDBRANCH  16  17
ENDBRANCH   6  16
TORSDOF 7
ENDMDL
MODEL      125
REMARK 921   NORMALIZED FREE ENERGY PREDICTED BY IDOCK:   -4.35 KCAL/MOL
REMARK 922        TOTAL FREE ENERGY PREDICTED BY IDOCK:   -7.77 KCAL/MOL
REMARK 923 INTER-LIGAND FREE ENERGY PREDICTED BY IDOCK:   -7.17 KCAL/MOL
REMARK 924 INTRA-LIGAND FREE ENERGY PREDICTED BY IDOCK:   -0.61 KCAL/MOL
REMARK 927      BINDING AFFINITY PREDICTED BY RF-SCORE:    0.00 PKD
ROOT
HETATM    1  O   UNL     1     -12.118  14.407  68.649  1.00  0.00    -0.484 OA 
HETATM    2  C   UNL     1     -11.147  13.841  67.755  1.00  0.00    -0.268 C  
HETATM    3  H   UNL     1     -12.004  15.350  68.649  1.00  0.00     0.000 HD 
HETATM    4  C   UNL     1      -9.774  14.185  68.343  1.00  0.00    -0.226 A  
HETATM    5  C   UNL     1     -11.395  14.507  66.403  1.00  0.00    -0.349 A  
HETATM    6  C   UNL     1     -11.336  12.278  67.756  1.00  0.00    -0.301 C  
HETATM    7  C   UNL     1      -7.349  14.259  68.863  1.00  0.00    -0.126 A  
HETATM    8  C   UNL     1      -9.474  15.009  69.418  1.00  0.00    -0.132 A  
HETATM    9  C   UNL     1     -10.726  15.584  65.834  1.00  0.00    -0.346 A  
HETATM   10  O   UNL     1     -12.010  11.595  66.994  1.00  0.00    -0.593 OA 
HETATM   11  C   UNL     1      -8.084  15.041  69.723  1.00  0.00     0.053 A  
HETATM   12  C   UNL     1     -11.274  15.993  64.585  1.00  0.00    -0.340 A  
HETATM   13  S   UNL     1     -12.748  14.078  65.422  1.00  0.00    -0.377 SA 
HETATM   14  C   UNL     1     -12.368  15.239  64.234  1.00  0.00    -0.121 A  
HETATM   15  S   UNL     1      -8.323  13.529  67.665  1.00  0.00    -0.193 SA 
ENDROOT
BRANCH   6  16
HETATM   16  O   UNL     1     -10.679  11.698  68.814  1.00  0.00    -0.205 OA 
BRANCH  16  17
HETATM   17  C   UNL     1     -11.043  10.356  69.176  1.00  0.00    -0.246 C  
HETATM   18  N   UNL     1      -9.804   8.259  68.357  1.00  0.00    -0.167 N  
HETATM   19  C   UNL     1     -10.907   9.334  68.017  1.00  0.00    -0.106 C  
HETATM   20  C   UNL     1     -10.221   7.557  69.659  1.00  0.00    -0.205 C  
HETATM   21  C   UNL     1      -8.488   9.016  68.583  1.00  0.00    -0.128 C  
HETATM   22  C   UNL     1     -10.462   8.561  70.775  1.00  0.00    -0.239 C  
HETATM   23  C   UNL     1      -8.642   9.941  69.792  1.00  0.00    -0.219 C  
HETATM   24  C   UNL     1     -10.092   9.962  70.314  1.00  0.00    -0.295 C  
BRANCH  18  25
HETATM   25  C   UNL     1      -9.713   7.303  67.131  1.00  0.00    -0.168 C  
BRANCH  25  26
HETATM   26  C   UNL     1     -10.762   6.186  67.013  1.00  0.00    -0.423 C  
BRANCH  26  27
HETATM   27  C   UNL     1     -10.174   4.784  66.923  1.00  0.00    -0.186 C  
BRANCH  27  28
HETATM   28  O   UNL     1      -8.818   4.739  67.344  1.00  0.00    -0.104 OA 
BRANCH  28  29
HETATM   29  C   UNL     1      -8.648   4.267  68.627  1.00  0.00    -0.093 A  
HETATM   30  C   UNL     1      -7.531   4.768  69.287  1.00  0.00    -0.053 A  
HETATM   31  C   UNL     1      -7.219   4.341  70.582  1.00  0.00    -0.044 A  
HETATM   32  C   UNL     1      -8.042   3.425  71.234  1.00  0.00    -0.062 A  
HETATM   33  C   UNL     1      -9.180   2.946  70.600  1.00  0.00    -0.207 A  
HETATM   34  C   UNL     1      -9.487   3.369  69.304  1.00  0.00    -0.212 A  
ENDBRANCH  28  29
ENDBRANCH  27  28
ENDBRANCH  26  27
ENDBRANCH  25  26
ENDBRANCH  18  25
ENDBRANCH  16  17
ENDBRANCH   6  16
TORSDOF 7
ENDMDL
MODEL      126
REMARK 921   NORMALIZED FREE ENERGY PREDICTED BY IDOCK:   -4.33 KCAL/MOL
REMARK 922        TOTAL FREE ENERGY PREDICTED BY IDOCK:   -7.75 KCAL/MOL
REMARK 923 INTER-LIGAND FREE ENERGY PREDICTED BY IDOCK:   -6.76 KCAL/MOL
REMARK 924 INTRA-LIGAND FREE ENERGY PREDICTED BY IDOCK:   -0.99 KCAL/MOL
REMARK 927      BINDING AFFINITY PREDICTED BY RF-SCORE:    0.00 PKD
ROOT
HETATM    1  O   UNL     1      -8.543  10.382  67.520  1.00  0.00    -0.124 OA 
HETATM    2  C   UNL     1      -8.560   9.230  66.663  1.00  0.00    -0.127 C  
HETATM    3  H   UNL     1      -7.815  10.933  67.258  1.00  0.00     0.000 HD 
HETATM    4  C   UNL     1      -7.244   8.486  66.922  1.00  0.00    -0.075 A  
HETATM    5  C   UNL     1      -8.660   9.775  65.240  1.00  0.00    -0.153 A  
HETATM    6  C   UNL     1      -9.767   8.316  67.098  1.00  0.00    -0.195 C  
HETATM    7  C   UNL     1      -5.445   6.782  67.023  1.00  0.00    -0.013 A  
HETATM    8  C   UNL     1      -6.159   8.888  67.687  1.00  0.00    -0.047 A  
HETATM    9  C   UNL     1      -7.642   9.972  64.316  1.00  0.00    -0.141 A  
HETATM   10  O   UNL     1     -10.908   8.306  66.653  1.00  0.00    -0.094 OA 
HETATM   11  C   UNL     1      -5.133   7.904  67.755  1.00  0.00    -0.031 A  
HETATM   12  C   UNL     1      -8.088  10.572  63.104  1.00  0.00    -0.104 A  
HETATM   13  S   UNL     1     -10.137  10.421  64.625  1.00  0.00    -0.222 SA 
HETATM   14  C   UNL     1      -9.433  10.848  63.134  1.00  0.00    -0.341 A  
HETATM   15  S   UNL     1      -6.944   6.934  66.221  1.00  0.00    -0.070 SA 
ENDROOT
BRANCH   6  16
HETATM   16  O   UNL     1      -9.424   7.509  68.155  1.00  0.00    -0.143 OA 
BRANCH  16  17
HETATM   17  C   UNL     1      -9.326   8.112  69.456  1.00  0.00    -0.155 C  
HETATM   18  N   UNL     1     -11.302   8.358  71.080  1.00  0.00    -0.262 N  
HETATM   19  C   UNL     1     -10.553   8.980  69.840  1.00  0.00    -0.228 C  
HETATM   20  C   UNL     1     -10.299   8.283  72.242  1.00  0.00    -0.316 C  
HETATM   21  C   UNL     1     -11.733   6.939  70.684  1.00  0.00    -0.367 C  
HETATM   22  C   UNL     1      -9.045   7.524  71.841  1.00  0.00    -0.153 C  
HETATM   23  C   UNL     1     -10.487   6.096  70.406  1.00  0.00    -0.288 C  
HETATM   24  C   UNL     1      -9.202   6.945  70.445  1.00  0.00    -0.156 C  
BRANCH  18  25
HETATM   25  C   UNL     1     -12.530   9.271  71.370  1.00  0.00    -0.341 C  
BRANCH  25  26
HETATM   26  C   UNL     1     -12.267  10.759  71.655  1.00  0.00    -0.184 C  
BRANCH  26  27
HETATM   27  C   UNL     1     -12.892  11.708  70.642  1.00  0.00    -0.040 C  
BRANCH  27  28
HETATM   28  O   UNL     1     -12.451  13.047  70.813  1.00  0.00    -0.354 OA 
BRANCH  28  29
HETATM   29  C   UNL     1     -12.053  13.657  69.643  1.00  0.00    -0.321 A  
HETATM   30  C   UNL     1     -11.920  12.799  68.557  1.00  0.00    -0.265 A  
HETATM   31  C   UNL     1     -11.485  13.281  67.319  1.00  0.00    -0.378 A  
HETATM   32  C   UNL     1     -11.201  14.635  67.155  1.00  0.00    -0.349 A  
HETATM   33  C   UNL     1     -11.365  15.508  68.222  1.00  0.00    -0.360 A  
HETATM   34  C   UNL     1     -11.794  15.024  69.461  1.00  0.00    -0.360 A  
ENDBRANCH  28  29
ENDBRANCH  27  28
ENDBRANCH  26  27
ENDBRANCH  25  26
ENDBRANCH  18  25
ENDBRANCH  16  17
ENDBRANCH   6  16
TORSDOF 7
ENDMDL
MODEL      127
REMARK 921   NORMALIZED FREE ENERGY PREDICTED BY IDOCK:   -4.31 KCAL/MOL
REMARK 922        TOTAL FREE ENERGY PREDICTED BY IDOCK:   -7.72 KCAL/MOL
REMARK 923 INTER-LIGAND FREE ENERGY PREDICTED BY IDOCK:   -6.82 KCAL/MOL
REMARK 924 INTRA-LIGAND FREE ENERGY PREDICTED BY IDOCK:   -0.90 KCAL/MOL
REMARK 927      BINDING AFFINITY PREDICTED BY RF-SCORE:    0.00 PKD
ROOT
HETATM    1  O   UNL     1     -10.806   8.862  67.227  1.00  0.00    -0.403 OA 
HETATM    2  C   UNL     1      -9.676   9.152  68.064  1.00  0.00    -0.154 C  
HETATM    3  H   UNL     1     -10.555   8.174  66.622  1.00  0.00     0.000 HD 
HETATM    4  C   UNL     1      -8.577   9.675  67.131  1.00  0.00    -0.132 A  
HETATM    5  C   UNL     1      -9.306   7.829  68.731  1.00  0.00    -0.146 A  
HETATM    6  C   UNL     1     -10.092  10.293  69.067  1.00  0.00    -0.213 C  
HETATM    7  C   UNL     1      -6.531  10.731  66.209  1.00  0.00    -0.134 A  
HETATM    8  C   UNL     1      -8.567   9.719  65.745  1.00  0.00    -0.147 A  
HETATM    9  C   UNL     1      -8.318   6.924  68.365  1.00  0.00    -0.120 A  
HETATM   10  O   UNL     1     -10.538  10.179  70.202  1.00  0.00    -0.272 OA 
HETATM   11  C   UNL     1      -7.399  10.336  65.217  1.00  0.00    -0.139 A  
HETATM   12  C   UNL     1      -8.301   5.750  69.171  1.00  0.00    -0.105 A  
HETATM   13  S   UNL     1     -10.255   7.168  70.011  1.00  0.00    -0.199 SA 
HETATM   14  C   UNL     1      -9.293   5.767  70.121  1.00  0.00    -0.155 A  
HETATM   15  S   UNL     1      -7.100  10.315  67.764  1.00  0.00    -0.086 SA 
ENDROOT
BRANCH   6  16
HETATM   16  O   UNL     1      -9.966  11.533  68.490  1.00  0.00    -0.196 OA 
BRANCH  16  17
HETATM   17  C   UNL     1     -10.182  12.686  69.321  1.00  0.00     0.413 C  
HETATM   18  N   UNL     1     -11.091  14.929  68.460  1.00  0.00    -0.255 N  
HETATM   19  C   UNL     1      -9.809  14.029  68.641  1.00  0.00    -0.191 C  
HETATM   20  C   UNL     1     -11.694  15.169  69.854  1.00  0.00    -0.315 C  
HETATM   21  C   UNL     1     -12.086  14.135  67.603  1.00  0.00    -0.302 C  
HETATM   22  C   UNL     1     -11.965  13.857  70.572  1.00  0.00    -0.384 C  
HETATM   23  C   UNL     1     -12.495  12.867  68.355  1.00  0.00     0.486 C  
HETATM   24  C   UNL     1     -11.681  12.683  69.650  1.00  0.00    -0.373 C  
BRANCH  18  25
HETATM   25  C   UNL     1     -10.630  16.233  67.744  1.00  0.00    -0.314 C  
BRANCH  25  26
HETATM   26  C   UNL     1      -9.242  16.235  67.082  1.00  0.00    -0.226 C  
BRANCH  26  27
HETATM   27  C   UNL     1      -9.201  15.562  65.717  1.00  0.00    -0.181 C  
BRANCH  27  28
HETATM   28  O   UNL     1     -10.476  15.533  65.091  1.00  0.00    -0.393 OA 
BRANCH  28  29
HETATM   29  C   UNL     1     -10.826  14.294  64.599  1.00  0.00    -0.368 A  
HETATM   30  C   UNL     1     -12.074  14.244  63.987  1.00  0.00    -0.350 A  
HETATM   31  C   UNL     1     -12.569  13.039  63.479  1.00  0.00    -0.262 A  
HETATM   32  C   UNL     1     -11.804  11.877  63.561  1.00  0.00    -0.560 A  
HETATM   33  C   UNL     1     -10.542  11.922  64.136  1.00  0.00    -0.397 A  
HETATM   34  C   UNL     1     -10.051  13.126  64.648  1.00  0.00    -0.248 A  
ENDBRANCH  28  29
ENDBRANCH  27  28
ENDBRANCH  26  27
ENDBRANCH  25  26
ENDBRANCH  18  25
ENDBRANCH  16  17
ENDBRANCH   6  16
TORSDOF 7
ENDMDL
MODEL      128
REMARK 921   NORMALIZED FREE ENERGY PREDICTED BY IDOCK:   -4.30 KCAL/MOL
REMARK 922        TOTAL FREE ENERGY PREDICTED BY IDOCK:   -7.71 KCAL/MOL
REMARK 923 INTER-LIGAND FREE ENERGY PREDICTED BY IDOCK:   -6.46 KCAL/MOL
REMARK 924 INTRA-LIGAND FREE ENERGY PREDICTED BY IDOCK:   -1.25 KCAL/MOL
REMARK 927      BINDING AFFINITY PREDICTED BY RF-SCORE:    0.00 PKD
ROOT
HETATM    1  O   UNL     1     -11.078  18.670  67.645  1.00  0.00    -0.277 OA 
HETATM    2  C   UNL     1     -10.049  17.669  67.646  1.00  0.00    -0.339 C  
HETATM    3  H   UNL     1     -11.004  19.168  68.450  1.00  0.00     0.000 HD 
HETATM    4  C   UNL     1     -10.347  16.752  68.838  1.00  0.00    -0.317 A  
HETATM    5  C   UNL     1      -8.734  18.429  67.800  1.00  0.00    -0.267 A  
HETATM    6  C   UNL     1     -10.171  16.842  66.311  1.00  0.00    -0.332 C  
HETATM    7  C   UNL     1     -10.394  14.860  70.442  1.00  0.00     0.203 A  
HETATM    8  C   UNL     1     -11.299  16.909  69.834  1.00  0.00     0.472 A  
HETATM    9  C   UNL     1      -7.990  18.647  68.953  1.00  0.00    -0.252 A  
HETATM   10  O   UNL     1      -9.590  17.027  65.249  1.00  0.00    -0.178 OA 
HETATM   11  C   UNL     1     -11.333  15.818  70.747  1.00  0.00    -0.419 A  
HETATM   12  C   UNL     1      -6.847  19.469  68.742  1.00  0.00    -0.357 A  
HETATM   13  S   UNL     1      -8.051  19.323  66.491  1.00  0.00    -0.311 SA 
HETATM   14  C   UNL     1      -6.751  19.887  67.436  1.00  0.00    -0.213 A  
HETATM   15  S   UNL     1      -9.444  15.298  69.093  1.00  0.00    -0.238 SA 
ENDROOT
BRANCH   6  16
HETATM   16  O   UNL     1     -11.116  15.852  66.424  1.00  0.00    -0.182 OA 
BRANCH  16  17
HETATM   17  C   UNL     1     -11.016  14.723  65.539  1.00  0.00    -0.346 C  
HETATM   18  N   UNL     1     -10.311  12.368  66.287  1.00  0.00    -0.240 N  
HETATM   19  C   UNL     1      -9.810  13.795  65.840  1.00  0.00    -0.260 C  
HETATM   20  C   UNL     1     -11.171  11.797  65.147  1.00  0.00    -0.250 C  
HETATM   21  C   UNL     1     -11.181  12.563  67.535  1.00  0.00    -0.291 C  
HETATM   22  C   UNL     1     -12.294  12.750  64.773  1.00  0.00    -0.540 C  
HETATM   23  C   UNL     1     -12.405  13.405  67.168  1.00  0.00    -0.198 C  
HETATM   24  C   UNL     1     -12.320  13.936  65.723  1.00  0.00    -0.518 C  
BRANCH  18  25
HETATM   25  C   UNL     1      -9.042  11.521  66.598  1.00  0.00    -0.190 C  
BRANCH  25  26
HETATM   26  C   UNL     1      -7.853  12.230  67.269  1.00  0.00    -0.171 C  
BRANCH  26  27
HETATM   27  C   UNL     1      -6.493  11.811  66.730  1.00  0.00    -0.069 C  
BRANCH  27  28
HETATM   28  O   UNL     1      -6.040  10.589  67.296  1.00  0.00    -0.052 OA 
BRANCH  28  29
HETATM   29  C   UNL     1      -5.863   9.580  66.375  1.00  0.00    -0.058 A  
HETATM   30  C   UNL     1      -5.955   9.982  65.047  1.00  0.00    -0.107 A  
HETATM   31  C   UNL     1      -5.833   9.050  64.012  1.00  0.00    -0.071 A  
HETATM   32  C   UNL     1      -5.595   7.708  64.301  1.00  0.00    -0.033 A  
HETATM   33  C   UNL     1      -5.464   7.300  65.621  1.00  0.00    -0.028 A  
HETATM   34  C   UNL     1      -5.592   8.232  66.655  1.00  0.00    -0.032 A  
ENDBRANCH  28  29
ENDBRANCH  27  28
ENDBRANCH  26  27
ENDBRANCH  25  26
ENDBRANCH  18  25
ENDBRANCH  16  17
ENDBRANCH   6  16
TORSDOF 7
ENDMDL
MODEL      129
REMARK 921   NORMALIZED FREE ENERGY PREDICTED BY IDOCK:   -4.29 KCAL/MOL
REMARK 922        TOTAL FREE ENERGY PREDICTED BY IDOCK:   -7.69 KCAL/MOL
REMARK 923 INTER-LIGAND FREE ENERGY PREDICTED BY IDOCK:   -6.49 KCAL/MOL
REMARK 924 INTRA-LIGAND FREE ENERGY PREDICTED BY IDOCK:   -1.20 KCAL/MOL
REMARK 927      BINDING AFFINITY PREDICTED BY RF-SCORE:    0.00 PKD
ROOT
HETATM    1  O   UNL     1     -10.590   7.064  71.179  1.00  0.00    -0.215 OA 
HETATM    2  C   UNL     1      -9.487   6.394  70.551  1.00  0.00    -0.162 C  
HETATM    3  H   UNL     1     -11.344   6.486  71.145  1.00  0.00     0.000 HD 
HETATM    4  C   UNL     1      -9.894   6.180  69.089  1.00  0.00    -0.145 A  
HETATM    5  C   UNL     1      -9.311   5.083  71.314  1.00  0.00    -0.149 A  
HETATM    6  C   UNL     1      -8.238   7.353  70.607  1.00  0.00    -0.112 C  
HETATM    7  C   UNL     1      -9.888   5.718  66.652  1.00  0.00    -0.165 A  
HETATM    8  C   UNL     1     -11.123   6.413  68.489  1.00  0.00    -0.385 A  
HETATM    9  C   UNL     1      -9.775   3.818  70.977  1.00  0.00    -0.248 A  
HETATM   10  O   UNL     1      -7.355   7.399  71.455  1.00  0.00    -0.077 OA 
HETATM   11  C   UNL     1     -11.115   6.160  67.089  1.00  0.00    -0.335 A  
HETATM   12  C   UNL     1      -9.492   2.831  71.964  1.00  0.00    -0.197 A  
HETATM   13  S   UNL     1      -8.612   5.046  72.891  1.00  0.00    -0.118 SA 
HETATM   14  C   UNL     1      -8.841   3.365  73.050  1.00  0.00    -0.085 A  
HETATM   15  S   UNL     1      -8.767   5.563  67.930  1.00  0.00    -0.105 SA 
ENDROOT
BRANCH   6  16
HETATM   16  O   UNL     1      -8.260   8.258  69.574  1.00  0.00    -0.115 OA 
BRANCH  16  17
HETATM   17  C   UNL     1      -6.999   8.684  69.029  1.00  0.00    -0.064 C  
HETATM   18  N   UNL     1      -6.761  10.390  67.123  1.00  0.00    -0.076 N  
HETATM   19  C   UNL     1      -7.014   8.877  67.491  1.00  0.00    -0.075 C  
HETATM   20  C   UNL     1      -5.399  10.792  67.712  1.00  0.00    -0.039 C  
HETATM   21  C   UNL     1      -7.870  11.212  67.792  1.00  0.00    -0.114 C  
HETATM   22  C   UNL     1      -5.337  10.506  69.204  1.00  0.00    -0.038 C  
HETATM   23  C   UNL     1      -7.757  11.064  69.311  1.00  0.00    -0.071 C  
HETATM   24  C   UNL     1      -6.689  10.026  69.706  1.00  0.00    -0.086 C  
BRANCH  18  25
HETATM   25  C   UNL     1      -6.827  10.494  65.570  1.00  0.00    -0.100 C  
BRANCH  25  26
HETATM   26  C   UNL     1      -7.554   9.375  64.806  1.00  0.00    -0.111 C  
BRANCH  26  27
HETATM   27  C   UNL     1      -9.051   9.600  64.648  1.00  0.00    -0.235 C  
BRANCH  27  28
HETATM   28  O   UNL     1      -9.346  10.686  63.780  1.00  0.00    -0.223 OA 
BRANCH  28  29
HETATM   29  C   UNL     1     -10.341  11.517  64.246  1.00  0.00    -0.323 A  
HETATM   30  C   UNL     1     -10.521  11.492  65.625  1.00  0.00    -0.317 A  
HETATM   31  C   UNL     1     -11.525  12.259  66.225  1.00  0.00    -0.435 A  
HETATM   32  C   UNL     1     -12.342  13.076  65.446  1.00  0.00    -0.538 A  
HETATM   33  C   UNL     1     -12.148  13.138  64.073  1.00  0.00    -0.511 A  
HETATM   34  C   UNL     1     -11.148  12.366  63.474  1.00  0.00    -0.521 A  
ENDBRANCH  28  29
ENDBRANCH  27  28
ENDBRANCH  26  27
ENDBRANCH  25  26
ENDBRANCH  18  25
ENDBRANCH  16  17
ENDBRANCH   6  16
TORSDOF 7
ENDMDL
MODEL      130
REMARK 921   NORMALIZED FREE ENERGY PREDICTED BY IDOCK:   -4.27 KCAL/MOL
REMARK 922        TOTAL FREE ENERGY PREDICTED BY IDOCK:   -7.67 KCAL/MOL
REMARK 923 INTER-LIGAND FREE ENERGY PREDICTED BY IDOCK:   -6.20 KCAL/MOL
REMARK 924 INTRA-LIGAND FREE ENERGY PREDICTED BY IDOCK:   -1.47 KCAL/MOL
REMARK 927      BINDING AFFINITY PREDICTED BY RF-SCORE:    0.00 PKD
ROOT
HETATM    1  O   UNL     1     -10.932   6.574  66.489  1.00  0.00    -0.537 OA 
HETATM    2  C   UNL     1      -9.502   6.466  66.548  1.00  0.00    -0.156 C  
HETATM    3  H   UNL     1     -11.176   6.780  65.594  1.00  0.00     0.000 HD 
HETATM    4  C   UNL     1      -8.955   7.851  66.181  1.00  0.00    -0.175 A  
HETATM    5  C   UNL     1      -9.127   5.393  65.528  1.00  0.00    -0.118 A  
HETATM    6  C   UNL     1      -9.099   6.125  68.032  1.00  0.00    -0.114 C  
HETATM    7  C   UNL     1      -7.501   9.835  65.858  1.00  0.00    -0.103 A  
HETATM    8  C   UNL     1      -9.646   8.960  65.719  1.00  0.00    -0.245 A  
HETATM    9  C   UNL     1      -8.678   5.559  64.224  1.00  0.00     0.063 A  
HETATM   10  O   UNL     1      -8.914   5.022  68.532  1.00  0.00    -0.103 OA 
HETATM   11  C   UNL     1      -8.813  10.101  65.546  1.00  0.00    -0.191 A  
HETATM   12  C   UNL     1      -8.495   4.330  63.529  1.00  0.00    -0.105 A  
HETATM   13  S   UNL     1      -9.401   3.719  65.840  1.00  0.00    -0.168 SA 
HETATM   14  C   UNL     1      -8.833   3.248  64.305  1.00  0.00    -0.098 A  
HETATM   15  S   UNL     1      -7.266   8.205  66.311  1.00  0.00    -0.079 SA 
ENDROOT
BRANCH   6  16
HETATM   16  O   UNL     1      -9.032   7.259  68.803  1.00  0.00    -0.130 OA 
BRANCH  16  17
HETATM   17  C   UNL     1     -10.238   7.708  69.442  1.00  0.00    -0.206 C  
HETATM   18  N   UNL     1     -10.482   8.044  71.978  1.00  0.00    -0.228 N  
HETATM   19  C   UNL     1     -10.532   7.005  70.793  1.00  0.00    -0.212 C  
HETATM   20  C   UNL     1     -11.528   9.133  71.688  1.00  0.00    -0.381 C  
HETATM   21  C   UNL     1      -9.081   8.668  71.975  1.00  0.00    -0.241 C  
HETATM   22  C   UNL     1     -11.312   9.756  70.319  1.00  0.00    -0.333 C  
HETATM   23  C   UNL     1      -8.873   9.429  70.663  1.00  0.00    -0.275 C  
HETATM   24  C   UNL     1     -10.043   9.211  69.685  1.00  0.00    -0.206 C  
BRANCH  18  25
HETATM   25  C   UNL     1     -10.753   7.248  73.288  1.00  0.00    -0.383 C  
BRANCH  25  26
HETATM   26  C   UNL     1      -9.556   6.944  74.204  1.00  0.00    -0.308 C  
BRANCH  26  27
HETATM   27  C   UNL     1      -9.291   5.460  74.412  1.00  0.00    -0.131 C  
BRANCH  27  28
HETATM   28  O   UNL     1      -8.518   4.896  73.362  1.00  0.00    -0.106 OA 
BRANCH  28  29
HETATM   29  C   UNL     1      -9.063   3.752  72.820  1.00  0.00    -0.100 A  
HETATM   30  C   UNL     1      -8.456   3.318  71.647  1.00  0.00    -0.087 A  
HETATM   31  C   UNL     1      -8.936   2.192  70.973  1.00  0.00    -0.139 A  
HETATM   32  C   UNL     1     -10.018   1.477  71.484  1.00  0.00    -0.194 A  
HETATM   33  C   UNL     1     -10.609   1.879  72.674  1.00  0.00    -0.219 A  
HETATM   34  C   UNL     1     -10.131   3.009  73.344  1.00  0.00    -0.191 A  
ENDBRANCH  28  29
ENDBRANCH  27  28
ENDBRANCH  26  27
ENDBRANCH  25  26
ENDBRANCH  18  25
ENDBRANCH  16  17
ENDBRANCH   6  16
TORSDOF 7
ENDMDL
MODEL      131
REMARK 921   NORMALIZED FREE ENERGY PREDICTED BY IDOCK:   -4.27 KCAL/MOL
REMARK 922        TOTAL FREE ENERGY PREDICTED BY IDOCK:   -7.67 KCAL/MOL
REMARK 923 INTER-LIGAND FREE ENERGY PREDICTED BY IDOCK:   -5.83 KCAL/MOL
REMARK 924 INTRA-LIGAND FREE ENERGY PREDICTED BY IDOCK:   -1.84 KCAL/MOL
REMARK 927      BINDING AFFINITY PREDICTED BY RF-SCORE:    0.00 PKD
ROOT
HETATM    1  O   UNL     1     -10.209  10.047  67.504  1.00  0.00    -0.186 OA 
HETATM    2  C   UNL     1      -9.451  11.098  66.886  1.00  0.00    -0.185 C  
HETATM    3  H   UNL     1     -10.531  10.368  68.338  1.00  0.00     0.000 HD 
HETATM    4  C   UNL     1      -8.263  11.371  67.816  1.00  0.00    -0.125 A  
HETATM    5  C   UNL     1     -10.404  12.287  66.780  1.00  0.00    -0.217 A  
HETATM    6  C   UNL     1      -8.917  10.566  65.503  1.00  0.00    -0.183 C  
HETATM    7  C   UNL     1      -6.104  12.132  68.770  1.00  0.00    -0.067 A  
HETATM    8  C   UNL     1      -8.017  10.857  69.080  1.00  0.00    -0.131 A  
HETATM    9  C   UNL     1     -10.514  13.385  67.625  1.00  0.00    -0.242 A  
HETATM   10  O   UNL     1      -9.432  10.679  64.397  1.00  0.00    -0.222 OA 
HETATM   11  C   UNL     1      -6.773  11.284  69.621  1.00  0.00    -0.122 A  
HETATM   12  C   UNL     1     -11.569  14.270  67.265  1.00  0.00    -0.401 A  
HETATM   13  S   UNL     1     -11.669  12.326  65.608  1.00  0.00    -0.332 SA 
HETATM   14  C   UNL     1     -12.264  13.821  66.168  1.00  0.00    -0.459 A  
HETATM   15  S   UNL     1      -6.994  12.449  67.348  1.00  0.00    -0.133 SA 
ENDROOT
BRANCH   6  16
HETATM   16  O   UNL     1      -7.761   9.843  65.661  1.00  0.00    -0.111 OA 
BRANCH  16  17
HETATM   17  C   UNL     1      -7.873   8.494  66.144  1.00  0.00    -0.098 C  
HETATM   18  N   UNL     1      -6.841   6.455  64.970  1.00  0.00    -0.046 N  
HETATM   19  C   UNL     1      -8.071   7.440  65.023  1.00  0.00    -0.122 C  
HETATM   20  C   UNL     1      -6.725   5.777  66.344  1.00  0.00    -0.057 C  
HETATM   21  C   UNL     1      -5.589   7.306  64.713  1.00  0.00    -0.033 C  
HETATM   22  C   UNL     1      -6.638   6.804  67.461  1.00  0.00    -0.054 C  
HETATM   23  C   UNL     1      -5.384   8.264  65.888  1.00  0.00    -0.031 C  
HETATM   24  C   UNL     1      -6.559   8.208  66.883  1.00  0.00    -0.057 C  
BRANCH  18  25
HETATM   25  C   UNL     1      -7.108   5.461  63.801  1.00  0.00    -0.048 C  
BRANCH  25  26
HETATM   26  C   UNL     1      -8.554   4.988  63.579  1.00  0.00    -0.108 C  
BRANCH  26  27
HETATM   27  C   UNL     1      -8.994   3.868  64.512  1.00  0.00    -0.132 C  
BRANCH  27  28
HETATM   28  O   UNL     1     -10.259   4.125  65.106  1.00  0.00    -0.224 OA 
BRANCH  28  29
HETATM   29  C   UNL     1     -10.181   4.623  66.388  1.00  0.00    -0.260 A  
HETATM   30  C   UNL     1      -9.533   3.793  67.296  1.00  0.00    -0.238 A  
HETATM   31  C   UNL     1      -9.419   4.161  68.640  1.00  0.00    -0.221 A  
HETATM   32  C   UNL     1      -9.936   5.377  69.080  1.00  0.00    -0.267 A  
HETATM   33  C   UNL     1     -10.553   6.231  68.177  1.00  0.00    -0.318 A  
HETATM   34  C   UNL     1     -10.671   5.860  66.834  1.00  0.00    -0.395 A  
ENDBRANCH  28  29
ENDBRANCH  27  28
ENDBRANCH  26  27
ENDBRANCH  25  26
ENDBRANCH  18  25
ENDBRANCH  16  17
ENDBRANCH   6  16
TORSDOF 7
ENDMDL
MODEL      132
REMARK 921   NORMALIZED FREE ENERGY PREDICTED BY IDOCK:   -4.26 KCAL/MOL
REMARK 922        TOTAL FREE ENERGY PREDICTED BY IDOCK:   -7.66 KCAL/MOL
REMARK 923 INTER-LIGAND FREE ENERGY PREDICTED BY IDOCK:   -7.05 KCAL/MOL
REMARK 924 INTRA-LIGAND FREE ENERGY PREDICTED BY IDOCK:   -0.60 KCAL/MOL
REMARK 927      BINDING AFFINITY PREDICTED BY RF-SCORE:    0.00 PKD
ROOT
HETATM    1  O   UNL     1     -10.675   7.964  66.544  1.00  0.00    -0.376 OA 
HETATM    2  C   UNL     1      -9.715   8.735  67.282  1.00  0.00    -0.183 C  
HETATM    3  H   UNL     1     -10.263   7.146  66.288  1.00  0.00     0.000 HD 
HETATM    4  C   UNL     1      -8.567   9.030  66.309  1.00  0.00    -0.128 A  
HETATM    5  C   UNL     1      -9.287   7.851  68.451  1.00  0.00    -0.140 A  
HETATM    6  C   UNL     1     -10.398  10.089  67.705  1.00  0.00    -0.224 C  
HETATM    7  C   UNL     1      -6.552   9.969  65.209  1.00  0.00    -0.116 A  
HETATM    8  C   UNL     1      -8.369   8.538  65.028  1.00  0.00    -0.175 A  
HETATM    9  C   UNL     1      -8.157   7.050  68.561  1.00  0.00    -0.124 A  
HETATM   10  O   UNL     1     -10.982  10.350  68.750  1.00  0.00    -0.218 OA 
HETATM   11  C   UNL     1      -7.220   9.086  64.393  1.00  0.00    -0.098 A  
HETATM   12  C   UNL     1      -8.113   6.298  69.769  1.00  0.00    -0.120 A  
HETATM   13  S   UNL     1     -10.320   7.588  69.808  1.00  0.00    -0.225 SA 
HETATM   14  C   UNL     1      -9.223   6.516  70.549  1.00  0.00    -0.155 A  
HETATM   15  S   UNL     1      -7.278  10.098  66.749  1.00  0.00    -0.096 SA 
ENDROOT
BRANCH   6  16
HETATM   16  O   UNL     1     -10.341  11.013  66.690  1.00  0.00    -0.223 OA 
BRANCH  16  17
HETATM   17  C   UNL     1     -11.433  11.939  66.563  1.00  0.00    -0.314 C  
HETATM   18  N   UNL     1     -11.144  14.450  66.102  1.00  0.00    -0.323 N  
HETATM   19  C   UNL     1     -11.160  13.324  67.206  1.00  0.00    -0.279 C  
HETATM   20  C   UNL     1     -12.509  14.433  65.397  1.00  0.00    -0.350 C  
HETATM   21  C   UNL     1     -10.044  14.083  65.096  1.00  0.00    -0.314 C  
HETATM   22  C   UNL     1     -12.834  13.050  64.855  1.00  0.00    -0.368 C  
HETATM   23  C   UNL     1     -10.405  12.757  64.421  1.00  0.00    -0.388 C  
HETATM   24  C   UNL     1     -11.654  12.115  65.054  1.00  0.00    -0.365 C  
BRANCH  18  25
HETATM   25  C   UNL     1     -10.831  15.791  66.830  1.00  0.00    -0.254 C  
BRANCH  25  26
HETATM   26  C   UNL     1      -9.382  16.041  67.281  1.00  0.00    -0.218 C  
BRANCH  26  27
HETATM   27  C   UNL     1      -8.556  16.861  66.300  1.00  0.00    -0.284 C  
BRANCH  27  28
HETATM   28  O   UNL     1      -7.195  16.966  66.694  1.00  0.00    -0.208 OA 
BRANCH  28  29
HETATM   29  C   UNL     1      -6.829  16.072  67.677  1.00  0.00    -0.159 A  
HETATM   30  C   UNL     1      -6.798  16.601  68.962  1.00  0.00    -0.207 A  
HETATM   31  C   UNL     1      -6.405  15.812  70.047  1.00  0.00    -0.101 A  
HETATM   32  C   UNL     1      -6.061  14.475  69.853  1.00  0.00    -0.141 A  
HETATM   33  C   UNL     1      -6.124  13.925  68.580  1.00  0.00    -0.088 A  
HETATM   34  C   UNL     1      -6.512  14.717  67.496  1.00  0.00    -0.090 A  
ENDBRANCH  28  29
ENDBRANCH  27  28
ENDBRANCH  26  27
ENDBRANCH  25  26
ENDBRANCH  18  25
ENDBRANCH  16  17
ENDBRANCH   6  16
TORSDOF 7
ENDMDL
MODEL      133
REMARK 921   NORMALIZED FREE ENERGY PREDICTED BY IDOCK:   -4.24 KCAL/MOL
REMARK 922        TOTAL FREE ENERGY PREDICTED BY IDOCK:   -7.62 KCAL/MOL
REMARK 923 INTER-LIGAND FREE ENERGY PREDICTED BY IDOCK:   -5.64 KCAL/MOL
REMARK 924 INTRA-LIGAND FREE ENERGY PREDICTED BY IDOCK:   -1.98 KCAL/MOL
REMARK 927      BINDING AFFINITY PREDICTED BY RF-SCORE:    0.00 PKD
ROOT
HETATM    1  O   UNL     1      -9.358  11.626  67.364  1.00  0.00    -0.165 OA 
HETATM    2  C   UNL     1      -8.777  10.314  67.391  1.00  0.00    -0.128 C  
HETATM    3  H   UNL     1      -8.680  12.243  67.114  1.00  0.00     0.000 HD 
HETATM    4  C   UNL     1      -7.696  10.347  68.478  1.00  0.00    -0.101 A  
HETATM    5  C   UNL     1      -8.203  10.088  65.994  1.00  0.00    -0.126 A  
HETATM    6  C   UNL     1      -9.900   9.291  67.807  1.00  0.00    -0.171 C  
HETATM    7  C   UNL     1      -5.996   9.727  70.174  1.00  0.00    -0.053 A  
HETATM    8  C   UNL     1      -7.225  11.436  69.197  1.00  0.00    -0.102 A  
HETATM    9  C   UNL     1      -6.891  10.242  65.563  1.00  0.00    -0.134 A  
HETATM   10  O   UNL     1     -10.636   8.636  67.078  1.00  0.00    -0.294 OA 
HETATM   11  C   UNL     1      -6.258  11.077  70.178  1.00  0.00    -0.146 A  
HETATM   12  C   UNL     1      -6.725  10.019  64.167  1.00  0.00    -0.128 A  
HETATM   13  S   UNL     1      -9.224   9.756  64.643  1.00  0.00    -0.236 SA 
HETATM   14  C   UNL     1      -7.917   9.723  63.550  1.00  0.00    -0.145 A  
HETATM   15  S   UNL     1      -6.873   8.904  68.962  1.00  0.00    -0.060 SA 
ENDROOT
BRANCH   6  16
HETATM   16  O   UNL     1     -10.046   9.240  69.171  1.00  0.00    -0.186 OA 
BRANCH  16  17
HETATM   17  C   UNL     1     -10.784   8.138  69.727  1.00  0.00    -0.229 C  
HETATM   18  N   UNL     1      -9.783   6.403  71.335  1.00  0.00    -0.173 N  
HETATM   19  C   UNL     1      -9.968   6.823  69.827  1.00  0.00    -0.177 C  
HETATM   20  C   UNL     1     -11.183   6.227  71.946  1.00  0.00    -0.283 C  
HETATM   21  C   UNL     1      -9.058   7.556  72.042  1.00  0.00    -0.129 C  
HETATM   22  C   UNL     1     -12.028   7.476  71.758  1.00  0.00    -0.334 C  
HETATM   23  C   UNL     1      -9.942   8.805  71.999  1.00  0.00    -0.391 C  
HETATM   24  C   UNL     1     -11.198   8.586  71.135  1.00  0.00    -0.317 C  
BRANCH  18  25
HETATM   25  C   UNL     1      -8.930   5.100  71.340  1.00  0.00    -0.137 C  
BRANCH  25  26
HETATM   26  C   UNL     1      -9.648   3.771  71.057  1.00  0.00    -0.249 C  
BRANCH  26  27
HETATM   27  C   UNL     1      -9.307   3.153  69.708  1.00  0.00    -0.153 C  
BRANCH  27  28
HETATM   28  O   UNL     1      -8.179   3.767  69.102  1.00  0.00    -0.061 OA 
BRANCH  28  29
HETATM   29  C   UNL     1      -8.455   4.377  67.898  1.00  0.00    -0.098 A  
HETATM   30  C   UNL     1      -7.596   5.417  67.563  1.00  0.00    -0.088 A  
HETATM   31  C   UNL     1      -7.788   6.147  66.386  1.00  0.00    -0.104 A  
HETATM   32  C   UNL     1      -8.832   5.823  65.522  1.00  0.00    -0.119 A  
HETATM   33  C   UNL     1      -9.675   4.762  65.828  1.00  0.00    -0.200 A  
HETATM   34  C   UNL     1      -9.485   4.037  67.008  1.00  0.00    -0.223 A  
ENDBRANCH  28  29
ENDBRANCH  27  28
ENDBRANCH  26  27
ENDBRANCH  25  26
ENDBRANCH  18  25
ENDBRANCH  16  17
ENDBRANCH   6  16
TORSDOF 7
ENDMDL
MODEL      134
REMARK 921   NORMALIZED FREE ENERGY PREDICTED BY IDOCK:   -4.23 KCAL/MOL
REMARK 922        TOTAL FREE ENERGY PREDICTED BY IDOCK:   -7.61 KCAL/MOL
REMARK 923 INTER-LIGAND FREE ENERGY PREDICTED BY IDOCK:   -5.81 KCAL/MOL
REMARK 924 INTRA-LIGAND FREE ENERGY PREDICTED BY IDOCK:   -1.80 KCAL/MOL
REMARK 927      BINDING AFFINITY PREDICTED BY RF-SCORE:    0.00 PKD
ROOT
HETATM    1  O   UNL     1     -11.361   7.626  67.167  1.00  0.00    -0.330 OA 
HETATM    2  C   UNL     1     -10.365   8.360  67.895  1.00  0.00    -0.221 C  
HETATM    3  H   UNL     1     -12.213   7.857  67.519  1.00  0.00     0.000 HD 
HETATM    4  C   UNL     1     -10.460   7.881  69.349  1.00  0.00    -0.220 A  
HETATM    5  C   UNL     1     -10.737   9.833  67.733  1.00  0.00    -0.272 A  
HETATM    6  C   UNL     1      -8.953   7.977  67.313  1.00  0.00    -0.138 C  
HETATM    7  C   UNL     1     -10.006   7.408  71.741  1.00  0.00    -0.171 A  
HETATM    8  C   UNL     1     -11.402   7.042  69.924  1.00  0.00    -0.260 A  
HETATM    9  C   UNL     1     -11.434  10.651  68.613  1.00  0.00    -0.332 A  
HETATM   10  O   UNL     1      -8.316   8.545  66.434  1.00  0.00    -0.108 OA 
HETATM   11  C   UNL     1     -11.134   6.761  71.293  1.00  0.00    -0.303 A  
HETATM   12  C   UNL     1     -11.670  11.958  68.103  1.00  0.00    -0.388 A  
HETATM   13  S   UNL     1     -10.466  10.672  66.250  1.00  0.00    -0.164 SA 
HETATM   14  C   UNL     1     -11.173  12.109  66.831  1.00  0.00    -0.320 A  
HETATM   15  S   UNL     1      -9.302   8.387  70.531  1.00  0.00    -0.167 SA 
ENDROOT
BRANCH   6  16
HETATM   16  O   UNL     1      -8.484   6.813  67.871  1.00  0.00    -0.119 OA 
BRANCH  16  17
HETATM   17  C   UNL     1      -7.842   5.863  67.004  1.00  0.00    -0.102 C  
HETATM   18  N   UNL     1      -7.784   3.331  67.436  1.00  0.00    -0.076 N  
HETATM   19  C   UNL     1      -7.111   4.721  67.755  1.00  0.00    -0.062 C  
HETATM   20  C   UNL     1      -7.715   3.118  65.915  1.00  0.00    -0.081 C  
HETATM   21  C   UNL     1      -9.252   3.427  67.873  1.00  0.00    -0.189 C  
HETATM   22  C   UNL     1      -8.336   4.285  65.165  1.00  0.00    -0.114 C  
HETATM   23  C   UNL     1      -9.954   4.501  67.039  1.00  0.00    -0.215 C  
HETATM   24  C   UNL     1      -8.963   5.266  66.141  1.00  0.00    -0.139 C  
BRANCH  18  25
HETATM   25  C   UNL     1      -7.010   2.256  68.255  1.00  0.00    -0.043 C  
BRANCH  25  26
HETATM   26  C   UNL     1      -6.165   2.733  69.447  1.00  0.00    -0.028 C  
BRANCH  26  27
HETATM   27  C   UNL     1      -6.872   2.637  70.791  1.00  0.00    -0.033 C  
BRANCH  27  28
HETATM   28  O   UNL     1      -7.875   3.631  70.946  1.00  0.00    -0.047 OA 
BRANCH  28  29
HETATM   29  C   UNL     1      -8.860   3.293  71.849  1.00  0.00    -0.090 A  
HETATM   30  C   UNL     1      -9.457   2.058  71.622  1.00  0.00    -0.191 A  
HETATM   31  C   UNL     1     -10.498   1.610  72.442  1.00  0.00    -0.226 A  
HETATM   32  C   UNL     1     -10.933   2.390  73.511  1.00  0.00    -0.299 A  
HETATM   33  C   UNL     1     -10.320   3.608  73.770  1.00  0.00    -0.235 A  
HETATM   34  C   UNL     1      -9.283   4.057  72.947  1.00  0.00    -0.130 A  
ENDBRANCH  28  29
ENDBRANCH  27  28
ENDBRANCH  26  27
ENDBRANCH  25  26
ENDBRANCH  18  25
ENDBRANCH  16  17
ENDBRANCH   6  16
TORSDOF 7
ENDMDL
MODEL      135
REMARK 921   NORMALIZED FREE ENERGY PREDICTED BY IDOCK:   -4.23 KCAL/MOL
REMARK 922        TOTAL FREE ENERGY PREDICTED BY IDOCK:   -7.60 KCAL/MOL
REMARK 923 INTER-LIGAND FREE ENERGY PREDICTED BY IDOCK:   -7.04 KCAL/MOL
REMARK 924 INTRA-LIGAND FREE ENERGY PREDICTED BY IDOCK:   -0.56 KCAL/MOL
REMARK 927      BINDING AFFINITY PREDICTED BY RF-SCORE:    0.00 PKD
ROOT
HETATM    1  O   UNL     1      -9.848   7.075  65.862  1.00  0.00    -0.381 OA 
HETATM    2  C   UNL     1      -8.997   5.974  66.213  1.00  0.00    -0.149 C  
HETATM    3  H   UNL     1      -9.586   7.388  65.004  1.00  0.00     0.000 HD 
HETATM    4  C   UNL     1      -7.575   6.543  66.294  1.00  0.00    -0.090 A  
HETATM    5  C   UNL     1      -9.161   4.951  65.091  1.00  0.00    -0.123 A  
HETATM    6  C   UNL     1      -9.430   5.456  67.635  1.00  0.00    -0.122 C  
HETATM    7  C   UNL     1      -5.160   6.879  66.751  1.00  0.00    -0.017 A  
HETATM    8  C   UNL     1      -7.128   7.809  65.947  1.00  0.00    -0.064 A  
HETATM    9  C   UNL     1      -8.342   4.737  63.990  1.00  0.00    -0.124 A  
HETATM   10  O   UNL     1     -10.219   4.559  67.907  1.00  0.00    -0.039 OA 
HETATM   11  C   UNL     1      -5.746   8.005  66.221  1.00  0.00    -0.040 A  
HETATM   12  C   UNL     1      -8.842   3.746  63.098  1.00  0.00    -0.100 A  
HETATM   13  S   UNL     1     -10.583   3.984  64.955  1.00  0.00    -0.026 SA 
HETATM   14  C   UNL     1     -10.047   3.239  63.519  1.00  0.00    -0.173 A  
HETATM   15  S   UNL     1      -6.260   5.578  66.872  1.00  0.00    -0.036 SA 
ENDROOT
BRANCH   6  16
HETATM   16  O   UNL     1      -8.854   6.202  68.634  1.00  0.00    -0.115 OA 
BRANCH  16  17
HETATM   17  C   UNL     1      -9.306   7.557  68.805  1.00  0.00    -0.147 C  
HETATM   18  N   UNL     1     -10.031   8.556  71.059  1.00  0.00    -0.192 N  
HETATM   19  C   UNL     1     -10.479   7.704  69.809  1.00  0.00    -0.232 C  
HETATM   20  C   UNL     1      -9.570   9.930  70.547  1.00  0.00     0.030 C  
HETATM   21  C   UNL     1      -8.843   7.826  71.702  1.00  0.00    -0.118 C  
HETATM   22  C   UNL     1      -8.494   9.792  69.483  1.00  0.00    -0.176 C  
HETATM   23  C   UNL     1      -7.680   7.788  70.708  1.00  0.00    -0.084 C  
HETATM   24  C   UNL     1      -8.090   8.335  69.328  1.00  0.00    -0.116 C  
BRANCH  18  25
HETATM   25  C   UNL     1     -11.253   8.622  72.021  1.00  0.00    -0.364 C  
BRANCH  25  26
HETATM   26  C   UNL     1     -12.609   9.042  71.431  1.00  0.00    -0.370 C  
BRANCH  26  27
HETATM   27  C   UNL     1     -13.026  10.465  71.775  1.00  0.00    -0.475 C  
BRANCH  27  28
HETATM   28  O   UNL     1     -12.279  11.436  71.056  1.00  0.00    -0.346 OA 
BRANCH  28  29
HETATM   29  C   UNL     1     -12.710  12.729  71.254  1.00  0.00    -0.269 A  
HETATM   30  C   UNL     1     -12.066  13.682  70.474  1.00  0.00    -0.411 A  
HETATM   31  C   UNL     1     -12.380  15.039  70.603  1.00  0.00    -0.404 A  
HETATM   32  C   UNL     1     -13.363  15.447  71.503  1.00  0.00    -0.586 A  
HETATM   33  C   UNL     1     -14.039  14.502  72.261  1.00  0.00    -0.594 A  
HETATM   34  C   UNL     1     -13.720  13.147  72.135  1.00  0.00    -0.588 A  
ENDBRANCH  28  29
ENDBRANCH  27  28
ENDBRANCH  26  27
ENDBRANCH  25  26
ENDBRANCH  18  25
ENDBRANCH  16  17
ENDBRANCH   6  16
TORSDOF 7
ENDMDL
MODEL      136
REMARK 921   NORMALIZED FREE ENERGY PREDICTED BY IDOCK:   -4.20 KCAL/MOL
REMARK 922        TOTAL FREE ENERGY PREDICTED BY IDOCK:   -7.57 KCAL/MOL
REMARK 923 INTER-LIGAND FREE ENERGY PREDICTED BY IDOCK:   -6.41 KCAL/MOL
REMARK 924 INTRA-LIGAND FREE ENERGY PREDICTED BY IDOCK:   -1.16 KCAL/MOL
REMARK 927      BINDING AFFINITY PREDICTED BY RF-SCORE:    0.00 PKD
ROOT
HETATM    1  O   UNL     1      -8.725  17.884  68.562  1.00  0.00    -0.292 OA 
HETATM    2  C   UNL     1      -7.953  17.188  67.572  1.00  0.00    -0.176 C  
HETATM    3  H   UNL     1      -8.123  18.278  69.182  1.00  0.00     0.000 HD 
HETATM    4  C   UNL     1      -7.200  16.081  68.320  1.00  0.00    -0.131 A  
HETATM    5  C   UNL     1      -7.018  18.234  66.968  1.00  0.00    -0.191 A  
HETATM    6  C   UNL     1      -8.951  16.535  66.544  1.00  0.00    -0.278 C  
HETATM    7  C   UNL     1      -5.897  14.052  68.899  1.00  0.00    -0.083 A  
HETATM    8  C   UNL     1      -7.118  15.861  69.686  1.00  0.00    -0.130 A  
HETATM    9  C   UNL     1      -5.687  18.485  67.276  1.00  0.00    -0.146 A  
HETATM   10  O   UNL     1      -9.359  16.996  65.485  1.00  0.00    -0.457 OA 
HETATM   11  C   UNL     1      -6.380  14.690  70.017  1.00  0.00    -0.165 A  
HETATM   12  C   UNL     1      -5.142  19.592  66.566  1.00  0.00    -0.163 A  
HETATM   13  S   UNL     1      -7.597  19.431  65.869  1.00  0.00    -0.203 SA 
HETATM   14  C   UNL     1      -6.073  20.184  65.747  1.00  0.00    -0.197 A  
HETATM   15  S   UNL     1      -6.288  14.887  67.462  1.00  0.00     0.067 SA 
ENDROOT
BRANCH   6  16
HETATM   16  O   UNL     1      -9.422  15.330  67.006  1.00  0.00    -0.212 OA 
BRANCH  16  17
HETATM   17  C   UNL     1      -9.790  14.336  66.034  1.00  0.00    -0.314 C  
HETATM   18  N   UNL     1     -10.393  11.908  66.617  1.00  0.00    -0.207 N  
HETATM   19  C   UNL     1      -9.221  12.925  66.333  1.00  0.00    -0.137 C  
HETATM   20  C   UNL     1     -11.300  11.882  65.377  1.00  0.00    -0.277 C  
HETATM   21  C   UNL     1     -11.182  12.449  67.816  1.00  0.00    -0.275 C  
HETATM   22  C   UNL     1     -11.777  13.278  65.012  1.00  0.00    -0.362 C  
HETATM   23  C   UNL     1     -11.801  13.798  67.442  1.00  0.00    -0.431 C  
HETATM   24  C   UNL     1     -11.324  14.281  66.059  1.00  0.00    -0.335 C  
BRANCH  18  25
HETATM   25  C   UNL     1      -9.731  10.535  66.939  1.00  0.00    -0.180 C  
BRANCH  25  26
HETATM   26  C   UNL     1     -10.657   9.331  67.174  1.00  0.00    -0.286 C  
BRANCH  26  27
HETATM   27  C   UNL     1     -10.261   8.462  68.360  1.00  0.00    -0.206 C  
BRANCH  27  28
HETATM   28  O   UNL     1      -8.997   7.840  68.177  1.00  0.00    -0.128 OA 
BRANCH  28  29
HETATM   29  C   UNL     1      -8.173   7.915  69.279  1.00  0.00    -0.128 A  
HETATM   30  C   UNL     1      -8.240   9.118  69.974  1.00  0.00    -0.146 A  
HETATM   31  C   UNL     1      -7.427   9.341  71.089  1.00  0.00    -0.045 A  
HETATM   32  C   UNL     1      -6.556   8.347  71.532  1.00  0.00    -0.064 A  
HETATM   33  C   UNL     1      -6.508   7.128  70.869  1.00  0.00    -0.044 A  
HETATM   34  C   UNL     1      -7.317   6.909  69.750  1.00  0.00    -0.085 A  
ENDBRANCH  28  29
ENDBRANCH  27  28
ENDBRANCH  26  27
ENDBRANCH  25  26
ENDBRANCH  18  25
ENDBRANCH  16  17
ENDBRANCH   6  16
TORSDOF 7
ENDMDL
MODEL      137
REMARK 921   NORMALIZED FREE ENERGY PREDICTED BY IDOCK:   -4.18 KCAL/MOL
REMARK 922        TOTAL FREE ENERGY PREDICTED BY IDOCK:   -7.54 KCAL/MOL
REMARK 923 INTER-LIGAND FREE ENERGY PREDICTED BY IDOCK:   -7.08 KCAL/MOL
REMARK 924 INTRA-LIGAND FREE ENERGY PREDICTED BY IDOCK:   -0.46 KCAL/MOL
REMARK 927      BINDING AFFINITY PREDICTED BY RF-SCORE:    0.00 PKD
ROOT
HETATM    1  O   UNL     1      -9.773  13.346  69.171  1.00  0.00    -0.385 OA 
HETATM    2  C   UNL     1     -11.064  13.280  68.545  1.00  0.00    -0.265 C  
HETATM    3  H   UNL     1      -9.597  14.254  69.388  1.00  0.00     0.000 HD 
HETATM    4  C   UNL     1     -10.953  14.097  67.252  1.00  0.00    -0.297 A  
HETATM    5  C   UNL     1     -12.040  13.890  69.548  1.00  0.00    -0.342 A  
HETATM    6  C   UNL     1     -11.355  11.775  68.185  1.00  0.00    -0.284 C  
HETATM    7  C   UNL     1     -11.350  15.088  65.013  1.00  0.00    -0.394 A  
HETATM    8  C   UNL     1      -9.903  14.890  66.816  1.00  0.00    -0.254 A  
HETATM    9  C   UNL     1     -12.548  15.182  69.584  1.00  0.00    -0.094 A  
HETATM   10  O   UNL     1     -11.954  10.938  68.851  1.00  0.00    -0.395 OA 
HETATM   11  C   UNL     1     -10.126  15.448  65.527  1.00  0.00    -0.405 A  
HETATM   12  C   UNL     1     -13.381  15.431  70.711  1.00  0.00    -0.385 A  
HETATM   13  S   UNL     1     -12.532  13.033  70.963  1.00  0.00    -0.186 SA 
HETATM   14  C   UNL     1     -13.474  14.333  71.532  1.00  0.00    -0.351 A  
HETATM   15  S   UNL     1     -12.245  14.122  66.101  1.00  0.00    -0.411 SA 
ENDROOT
BRANCH   6  16
HETATM   16  O   UNL     1     -10.773  11.427  66.991  1.00  0.00    -0.235 OA 
BRANCH  16  17
HETATM   17  C   UNL     1      -9.342  11.291  66.956  1.00  0.00    -0.172 C  
HETATM   18  N   UNL     1      -8.097   9.084  67.383  1.00  0.00    -0.107 N  
HETATM   19  C   UNL     1      -8.775  10.344  68.046  1.00  0.00    -0.123 C  
HETATM   20  C   UNL     1      -6.977   9.588  66.458  1.00  0.00    -0.085 C  
HETATM   21  C   UNL     1      -9.172   8.379  66.545  1.00  0.00    -0.189 C  
HETATM   22  C   UNL     1      -7.504  10.599  65.453  1.00  0.00    -0.028 C  
HETATM   23  C   UNL     1      -9.633   9.317  65.427  1.00  0.00    -0.237 C  
HETATM   24  C   UNL     1      -9.015  10.721  65.569  1.00  0.00    -0.210 C  
BRANCH  18  25
HETATM   25  C   UNL     1      -7.590   8.180  68.545  1.00  0.00    -0.104 C  
BRANCH  25  26
HETATM   26  C   UNL     1      -8.522   7.063  69.043  1.00  0.00    -0.129 C  
BRANCH  26  27
HETATM   27  C   UNL     1      -8.174   6.532  70.427  1.00  0.00    -0.125 C  
BRANCH  27  28
HETATM   28  O   UNL     1      -9.115   5.574  70.890  1.00  0.00    -0.140 OA 
BRANCH  28  29
HETATM   29  C   UNL     1      -8.918   4.308  70.383  1.00  0.00    -0.090 A  
HETATM   30  C   UNL     1      -8.074   3.504  71.139  1.00  0.00    -0.069 A  
HETATM   31  C   UNL     1      -7.758   2.209  70.717  1.00  0.00    -0.039 A  
HETATM   32  C   UNL     1      -8.307   1.702  69.540  1.00  0.00    -0.069 A  
HETATM   33  C   UNL     1      -9.181   2.482  68.796  1.00  0.00    -0.227 A  
HETATM   34  C   UNL     1      -9.491   3.779  69.217  1.00  0.00    -0.252 A  
ENDBRANCH  28  29
ENDBRANCH  27  28
ENDBRANCH  26  27
ENDBRANCH  25  26
ENDBRANCH  18  25
ENDBRANCH  16  17
ENDBRANCH   6  16
TORSDOF 7
ENDMDL
MODEL      138
REMARK 921   NORMALIZED FREE ENERGY PREDICTED BY IDOCK:   -4.18 KCAL/MOL
REMARK 922        TOTAL FREE ENERGY PREDICTED BY IDOCK:   -7.53 KCAL/MOL
REMARK 923 INTER-LIGAND FREE ENERGY PREDICTED BY IDOCK:   -6.56 KCAL/MOL
REMARK 924 INTRA-LIGAND FREE ENERGY PREDICTED BY IDOCK:   -0.98 KCAL/MOL
REMARK 927      BINDING AFFINITY PREDICTED BY RF-SCORE:    0.00 PKD
ROOT
HETATM    1  O   UNL     1     -10.508  14.007  68.962  1.00  0.00    -0.314 OA 
HETATM    2  C   UNL     1     -10.301  12.983  67.978  1.00  0.00    -0.234 C  
HETATM    3  H   UNL     1     -10.033  14.782  68.685  1.00  0.00     0.000 HD 
HETATM    4  C   UNL     1      -8.797  12.684  67.984  1.00  0.00    -0.195 A  
HETATM    5  C   UNL     1     -10.780  13.578  66.655  1.00  0.00    -0.282 A  
HETATM    6  C   UNL     1     -11.088  11.699  68.438  1.00  0.00    -0.234 C  
HETATM    7  C   UNL     1      -6.568  11.646  67.658  1.00  0.00    -0.082 A  
HETATM    8  C   UNL     1      -7.784  13.350  68.657  1.00  0.00    -0.088 A  
HETATM    9  C   UNL     1     -10.025  14.164  65.647  1.00  0.00    -0.331 A  
HETATM   10  O   UNL     1     -12.225  11.357  68.135  1.00  0.00    -0.602 OA 
HETATM   11  C   UNL     1      -6.508  12.747  68.479  1.00  0.00    -0.082 A  
HETATM   12  C   UNL     1     -10.812  14.684  64.581  1.00  0.00    -0.332 A  
HETATM   13  S   UNL     1     -12.459  13.762  66.306  1.00  0.00    -0.325 SA 
HETATM   14  C   UNL     1     -12.157  14.510  64.805  1.00  0.00    -0.445 A  
HETATM   15  S   UNL     1      -8.145  11.370  67.065  1.00  0.00    -0.162 SA 
ENDROOT
BRANCH   6  16
HETATM   16  O   UNL     1     -10.357  10.963  69.338  1.00  0.00    -0.212 OA 
BRANCH  16  17
HETATM   17  C   UNL     1     -10.888   9.695  69.758  1.00  0.00    -0.250 C  
HETATM   18  N   UNL     1      -9.711   7.444  69.373  1.00  0.00    -0.158 N  
HETATM   19  C   UNL     1     -10.647   8.547  68.744  1.00  0.00    -0.133 C  
HETATM   20  C   UNL     1     -10.398   6.918  70.643  1.00  0.00    -0.200 C  
HETATM   21  C   UNL     1      -8.392   8.131  69.752  1.00  0.00    -0.124 C  
HETATM   22  C   UNL     1     -10.736   8.051  71.598  1.00  0.00    -0.284 C  
HETATM   23  C   UNL     1      -8.668   9.190  70.821  1.00  0.00    -0.285 C  
HETATM   24  C   UNL     1     -10.177   9.365  71.077  1.00  0.00    -0.369 C  
BRANCH  18  25
HETATM   25  C   UNL     1      -9.498   6.356  68.279  1.00  0.00    -0.121 C  
BRANCH  25  26
HETATM   26  C   UNL     1      -9.829   4.899  68.643  1.00  0.00    -0.221 C  
BRANCH  26  27
HETATM   27  C   UNL     1      -8.745   4.196  69.448  1.00  0.00    -0.084 C  
BRANCH  27  28
HETATM   28  O   UNL     1      -9.044   4.153  70.836  1.00  0.00    -0.103 OA 
BRANCH  28  29
HETATM   29  C   UNL     1      -7.952   4.366  71.648  1.00  0.00    -0.091 A  
HETATM   30  C   UNL     1      -7.859   3.502  72.734  1.00  0.00    -0.062 A  
HETATM   31  C   UNL     1      -6.819   3.633  73.660  1.00  0.00    -0.045 A  
HETATM   32  C   UNL     1      -5.850   4.620  73.490  1.00  0.00    -0.017 A  
HETATM   33  C   UNL     1      -5.912   5.465  72.391  1.00  0.00    -0.027 A  
HETATM   34  C   UNL     1      -6.955   5.336  71.469  1.00  0.00    -0.065 A  
ENDBRANCH  28  29
ENDBRANCH  27  28
ENDBRANCH  26  27
ENDBRANCH  25  26
ENDBRANCH  18  25
ENDBRANCH  16  17
ENDBRANCH   6  16
TORSDOF 7
ENDMDL
MODEL      139
REMARK 921   NORMALIZED FREE ENERGY PREDICTED BY IDOCK:   -4.12 KCAL/MOL
REMARK 922        TOTAL FREE ENERGY PREDICTED BY IDOCK:   -7.46 KCAL/MOL
REMARK 923 INTER-LIGAND FREE ENERGY PREDICTED BY IDOCK:   -6.53 KCAL/MOL
REMARK 924 INTRA-LIGAND FREE ENERGY PREDICTED BY IDOCK:   -0.93 KCAL/MOL
REMARK 927      BINDING AFFINITY PREDICTED BY RF-SCORE:    0.00 PKD
ROOT
HETATM    1  O   UNL     1      -6.963  12.936  66.711  1.00  0.00    -0.366 OA 
HETATM    2  C   UNL     1      -7.386  13.299  68.034  1.00  0.00    -0.127 C  
HETATM    3  H   UNL     1      -6.014  12.901  66.704  1.00  0.00     0.000 HD 
HETATM    4  C   UNL     1      -6.825  14.703  68.291  1.00  0.00    -0.116 A  
HETATM    5  C   UNL     1      -6.787  12.245  68.962  1.00  0.00    -0.094 A  
HETATM    6  C   UNL     1      -8.959  13.358  68.045  1.00  0.00    -0.190 C  
HETATM    7  C   UNL     1      -6.371  16.961  69.212  1.00  0.00    -0.223 A  
HETATM    8  C   UNL     1      -5.949  15.442  67.510  1.00  0.00    -0.073 A  
HETATM    9  C   UNL     1      -5.628  12.322  69.725  1.00  0.00    -0.101 A  
HETATM   10  O   UNL     1      -9.749  12.472  68.347  1.00  0.00    -0.221 OA 
HETATM   11  C   UNL     1      -5.699  16.741  68.033  1.00  0.00    -0.124 A  
HETATM   12  C   UNL     1      -5.328  11.116  70.419  1.00  0.00    -0.104 A  
HETATM   13  S   UNL     1      -7.434  10.648  69.048  1.00  0.00    -0.128 SA 
HETATM   14  C   UNL     1      -6.246  10.129  70.154  1.00  0.00    -0.090 A  
HETATM   15  S   UNL     1      -7.260  15.591  69.711  1.00  0.00    -0.037 SA 
ENDROOT
BRANCH   6  16
HETATM   16  O   UNL     1      -9.415  14.568  67.581  1.00  0.00    -0.203 OA 
BRANCH  16  17
HETATM   17  C   UNL     1      -9.819  14.651  66.204  1.00  0.00    -0.312 C  
HETATM   18  N   UNL     1     -11.339  12.933  65.046  1.00  0.00    -0.298 N  
HETATM   19  C   UNL     1      -9.863  13.281  65.479  1.00  0.00    -0.136 C  
HETATM   20  C   UNL     1     -11.832  14.058  64.121  1.00  0.00    -0.365 C  
HETATM   21  C   UNL     1     -12.192  12.910  66.321  1.00  0.00    -0.270 C  
HETATM   22  C   UNL     1     -11.693  15.419  64.785  1.00  0.00    -0.232 C  
HETATM   23  C   UNL     1     -12.195  14.305  66.949  1.00  0.00    -0.366 C  
HETATM   24  C   UNL     1     -11.228  15.260  66.223  1.00  0.00    -0.223 C  
BRANCH  18  25
HETATM   25  C   UNL     1     -11.291  11.535  64.362  1.00  0.00    -0.209 C  
BRANCH  25  26
HETATM   26  C   UNL     1      -9.947  11.066  63.782  1.00  0.00    -0.404 C  
BRANCH  26  27
HETATM   27  C   UNL     1      -9.315   9.904  64.535  1.00  0.00    -0.275 C  
BRANCH  27  28
HETATM   28  O   UNL     1      -9.991   9.616  65.751  1.00  0.00    -0.293 OA 
BRANCH  28  29
HETATM   29  C   UNL     1      -9.450   8.561  66.453  1.00  0.00    -0.232 A  
HETATM   30  C   UNL     1      -8.131   8.264  66.131  1.00  0.00    -0.111 A  
HETATM   31  C   UNL     1      -7.473   7.192  66.742  1.00  0.00    -0.089 A  
HETATM   32  C   UNL     1      -8.129   6.422  67.700  1.00  0.00    -0.114 A  
HETATM   33  C   UNL     1      -9.435   6.731  68.058  1.00  0.00    -0.119 A  
HETATM   34  C   UNL     1     -10.092   7.800  67.442  1.00  0.00    -0.288 A  
ENDBRANCH  28  29
ENDBRANCH  27  28
ENDBRANCH  26  27
ENDBRANCH  25  26
ENDBRANCH  18  25
ENDBRANCH  16  17
ENDBRANCH   6  16
TORSDOF 7
ENDMDL
MODEL      140
REMARK 921   NORMALIZED FREE ENERGY PREDICTED BY IDOCK:   -4.11 KCAL/MOL
REMARK 922        TOTAL FREE ENERGY PREDICTED BY IDOCK:   -7.44 KCAL/MOL
REMARK 923 INTER-LIGAND FREE ENERGY PREDICTED BY IDOCK:   -6.33 KCAL/MOL
REMARK 924 INTRA-LIGAND FREE ENERGY PREDICTED BY IDOCK:   -1.10 KCAL/MOL
REMARK 927      BINDING AFFINITY PREDICTED BY RF-SCORE:    0.00 PKD
ROOT
HETATM    1  O   UNL     1      -9.025   5.343  68.297  1.00  0.00    -0.108 OA 
HETATM    2  C   UNL     1      -8.048   5.263  67.248  1.00  0.00    -0.101 C  
HETATM    3  H   UNL     1      -9.359   4.468  68.456  1.00  0.00     0.000 HD 
HETATM    4  C   UNL     1      -8.799   4.775  66.003  1.00  0.00    -0.123 A  
HETATM    5  C   UNL     1      -7.000   4.265  67.735  1.00  0.00    -0.059 A  
HETATM    6  C   UNL     1      -7.494   6.713  66.985  1.00  0.00    -0.087 C  
HETATM    7  C   UNL     1      -9.454   4.210  63.678  1.00  0.00    -0.142 A  
HETATM    8  C   UNL     1     -10.109   4.331  65.901  1.00  0.00    -0.223 A  
HETATM    9  C   UNL     1      -6.882   2.916  67.426  1.00  0.00    -0.045 A  
HETATM   10  O   UNL     1      -6.505   7.247  67.471  1.00  0.00    -0.051 OA 
HETATM   11  C   UNL     1     -10.487   4.018  64.565  1.00  0.00    -0.215 A  
HETATM   12  C   UNL     1      -5.824   2.267  68.123  1.00  0.00    -0.023 A  
HETATM   13  S   UNL     1      -5.853   4.685  68.953  1.00  0.00    -0.022 SA 
HETATM   14  C   UNL     1      -5.168   3.125  68.973  1.00  0.00    -0.012 A  
HETATM   15  S   UNL     1      -8.022   4.716  64.459  1.00  0.00    -0.098 SA 
ENDROOT
BRANCH   6  16
HETATM   16  O   UNL     1      -8.321   7.417  66.144  1.00  0.00    -0.124 OA 
BRANCH  16  17
HETATM   17  C   UNL     1      -8.089   8.828  65.999  1.00  0.00    -0.112 C  
HETATM   18  N   UNL     1      -9.913  10.530  65.386  1.00  0.00    -0.270 N  
HETATM   19  C   UNL     1      -8.878   9.478  64.832  1.00  0.00    -0.203 C  
HETATM   20  C   UNL     1      -9.127  11.591  66.173  1.00  0.00    -0.209 C  
HETATM   21  C   UNL     1     -10.856   9.782  66.338  1.00  0.00     0.188 C  
HETATM   22  C   UNL     1      -8.267  10.953  67.252  1.00  0.00    -0.123 C  
HETATM   23  C   UNL     1     -10.048   9.240  67.519  1.00  0.00    -0.273 C  
HETATM   24  C   UNL     1      -8.535   9.459  67.326  1.00  0.00    -0.125 C  
BRANCH  18  25
HETATM   25  C   UNL     1     -10.677  11.102  64.155  1.00  0.00    -0.345 C  
BRANCH  25  26
HETATM   26  C   UNL     1     -10.761  12.631  64.010  1.00  0.00    -0.457 C  
BRANCH  26  27
HETATM   27  C   UNL     1     -12.095  13.225  64.440  1.00  0.00    -0.415 C  
BRANCH  27  28
HETATM   28  O   UNL     1     -12.476  12.810  65.744  1.00  0.00    -0.579 OA 
BRANCH  28  29
HETATM   29  C   UNL     1     -11.910  13.556  66.755  1.00  0.00    -0.406 A  
HETATM   30  C   UNL     1     -11.930  12.949  68.006  1.00  0.00    -0.323 A  
HETATM   31  C   UNL     1     -11.423  13.613  69.127  1.00  0.00    -0.346 A  
HETATM   32  C   UNL     1     -10.869  14.885  68.996  1.00  0.00    -0.248 A  
HETATM   33  C   UNL     1     -10.809  15.486  67.746  1.00  0.00    -0.309 A  
HETATM   34  C   UNL     1     -11.322  14.823  66.628  1.00  0.00    -0.347 A  
ENDBRANCH  28  29
ENDBRANCH  27  28
ENDBRANCH  26  27
ENDBRANCH  25  26
ENDBRANCH  18  25
ENDBRANCH  16  17
ENDBRANCH   6  16
TORSDOF 7
ENDMDL
MODEL      141
REMARK 921   NORMALIZED FREE ENERGY PREDICTED BY IDOCK:   -4.10 KCAL/MOL
REMARK 922        TOTAL FREE ENERGY PREDICTED BY IDOCK:   -7.42 KCAL/MOL
REMARK 923 INTER-LIGAND FREE ENERGY PREDICTED BY IDOCK:   -5.98 KCAL/MOL
REMARK 924 INTRA-LIGAND FREE ENERGY PREDICTED BY IDOCK:   -1.44 KCAL/MOL
REMARK 927      BINDING AFFINITY PREDICTED BY RF-SCORE:    0.00 PKD
ROOT
HETATM    1  O   UNL     1      -6.550   5.797  65.642  1.00  0.00    -0.041 OA 
HETATM    2  C   UNL     1      -7.292   6.846  66.285  1.00  0.00    -0.076 C  
HETATM    3  H   UNL     1      -6.906   5.678  64.769  1.00  0.00     0.000 HD 
HETATM    4  C   UNL     1      -8.736   6.343  66.392  1.00  0.00    -0.138 A  
HETATM    5  C   UNL     1      -7.156   8.065  65.375  1.00  0.00    -0.060 A  
HETATM    6  C   UNL     1      -6.702   7.043  67.732  1.00  0.00    -0.071 C  
HETATM    7  C   UNL     1     -11.119   6.040  67.010  1.00  0.00    -0.170 A  
HETATM    8  C   UNL     1      -9.296   5.196  65.848  1.00  0.00    -0.167 A  
HETATM    9  C   UNL     1      -8.051   8.537  64.424  1.00  0.00    -0.163 A  
HETATM   10  O   UNL     1      -5.834   7.828  68.096  1.00  0.00    -0.037 OA 
HETATM   11  C   UNL     1     -10.660   5.017  66.213  1.00  0.00    -0.332 A  
HETATM   12  C   UNL     1      -7.565   9.663  63.700  1.00  0.00    -0.124 A  
HETATM   13  S   UNL     1      -5.689   8.968  65.292  1.00  0.00    -0.051 SA 
HETATM   14  C   UNL     1      -6.295  10.014  64.092  1.00  0.00    -0.132 A  
HETATM   15  S   UNL     1      -9.928   7.234  67.275  1.00  0.00    -0.215 SA 
ENDROOT
BRANCH   6  16
HETATM   16  O   UNL     1      -7.239   6.140  68.615  1.00  0.00    -0.079 OA 
BRANCH  16  17
HETATM   17  C   UNL     1      -6.795   6.192  69.982  1.00  0.00    -0.057 C  
HETATM   18  N   UNL     1      -8.029   5.073  71.938  1.00  0.00    -0.108 N  
HETATM   19  C   UNL     1      -7.947   6.345  71.010  1.00  0.00    -0.115 C  
HETATM   20  C   UNL     1      -6.674   4.925  72.650  1.00  0.00    -0.061 C  
HETATM   21  C   UNL     1      -8.261   3.860  71.026  1.00  0.00    -0.067 C  
HETATM   22  C   UNL     1      -5.528   4.882  71.653  1.00  0.00    -0.004 C  
HETATM   23  C   UNL     1      -7.058   3.695  70.095  1.00  0.00    -0.041 C  
HETATM   24  C   UNL     1      -6.065   4.866  70.231  1.00  0.00    -0.021 C  
BRANCH  18  25
HETATM   25  C   UNL     1      -9.225   5.298  72.909  1.00  0.00    -0.131 C  
BRANCH  25  26
HETATM   26  C   UNL     1     -10.630   4.911  72.417  1.00  0.00    -0.263 C  
BRANCH  26  27
HETATM   27  C   UNL     1     -11.564   6.094  72.205  1.00  0.00    -0.317 C  
BRANCH  27  28
HETATM   28  O   UNL     1     -11.037   7.302  72.737  1.00  0.00    -0.283 OA 
BRANCH  28  29
HETATM   29  C   UNL     1     -11.596   8.439  72.197  1.00  0.00    -0.374 A  
HETATM   30  C   UNL     1     -10.814   9.071  71.236  1.00  0.00    -0.385 A  
HETATM   31  C   UNL     1     -11.245  10.258  70.636  1.00  0.00    -0.406 A  
HETATM   32  C   UNL     1     -12.478  10.809  70.979  1.00  0.00    -0.522 A  
HETATM   33  C   UNL     1     -13.284  10.168  71.910  1.00  0.00    -0.557 A  
HETATM   34  C   UNL     1     -12.849   8.985  72.513  1.00  0.00    -0.408 A  
ENDBRANCH  28  29
ENDBRANCH  27  28
ENDBRANCH  26  27
ENDBRANCH  25  26
ENDBRANCH  18  25
ENDBRANCH  16  17
ENDBRANCH   6  16
TORSDOF 7
ENDMDL
MODEL      142
REMARK 921   NORMALIZED FREE ENERGY PREDICTED BY IDOCK:   -4.09 KCAL/MOL
REMARK 922        TOTAL FREE ENERGY PREDICTED BY IDOCK:   -7.42 KCAL/MOL
REMARK 923 INTER-LIGAND FREE ENERGY PREDICTED BY IDOCK:   -5.77 KCAL/MOL
REMARK 924 INTRA-LIGAND FREE ENERGY PREDICTED BY IDOCK:   -1.65 KCAL/MOL
REMARK 927      BINDING AFFINITY PREDICTED BY RF-SCORE:    0.00 PKD
ROOT
HETATM    1  O   UNL     1     -11.559   6.706  67.053  1.00  0.00    -0.727 OA 
HETATM    2  C   UNL     1     -10.249   6.698  67.641  1.00  0.00    -0.177 C  
HETATM    3  H   UNL     1     -11.545   7.301  66.311  1.00  0.00     0.000 HD 
HETATM    4  C   UNL     1      -9.998   8.125  68.141  1.00  0.00    -0.186 A  
HETATM    5  C   UNL     1      -9.296   6.288  66.521  1.00  0.00    -0.151 A  
HETATM    6  C   UNL     1     -10.273   5.713  68.870  1.00  0.00    -0.211 C  
HETATM    7  C   UNL     1      -9.094  10.125  69.297  1.00  0.00    -0.198 A  
HETATM    8  C   UNL     1     -10.769   9.261  67.943  1.00  0.00    -0.248 A  
HETATM    9  C   UNL     1      -8.510   7.100  65.714  1.00  0.00    -0.151 A  
HETATM   10  O   UNL     1      -9.977   4.525  68.894  1.00  0.00    -0.149 OA 
HETATM   11  C   UNL     1     -10.256  10.405  68.617  1.00  0.00    -0.196 A  
HETATM   12  C   UNL     1      -7.795   6.381  64.714  1.00  0.00    -0.111 A  
HETATM   13  S   UNL     1      -9.206   4.656  65.967  1.00  0.00    -0.155 SA 
HETATM   14  C   UNL     1      -8.068   5.036  64.757  1.00  0.00    -0.113 A  
HETATM   15  S   UNL     1      -8.598   8.505  69.085  1.00  0.00    -0.134 SA 
ENDROOT
BRANCH   6  16
HETATM   16  O   UNL     1     -10.760   6.333  69.994  1.00  0.00    -0.231 OA 
BRANCH  16  17
HETATM   17  C   UNL     1     -10.267   5.892  71.271  1.00  0.00    -0.210 C  
HETATM   18  N   UNL     1      -8.982   7.394  72.913  1.00  0.00    -0.133 N  
HETATM   19  C   UNL     1      -8.876   6.469  71.639  1.00  0.00    -0.135 C  
HETATM   20  C   UNL     1      -9.545   6.542  74.063  1.00  0.00    -0.219 C  
HETATM   21  C   UNL     1      -9.974   8.516  72.577  1.00  0.00    -0.252 C  
HETATM   22  C   UNL     1     -10.858   5.885  73.672  1.00  0.00    -0.197 C  
HETATM   23  C   UNL     1     -11.352   7.906  72.312  1.00  0.00    -0.393 C  
HETATM   24  C   UNL     1     -11.302   6.366  72.300  1.00  0.00    -0.330 C  
BRANCH  18  25
HETATM   25  C   UNL     1      -7.555   7.952  73.186  1.00  0.00    -0.129 C  
BRANCH  25  26
HETATM   26  C   UNL     1      -6.366   7.242  72.517  1.00  0.00    -0.051 C  
BRANCH  26  27
HETATM   27  C   UNL     1      -5.372   8.184  71.852  1.00  0.00    -0.035 C  
BRANCH  27  28
HETATM   28  O   UNL     1      -5.762   9.546  71.959  1.00  0.00    -0.171 OA 
BRANCH  28  29
HETATM   29  C   UNL     1      -5.708  10.236  70.768  1.00  0.00    -0.094 A  
HETATM   30  C   UNL     1      -5.308   9.477  69.674  1.00  0.00    -0.034 A  
HETATM   31  C   UNL     1      -5.172  10.065  68.412  1.00  0.00    -0.035 A  
HETATM   32  C   UNL     1      -5.460  11.416  68.234  1.00  0.00    -0.042 A  
HETATM   33  C   UNL     1      -5.896  12.176  69.311  1.00  0.00    -0.079 A  
HETATM   34  C   UNL     1      -6.026  11.589  70.573  1.00  0.00    -0.093 A  
ENDBRANCH  28  29
ENDBRANCH  27  28
ENDBRANCH  26  27
ENDBRANCH  25  26
ENDBRANCH  18  25
ENDBRANCH  16  17
ENDBRANCH   6  16
TORSDOF 7
ENDMDL
MODEL      143
REMARK 921   NORMALIZED FREE ENERGY PREDICTED BY IDOCK:   -4.03 KCAL/MOL
REMARK 922        TOTAL FREE ENERGY PREDICTED BY IDOCK:   -7.33 KCAL/MOL
REMARK 923 INTER-LIGAND FREE ENERGY PREDICTED BY IDOCK:   -6.49 KCAL/MOL
REMARK 924 INTRA-LIGAND FREE ENERGY PREDICTED BY IDOCK:   -0.85 KCAL/MOL
REMARK 927      BINDING AFFINITY PREDICTED BY RF-SCORE:    0.00 PKD
ROOT
HETATM    1  O   UNL     1     -12.559  13.905  67.562  1.00  0.00    -0.393 OA 
HETATM    2  C   UNL     1     -11.418  14.357  68.306  1.00  0.00    -0.305 C  
HETATM    3  H   UNL     1     -13.152  14.640  67.456  1.00  0.00     0.000 HD 
HETATM    4  C   UNL     1     -11.946  14.782  69.681  1.00  0.00    -0.316 A  
HETATM    5  C   UNL     1     -10.840  15.524  67.508  1.00  0.00    -0.306 A  
HETATM    6  C   UNL     1     -10.436  13.138  68.481  1.00  0.00    -0.251 C  
HETATM    7  C   UNL     1     -12.143  15.434  72.066  1.00  0.00    -0.399 A  
HETATM    8  C   UNL     1     -13.262  14.886  70.109  1.00  0.00     0.133 A  
HETATM    9  C   UNL     1     -11.030  16.886  67.709  1.00  0.00    -0.212 A  
HETATM   10  O   UNL     1      -9.487  12.821  67.773  1.00  0.00    -0.191 OA 
HETATM   11  C   UNL     1     -13.373  15.248  71.480  1.00  0.00    -0.559 A  
HETATM   12  C   UNL     1     -10.397  17.695  66.723  1.00  0.00    -0.331 A  
HETATM   13  S   UNL     1      -9.956  15.268  66.049  1.00  0.00    -0.345 SA 
HETATM   14  C   UNL     1      -9.758  16.938  65.771  1.00  0.00    -0.092 A  
HETATM   15  S   UNL     1     -10.863  15.222  70.956  1.00  0.00     0.019 SA 
ENDROOT
BRANCH   6  16
HETATM   16  O   UNL     1     -10.803  12.353  69.546  1.00  0.00    -0.026 OA 
BRANCH  16  17
HETATM   17  C   UNL     1     -11.330  11.045  69.265  1.00  0.00    -0.282 C  
HETATM   18  N   UNL     1     -10.132   9.292  67.818  1.00  0.00    -0.191 N  
HETATM   19  C   UNL     1     -11.068  10.561  67.815  1.00  0.00    -0.317 C  
HETATM   20  C   UNL     1     -10.829   8.198  68.644  1.00  0.00     0.083 C  
HETATM   21  C   UNL     1      -8.822   9.696  68.509  1.00  0.00    -0.124 C  
HETATM   22  C   UNL     1     -11.185   8.699  70.034  1.00  0.00    -0.098 C  
HETATM   23  C   UNL     1      -9.117  10.076  69.962  1.00  0.00    -0.133 C  
HETATM   24  C   UNL     1     -10.631  10.097  70.250  1.00  0.00    -0.324 C  
BRANCH  18  25
HETATM   25  C   UNL     1      -9.898   8.900  66.330  1.00  0.00    -0.285 C  
BRANCH  25  26
HETATM   26  C   UNL     1      -8.445   8.788  65.837  1.00  0.00    -0.154 C  
BRANCH  26  27
HETATM   27  C   UNL     1      -7.914   7.362  65.780  1.00  0.00    -0.118 C  
BRANCH  27  28
HETATM   28  O   UNL     1      -7.663   6.827  67.072  1.00  0.00    -0.097 OA 
BRANCH  28  29
HETATM   29  C   UNL     1      -8.212   5.580  67.275  1.00  0.00    -0.101 A  
HETATM   30  C   UNL     1      -8.472   4.863  66.112  1.00  0.00    -0.112 A  
HETATM   31  C   UNL     1      -9.065   3.598  66.174  1.00  0.00    -0.155 A  
HETATM   32  C   UNL     1      -9.382   3.033  67.407  1.00  0.00    -0.216 A  
HETATM   33  C   UNL     1      -9.094   3.723  68.577  1.00  0.00    -0.196 A  
HETATM   34  C   UNL     1      -8.506   4.989  68.513  1.00  0.00    -0.091 A  
ENDBRANCH  28  29
ENDBRANCH  27  28
ENDBRANCH  26  27
ENDBRANCH  25  26
ENDBRANCH  18  25
ENDBRANCH  16  17
ENDBRANCH   6  16
TORSDOF 7
ENDMDL
MODEL      144
REMARK 921   NORMALIZED FREE ENERGY PREDICTED BY IDOCK:   -4.03 KCAL/MOL
REMARK 922        TOTAL FREE ENERGY PREDICTED BY IDOCK:   -7.32 KCAL/MOL
REMARK 923 INTER-LIGAND FREE ENERGY PREDICTED BY IDOCK:   -7.05 KCAL/MOL
REMARK 924 INTRA-LIGAND FREE ENERGY PREDICTED BY IDOCK:   -0.27 KCAL/MOL
REMARK 927      BINDING AFFINITY PREDICTED BY RF-SCORE:    0.00 PKD
ROOT
HETATM    1  O   UNL     1     -12.118  14.406  68.645  1.00  0.00    -0.484 OA 
HETATM    2  C   UNL     1     -11.153  13.838  67.746  1.00  0.00    -0.268 C  
HETATM    3  H   UNL     1     -12.007  15.350  68.637  1.00  0.00     0.000 HD 
HETATM    4  C   UNL     1      -9.776  14.191  68.320  1.00  0.00    -0.227 A  
HETATM    5  C   UNL     1     -11.415  14.493  66.392  1.00  0.00    -0.360 A  
HETATM    6  C   UNL     1     -11.336  12.274  67.760  1.00  0.00    -0.301 C  
HETATM    7  C   UNL     1      -7.347  14.277  68.818  1.00  0.00    -0.131 A  
HETATM    8  C   UNL     1      -9.470  15.023  69.386  1.00  0.00    -0.132 A  
HETATM    9  C   UNL     1     -10.756  15.568  65.810  1.00  0.00    -0.362 A  
HETATM   10  O   UNL     1     -12.015  11.583  67.009  1.00  0.00    -0.556 OA 
HETATM   11  C   UNL     1      -8.077  15.062  69.679  1.00  0.00    -0.049 A  
HETATM   12  C   UNL     1     -11.316  15.966  64.563  1.00  0.00    -0.316 A  
HETATM   13  S   UNL     1     -12.775  14.052  65.426  1.00  0.00    -0.377 SA 
HETATM   14  C   UNL     1     -12.410  15.206  64.227  1.00  0.00    -0.178 A  
HETATM   15  S   UNL     1      -8.329  13.535  67.634  1.00  0.00    -0.193 SA 
ENDROOT
BRANCH   6  16
HETATM   16  O   UNL     1     -10.668  11.704  68.816  1.00  0.00    -0.205 OA 
BRANCH  16  17
HETATM   17  C   UNL     1     -11.022  10.362  69.190  1.00  0.00    -0.241 C  
HETATM   18  N   UNL     1      -9.780   8.266  68.373  1.00  0.00    -0.155 N  
HETATM   19  C   UNL     1     -10.891   9.334  68.036  1.00  0.00    -0.106 C  
HETATM   20  C   UNL     1     -10.183   7.571  69.684  1.00  0.00    -0.205 C  
HETATM   21  C   UNL     1      -8.466   9.030  68.584  1.00  0.00    -0.128 C  
HETATM   22  C   UNL     1     -10.419   8.580  70.795  1.00  0.00    -0.239 C  
HETATM   23  C   UNL     1      -8.615   9.962  69.788  1.00  0.00    -0.219 C  
HETATM   24  C   UNL     1     -10.060   9.979  70.322  1.00  0.00    -0.228 C  
BRANCH  18  25
HETATM   25  C   UNL     1      -9.694   7.302  67.153  1.00  0.00    -0.168 C  
BRANCH  25  26
HETATM   26  C   UNL     1     -10.740   6.180  67.051  1.00  0.00    -0.423 C  
BRANCH  26  27
HETATM   27  C   UNL     1     -10.148   4.795  66.824  1.00  0.00    -0.229 C  
BRANCH  27  28
HETATM   28  O   UNL     1      -9.725   4.602  65.482  1.00  0.00    -0.170 OA 
BRANCH  28  29
HETATM   29  C   UNL     1      -8.368   4.747  65.298  1.00  0.00    -0.127 A  
HETATM   30  C   UNL     1      -8.002   5.822  64.496  1.00  0.00    -0.126 A  
HETATM   31  C   UNL     1      -6.657   6.061  64.197  1.00  0.00    -0.037 A  
HETATM   32  C   UNL     1      -5.665   5.233  64.721  1.00  0.00    -0.017 A  
HETATM   33  C   UNL     1      -6.015   4.179  65.553  1.00  0.00    -0.023 A  
HETATM   34  C   UNL     1      -7.361   3.938  65.846  1.00  0.00    -0.073 A  
ENDBRANCH  28  29
ENDBRANCH  27  28
ENDBRANCH  26  27
ENDBRANCH  25  26
ENDBRANCH  18  25
ENDBRANCH  16  17
ENDBRANCH   6  16
TORSDOF 7
ENDMDL
MODEL      145
REMARK 921   NORMALIZED FREE ENERGY PREDICTED BY IDOCK:   -4.02 KCAL/MOL
REMARK 922        TOTAL FREE ENERGY PREDICTED BY IDOCK:   -7.31 KCAL/MOL
REMARK 923 INTER-LIGAND FREE ENERGY PREDICTED BY IDOCK:   -6.21 KCAL/MOL
REMARK 924 INTRA-LIGAND FREE ENERGY PREDICTED BY IDOCK:   -1.11 KCAL/MOL
REMARK 927      BINDING AFFINITY PREDICTED BY RF-SCORE:    0.00 PKD
ROOT
HETATM    1  O   UNL     1     -10.641  15.841  67.569  1.00  0.00    -0.296 OA 
HETATM    2  C   UNL     1     -10.503  14.707  68.438  1.00  0.00    -0.243 C  
HETATM    3  H   UNL     1     -11.559  15.925  67.337  1.00  0.00     0.000 HD 
HETATM    4  C   UNL     1     -10.929  13.485  67.616  1.00  0.00    -0.263 A  
HETATM    5  C   UNL     1     -11.431  14.977  69.620  1.00  0.00    -0.294 A  
HETATM    6  C   UNL     1      -8.981  14.570  68.821  1.00  0.00    -0.157 C  
HETATM    7  C   UNL     1     -11.305  11.177  66.788  1.00  0.00    -0.042 A  
HETATM    8  C   UNL     1     -11.497  13.448  66.351  1.00  0.00    -0.359 A  
HETATM    9  C   UNL     1     -12.718  14.501  69.835  1.00  0.00    -0.118 A  
HETATM   10  O   UNL     1      -8.402  15.026  69.800  1.00  0.00    -0.112 OA 
HETATM   11  C   UNL     1     -11.700  12.124  65.872  1.00  0.00    -0.393 A  
HETATM   12  C   UNL     1     -13.322  15.020  71.015  1.00  0.00    -0.477 A  
HETATM   13  S   UNL     1     -11.026  16.130  70.838  1.00  0.00     0.078 SA 
HETATM   14  C   UNL     1     -12.497  15.904  71.668  1.00  0.00    -0.446 A  
HETATM   15  S   UNL     1     -10.737  11.882  68.236  1.00  0.00    -0.235 SA 
ENDROOT
BRANCH   6  16
HETATM   16  O   UNL     1      -8.283  13.895  67.851  1.00  0.00    -0.138 OA 
BRANCH  16  17
HETATM   17  C   UNL     1      -7.033  13.289  68.222  1.00  0.00    -0.107 C  
HETATM   18  N   UNL     1      -6.771  10.821  68.884  1.00  0.00    -0.059 N  
HETATM   19  C   UNL     1      -7.150  12.268  69.383  1.00  0.00     0.133 C  
HETATM   20  C   UNL     1      -5.333  10.874  68.345  1.00  0.00    -0.043 C  
HETATM   21  C   UNL     1      -7.733  10.469  67.741  1.00  0.00    -0.093 C  
HETATM   22  C   UNL     1      -5.182  11.947  67.279  1.00  0.00    -0.109 C  
HETATM   23  C   UNL     1      -7.515  11.445  66.584  1.00  0.00    -0.110 C  
HETATM   24  C   UNL     1      -6.532  12.570  66.962  1.00  0.00     0.070 C  
BRANCH  18  25
HETATM   25  C   UNL     1      -6.949   9.863  70.099  1.00  0.00    -0.138 C  
BRANCH  25  26
HETATM   26  C   UNL     1      -6.722   8.360  69.868  1.00  0.00    -0.042 C  
BRANCH  26  27
HETATM   27  C   UNL     1      -7.920   7.488  70.214  1.00  0.00    -0.103 C  
BRANCH  27  28
HETATM   28  O   UNL     1      -8.405   7.731  71.527  1.00  0.00    -0.103 OA 
BRANCH  28  29
HETATM   29  C   UNL     1      -9.778   7.805  71.610  1.00  0.00    -0.163 A  
HETATM   30  C   UNL     1     -10.427   6.575  71.615  1.00  0.00    -0.241 A  
HETATM   31  C   UNL     1     -11.823   6.508  71.656  1.00  0.00    -0.384 A  
HETATM   32  C   UNL     1     -12.579   7.677  71.716  1.00  0.00    -0.359 A  
HETATM   33  C   UNL     1     -11.942   8.909  71.750  1.00  0.00    -0.429 A  
HETATM   34  C   UNL     1     -10.546   8.975  71.703  1.00  0.00    -0.434 A  
ENDBRANCH  28  29
ENDBRANCH  27  28
ENDBRANCH  26  27
ENDBRANCH  25  26
ENDBRANCH  18  25
ENDBRANCH  16  17
ENDBRANCH   6  16
TORSDOF 7
ENDMDL
MODEL      146
REMARK 921   NORMALIZED FREE ENERGY PREDICTED BY IDOCK:   -4.02 KCAL/MOL
REMARK 922        TOTAL FREE ENERGY PREDICTED BY IDOCK:   -7.31 KCAL/MOL
REMARK 923 INTER-LIGAND FREE ENERGY PREDICTED BY IDOCK:   -6.28 KCAL/MOL
REMARK 924 INTRA-LIGAND FREE ENERGY PREDICTED BY IDOCK:   -1.03 KCAL/MOL
REMARK 927      BINDING AFFINITY PREDICTED BY RF-SCORE:    0.00 PKD
ROOT
HETATM    1  O   UNL     1     -10.843  17.607  67.439  1.00  0.00    -0.301 OA 
HETATM    2  C   UNL     1      -9.936  16.496  67.372  1.00  0.00    -0.267 C  
HETATM    3  H   UNL     1     -10.842  17.936  68.330  1.00  0.00     0.000 HD 
HETATM    4  C   UNL     1     -10.507  15.424  68.307  1.00  0.00    -0.241 A  
HETATM    5  C   UNL     1      -8.588  17.036  67.844  1.00  0.00    -0.207 A  
HETATM    6  C   UNL     1      -9.939  15.952  65.894  1.00  0.00    -0.349 C  
HETATM    7  C   UNL     1     -10.995  13.293  69.479  1.00  0.00     0.068 A  
HETATM    8  C   UNL     1     -11.578  15.519  69.183  1.00  0.00    -0.374 A  
HETATM    9  C   UNL     1      -8.011  16.938  69.104  1.00  0.00    -0.102 A  
HETATM   10  O   UNL     1      -9.186  16.251  64.975  1.00  0.00     0.372 OA 
HETATM   11  C   UNL     1     -11.865  14.293  69.846  1.00  0.00    -0.382 A  
HETATM   12  C   UNL     1      -6.769  17.626  69.212  1.00  0.00    -0.221 A  
HETATM   13  S   UNL     1      -7.624  18.056  66.841  1.00  0.00    -0.223 SA 
HETATM   14  C   UNL     1      -6.432  18.261  68.041  1.00  0.00    -0.193 A  
HETATM   15  S   UNL     1      -9.810  13.842  68.380  1.00  0.00    -0.209 SA 
ENDROOT
BRANCH   6  16
HETATM   16  O   UNL     1     -10.988  15.092  65.683  1.00  0.00    -0.331 OA 
BRANCH  16  17
HETATM   17  C   UNL     1     -10.879  14.152  64.601  1.00  0.00    -0.386 C  
HETATM   18  N   UNL     1     -10.709  11.608  64.918  1.00  0.00    -0.287 N  
HETATM   19  C   UNL     1      -9.916  12.970  64.891  1.00  0.00    -0.130 C  
HETATM   20  C   UNL     1     -11.391  11.436  63.551  1.00  0.00    -0.162 C  
HETATM   21  C   UNL     1     -11.780  11.727  66.011  1.00  0.00    -0.022 C  
HETATM   22  C   UNL     1     -12.254  12.640  63.209  1.00  0.00    -0.512 C  
HETATM   23  C   UNL     1     -12.759  12.842  65.634  1.00  0.00    -0.100 C  
HETATM   24  C   UNL     1     -12.297  13.608  64.380  1.00  0.00    -0.387 C  
BRANCH  18  25
HETATM   25  C   UNL     1      -9.676  10.490  65.248  1.00  0.00    -0.270 C  
BRANCH  25  26
HETATM   26  C   UNL     1     -10.035   9.486  66.355  1.00  0.00    -0.339 C  
BRANCH  26  27
HETATM   27  C   UNL     1      -9.555   8.066  66.089  1.00  0.00    -0.089 C  
BRANCH  27  28
HETATM   28  O   UNL     1      -9.547   7.268  67.264  1.00  0.00    -0.140 OA 
BRANCH  28  29
HETATM   29  C   UNL     1      -8.601   6.266  67.251  1.00  0.00    -0.107 A  
HETATM   30  C   UNL     1      -8.215   5.815  68.508  1.00  0.00    -0.108 A  
HETATM   31  C   UNL     1      -7.234   4.828  68.639  1.00  0.00    -0.057 A  
HETATM   32  C   UNL     1      -6.647   4.268  67.506  1.00  0.00    -0.046 A  
HETATM   33  C   UNL     1      -7.050   4.684  66.244  1.00  0.00    -0.075 A  
HETATM   34  C   UNL     1      -8.028   5.675  66.115  1.00  0.00    -0.106 A  
ENDBRANCH  28  29
ENDBRANCH  27  28
ENDBRANCH  26  27
ENDBRANCH  25  26
ENDBRANCH  18  25
ENDBRANCH  16  17
ENDBRANCH   6  16
TORSDOF 7
ENDMDL
MODEL      147
REMARK 921   NORMALIZED FREE ENERGY PREDICTED BY IDOCK:   -4.00 KCAL/MOL
REMARK 922        TOTAL FREE ENERGY PREDICTED BY IDOCK:   -7.28 KCAL/MOL
REMARK 923 INTER-LIGAND FREE ENERGY PREDICTED BY IDOCK:   -5.41 KCAL/MOL
REMARK 924 INTRA-LIGAND FREE ENERGY PREDICTED BY IDOCK:   -1.87 KCAL/MOL
REMARK 927      BINDING AFFINITY PREDICTED BY RF-SCORE:    0.00 PKD
ROOT
HETATM    1  O   UNL     1      -9.357   8.951  72.369  1.00  0.00    -0.342 OA 
HETATM    2  C   UNL     1      -9.204   8.579  70.991  1.00  0.00    -0.182 C  
HETATM    3  H   UNL     1     -10.233   8.705  72.645  1.00  0.00     0.000 HD 
HETATM    4  C   UNL     1     -10.232   9.406  70.209  1.00  0.00    -0.247 A  
HETATM    5  C   UNL     1      -9.485   7.079  70.934  1.00  0.00    -0.160 A  
HETATM    6  C   UNL     1      -7.753   8.988  70.534  1.00  0.00    -0.119 C  
HETATM    7  C   UNL     1     -11.512  10.550  68.419  1.00  0.00    -0.214 A  
HETATM    8  C   UNL     1     -11.235  10.228  70.700  1.00  0.00    -0.406 A  
HETATM    9  C   UNL     1     -10.663   6.434  70.580  1.00  0.00    -0.311 A  
HETATM   10  O   UNL     1      -6.738   8.303  70.533  1.00  0.00    -0.036 OA 
HETATM   11  C   UNL     1     -11.961  10.893  69.673  1.00  0.00    -0.414 A  
HETATM   12  C   UNL     1     -10.593   5.018  70.713  1.00  0.00    -0.148 A  
HETATM   13  S   UNL     1      -8.341   5.926  71.513  1.00  0.00    -0.128 SA 
HETATM   14  C   UNL     1      -9.372   4.608  71.192  1.00  0.00    -0.146 A  
HETATM   15  S   UNL     1     -10.256   9.395  68.479  1.00  0.00    -0.205 SA 
ENDROOT
BRANCH   6  16
HETATM   16  O   UNL     1      -7.701  10.311  70.169  1.00  0.00    -0.147 OA 
BRANCH  16  17
HETATM   17  C   UNL     1      -6.602  10.738  69.348  1.00  0.00    -0.085 C  
HETATM   18  N   UNL     1      -6.782  11.187  66.824  1.00  0.00    -0.125 N  
HETATM   19  C   UNL     1      -6.582  10.089  67.939  1.00  0.00    -0.063 C  
HETATM   20  C   UNL     1      -5.647  12.213  66.970  1.00  0.00    -0.079 C  
HETATM   21  C   UNL     1      -8.128  11.871  67.097  1.00  0.00    -0.172 C  
HETATM   22  C   UNL     1      -5.591  12.777  68.381  1.00  0.00    -0.059 C  
HETATM   23  C   UNL     1      -8.067  12.574  68.455  1.00  0.00    -0.136 C  
HETATM   24  C   UNL     1      -6.758  12.258  69.204  1.00  0.00    -0.095 C  
BRANCH  18  25
HETATM   25  C   UNL     1      -6.783  10.445  65.455  1.00  0.00    -0.121 C  
BRANCH  25  26
HETATM   26  C   UNL     1      -6.707   8.909  65.471  1.00  0.00    -0.072 C  
BRANCH  26  27
HETATM   27  C   UNL     1      -7.877   8.220  64.784  1.00  0.00    -0.129 C  
BRANCH  27  28
HETATM   28  O   UNL     1      -7.642   6.834  64.577  1.00  0.00    -0.088 OA 
BRANCH  28  29
HETATM   29  C   UNL     1      -8.366   6.015  65.416  1.00  0.00    -0.150 A  
HETATM   30  C   UNL     1      -7.996   4.675  65.381  1.00  0.00    -0.099 A  
HETATM   31  C   UNL     1      -8.676   3.729  66.155  1.00  0.00    -0.117 A  
HETATM   32  C   UNL     1      -9.721   4.125  66.987  1.00  0.00    -0.230 A  
HETATM   33  C   UNL     1     -10.076   5.465  67.058  1.00  0.00    -0.234 A  
HETATM   34  C   UNL     1      -9.399   6.409  66.280  1.00  0.00    -0.149 A  
ENDBRANCH  28  29
ENDBRANCH  27  28
ENDBRANCH  26  27
ENDBRANCH  25  26
ENDBRANCH  18  25
ENDBRANCH  16  17
ENDBRANCH   6  16
TORSDOF 7
ENDMDL
MODEL      148
REMARK 921   NORMALIZED FREE ENERGY PREDICTED BY IDOCK:   -3.98 KCAL/MOL
REMARK 922        TOTAL FREE ENERGY PREDICTED BY IDOCK:   -7.26 KCAL/MOL
REMARK 923 INTER-LIGAND FREE ENERGY PREDICTED BY IDOCK:   -6.19 KCAL/MOL
REMARK 924 INTRA-LIGAND FREE ENERGY PREDICTED BY IDOCK:   -1.08 KCAL/MOL
REMARK 927      BINDING AFFINITY PREDICTED BY RF-SCORE:    0.00 PKD
ROOT
HETATM    1  O   UNL     1      -5.481  11.560  66.604  1.00  0.00    -0.121 OA 
HETATM    2  C   UNL     1      -6.631  11.514  67.462  1.00  0.00    -0.087 C  
HETATM    3  H   UNL     1      -4.784  12.010  67.069  1.00  0.00     0.000 HD 
HETATM    4  C   UNL     1      -7.042  12.972  67.703  1.00  0.00    -0.156 A  
HETATM    5  C   UNL     1      -6.167  10.812  68.737  1.00  0.00    -0.040 A  
HETATM    6  C   UNL     1      -7.785  10.770  66.691  1.00  0.00    -0.141 C  
HETATM    7  C   UNL     1      -8.280  15.035  68.305  1.00  0.00    -0.146 A  
HETATM    8  C   UNL     1      -6.378  14.131  67.332  1.00  0.00     0.142 A  
HETATM    9  C   UNL     1      -5.769  11.380  69.940  1.00  0.00    -0.100 A  
HETATM   10  O   UNL     1      -8.072   9.579  66.722  1.00  0.00    -0.108 OA 
HETATM   11  C   UNL     1      -7.095  15.314  67.667  1.00  0.00    -0.206 A  
HETATM   12  C   UNL     1      -5.325  10.424  70.897  1.00  0.00    -0.082 A  
HETATM   13  S   UNL     1      -5.899   9.109  68.780  1.00  0.00    -0.041 SA 
HETATM   14  C   UNL     1      -5.366   9.144  70.398  1.00  0.00    -0.030 A  
HETATM   15  S   UNL     1      -8.504  13.359  68.543  1.00  0.00    -0.016 SA 
ENDROOT
BRANCH   6  16
HETATM   16  O   UNL     1      -8.458  11.627  65.856  1.00  0.00    -0.031 OA 
BRANCH  16  17
HETATM   17  C   UNL     1      -9.848  11.363  65.602  1.00  0.00    -0.235 C  
HETATM   18  N   UNL     1     -11.648  13.187  65.416  1.00  0.00    -0.322 N  
HETATM   19  C   UNL     1     -10.816  12.277  66.398  1.00  0.00    -0.264 C  
HETATM   20  C   UNL     1     -12.425  12.262  64.466  1.00  0.00    -0.377 C  
HETATM   21  C   UNL     1     -10.643  14.020  64.609  1.00  0.00    -0.395 C  
HETATM   22  C   UNL     1     -11.495  11.290  63.759  1.00  0.00    -0.055 C  
HETATM   23  C   UNL     1      -9.773  13.082  63.770  1.00  0.00     1.017 C  
HETATM   24  C   UNL     1     -10.047  11.602  64.099  1.00  0.00    -0.338 C  
BRANCH  18  25
HETATM   25  C   UNL     1     -12.561  14.088  66.299  1.00  0.00    -0.310 C  
BRANCH  25  26
HETATM   26  C   UNL     1     -11.879  15.082  67.255  1.00  0.00    -0.163 C  
BRANCH  26  27
HETATM   27  C   UNL     1     -11.998  14.712  68.727  1.00  0.00    -0.266 C  
BRANCH  27  28
HETATM   28  O   UNL     1     -11.688  15.802  69.584  1.00  0.00    -0.334 OA 
BRANCH  28  29
HETATM   29  C   UNL     1     -12.211  15.678  70.853  1.00  0.00    -0.419 A  
HETATM   30  C   UNL     1     -13.341  14.873  70.940  1.00  0.00    -0.393 A  
HETATM   31  C   UNL     1     -13.994  14.694  72.164  1.00  0.00    -0.591 A  
HETATM   32  C   UNL     1     -13.504  15.306  73.316  1.00  0.00    -0.409 A  
HETATM   33  C   UNL     1     -12.355  16.082  73.248  1.00  0.00    -0.644 A  
HETATM   34  C   UNL     1     -11.707  16.265  72.024  1.00  0.00    -0.528 A  
ENDBRANCH  28  29
ENDBRANCH  27  28
ENDBRANCH  26  27
ENDBRANCH  25  26
ENDBRANCH  18  25
ENDBRANCH  16  17
ENDBRANCH   6  16
TORSDOF 7
ENDMDL
MODEL      149
REMARK 921   NORMALIZED FREE ENERGY PREDICTED BY IDOCK:   -3.98 KCAL/MOL
REMARK 922        TOTAL FREE ENERGY PREDICTED BY IDOCK:   -7.26 KCAL/MOL
REMARK 923 INTER-LIGAND FREE ENERGY PREDICTED BY IDOCK:   -6.91 KCAL/MOL
REMARK 924 INTRA-LIGAND FREE ENERGY PREDICTED BY IDOCK:   -0.35 KCAL/MOL
REMARK 927      BINDING AFFINITY PREDICTED BY RF-SCORE:    0.00 PKD
ROOT
HETATM    1  O   UNL     1      -9.851   6.515  66.338  1.00  0.00    -0.317 OA 
HETATM    2  C   UNL     1      -8.706   7.273  66.756  1.00  0.00    -0.130 C  
HETATM    3  H   UNL     1      -9.541   5.735  65.894  1.00  0.00     0.000 HD 
HETATM    4  C   UNL     1      -7.972   7.680  65.473  1.00  0.00    -0.120 A  
HETATM    5  C   UNL     1      -7.885   6.331  67.633  1.00  0.00    -0.106 A  
HETATM    6  C   UNL     1      -9.220   8.567  67.492  1.00  0.00    -0.133 C  
HETATM    7  C   UNL     1      -6.480   8.771  63.819  1.00  0.00    -0.087 A  
HETATM    8  C   UNL     1      -8.225   7.283  64.168  1.00  0.00     0.044 A  
HETATM    9  C   UNL     1      -6.775   5.571  67.284  1.00  0.00    -0.059 A  
HETATM   10  O   UNL     1      -9.407   8.733  68.692  1.00  0.00    -0.141 OA 
HETATM   11  C   UNL     1      -7.377   7.919  63.219  1.00  0.00    -0.107 A  
HETATM   12  C   UNL     1      -6.303   4.742  68.341  1.00  0.00    -0.036 A  
HETATM   13  S   UNL     1      -8.378   5.936  69.239  1.00  0.00    -0.114 SA 
HETATM   14  C   UNL     1      -7.075   4.862  69.470  1.00  0.00    -0.055 A  
HETATM   15  S   UNL     1      -6.627   8.767  65.521  1.00  0.00    -0.068 SA 
ENDROOT
BRANCH   6  16
HETATM   16  O   UNL     1      -9.532   9.559  66.595  1.00  0.00    -0.152 OA 
BRANCH  16  17
HETATM   17  C   UNL     1      -9.194  10.912  66.945  1.00  0.00    -0.161 C  
HETATM   18  N   UNL     1     -10.443  12.979  66.068  1.00  0.00    -0.274 N  
HETATM   19  C   UNL     1      -9.319  11.914  65.768  1.00  0.00    -0.155 C  
HETATM   20  C   UNL     1     -10.064  13.705  67.368  1.00  0.00    -0.241 C  
HETATM   21  C   UNL     1     -11.753  12.208  66.277  1.00  0.00    -0.320 C  
HETATM   22  C   UNL     1      -9.834  12.721  68.504  1.00  0.00    -0.147 C  
HETATM   23  C   UNL     1     -11.613  11.303  67.503  1.00  0.00    -0.257 C  
HETATM   24  C   UNL     1     -10.175  11.310  68.056  1.00  0.00    -0.201 C  
BRANCH  18  25
HETATM   25  C   UNL     1     -10.520  13.916  64.826  1.00  0.00    -0.429 C  
BRANCH  25  26
HETATM   26  C   UNL     1     -11.456  15.133  64.903  1.00  0.00    -0.374 C  
BRANCH  26  27
HETATM   27  C   UNL     1     -10.735  16.474  64.909  1.00  0.00    -0.146 C  
BRANCH  27  28
HETATM   28  O   UNL     1      -9.802  16.582  65.975  1.00  0.00    -0.309 OA 
BRANCH  28  29
HETATM   29  C   UNL     1      -9.769  17.828  66.562  1.00  0.00    -0.320 A  
HETATM   30  C   UNL     1      -9.180  17.861  67.821  1.00  0.00    -0.258 A  
HETATM   31  C   UNL     1      -9.116  19.056  68.545  1.00  0.00    -0.401 A  
HETATM   32  C   UNL     1      -9.623  20.234  68.000  1.00  0.00    -0.381 A  
HETATM   33  C   UNL     1     -10.180  20.221  66.728  1.00  0.00    -0.497 A  
HETATM   34  C   UNL     1     -10.248  19.025  66.008  1.00  0.00    -0.462 A  
ENDBRANCH  28  29
ENDBRANCH  27  28
ENDBRANCH  26  27
ENDBRANCH  25  26
ENDBRANCH  18  25
ENDBRANCH  16  17
ENDBRANCH   6  16
TORSDOF 7
ENDMDL
MODEL      150
REMARK 921   NORMALIZED FREE ENERGY PREDICTED BY IDOCK:   -3.97 KCAL/MOL
REMARK 922        TOTAL FREE ENERGY PREDICTED BY IDOCK:   -7.25 KCAL/MOL
REMARK 923 INTER-LIGAND FREE ENERGY PREDICTED BY IDOCK:   -6.18 KCAL/MOL
REMARK 924 INTRA-LIGAND FREE ENERGY PREDICTED BY IDOCK:   -1.07 KCAL/MOL
REMARK 927      BINDING AFFINITY PREDICTED BY RF-SCORE:    0.00 PKD
ROOT
HETATM    1  O   UNL     1      -9.685   5.281  72.474  1.00  0.00    -0.148 OA 
HETATM    2  C   UNL     1      -8.441   5.517  71.798  1.00  0.00    -0.127 C  
HETATM    3  H   UNL     1      -9.774   4.344  72.609  1.00  0.00     0.000 HD 
HETATM    4  C   UNL     1      -8.554   4.817  70.438  1.00  0.00    -0.098 A  
HETATM    5  C   UNL     1      -7.364   4.903  72.690  1.00  0.00    -0.089 A  
HETATM    6  C   UNL     1      -8.294   7.069  71.573  1.00  0.00    -0.112 C  
HETATM    7  C   UNL     1      -8.201   4.077  68.098  1.00  0.00    -0.091 A  
HETATM    8  C   UNL     1      -9.559   3.980  69.977  1.00  0.00    -0.274 A  
HETATM    9  C   UNL     1      -6.750   3.662  72.576  1.00  0.00    -0.029 A  
HETATM   10  O   UNL     1      -7.730   7.888  72.288  1.00  0.00    -0.089 OA 
HETATM   11  C   UNL     1      -9.361   3.565  68.630  1.00  0.00    -0.230 A  
HETATM   12  C   UNL     1      -5.839   3.383  73.634  1.00  0.00    -0.003 A  
HETATM   13  S   UNL     1      -6.867   5.665  74.157  1.00  0.00    -0.082 SA 
HETATM   14  C   UNL     1      -5.792   4.404  74.552  1.00  0.00    -0.021 A  
HETATM   15  S   UNL     1      -7.330   5.011  69.231  1.00  0.00    -0.057 SA 
ENDROOT
BRANCH   6  16
HETATM   16  O   UNL     1      -8.968   7.474  70.447  1.00  0.00    -0.150 OA 
BRANCH  16  17
HETATM   17  C   UNL     1      -8.313   8.408  69.573  1.00  0.00    -0.120 C  
HETATM   18  N   UNL     1      -9.442   9.522  67.552  1.00  0.00    -0.130 N  
HETATM   19  C   UNL     1      -8.690   8.240  68.078  1.00  0.00    -0.135 C  
HETATM   20  C   UNL     1      -8.508  10.726  67.749  1.00  0.00    -0.120 C  
HETATM   21  C   UNL     1     -10.695   9.701  68.420  1.00  0.00    -0.209 C  
HETATM   22  C   UNL     1      -8.046  10.837  69.193  1.00  0.00    -0.133 C  
HETATM   23  C   UNL     1     -10.270   9.956  69.868  1.00  0.00    -0.298 C  
HETATM   24  C   UNL     1      -8.749   9.799  70.053  1.00  0.00    -0.237 C  
BRANCH  18  25
HETATM   25  C   UNL     1      -9.810   9.251  66.063  1.00  0.00    -0.293 C  
BRANCH  25  26
HETATM   26  C   UNL     1      -9.530  10.365  65.041  1.00  0.00    -0.308 C  
BRANCH  26  27
HETATM   27  C   UNL     1     -10.676  11.351  64.864  1.00  0.00    -0.286 C  
BRANCH  27  28
HETATM   28  O   UNL     1     -10.247  12.702  64.958  1.00  0.00    -0.286 OA 
BRANCH  28  29
HETATM   29  C   UNL     1     -10.790  13.386  66.023  1.00  0.00    -0.274 A  
HETATM   30  C   UNL     1     -10.546  14.755  66.019  1.00  0.00    -0.318 A  
HETATM   31  C   UNL     1     -11.008  15.563  67.063  1.00  0.00    -0.283 A  
HETATM   32  C   UNL     1     -11.740  15.005  68.109  1.00  0.00    -0.335 A  
HETATM   33  C   UNL     1     -12.022  13.646  68.106  1.00  0.00    -0.390 A  
HETATM   34  C   UNL     1     -11.555  12.839  67.064  1.00  0.00    -0.422 A  
ENDBRANCH  28  29
ENDBRANCH  27  28
ENDBRANCH  26  27
ENDBRANCH  25  26
ENDBRANCH  18  25
ENDBRANCH  16  17
ENDBRANCH   6  16
TORSDOF 7
ENDMDL
MODEL      151
REMARK 921   NORMALIZED FREE ENERGY PREDICTED BY IDOCK:   -3.96 KCAL/MOL
REMARK 922        TOTAL FREE ENERGY PREDICTED BY IDOCK:   -7.23 KCAL/MOL
REMARK 923 INTER-LIGAND FREE ENERGY PREDICTED BY IDOCK:   -6.43 KCAL/MOL
REMARK 924 INTRA-LIGAND FREE ENERGY PREDICTED BY IDOCK:   -0.81 KCAL/MOL
REMARK 927      BINDING AFFINITY PREDICTED BY RF-SCORE:    0.00 PKD
ROOT
HETATM    1  O   UNL     1      -7.702   5.344  65.983  1.00  0.00    -0.089 OA 
HETATM    2  C   UNL     1      -8.622   4.416  66.578  1.00  0.00    -0.112 C  
HETATM    3  H   UNL     1      -6.958   4.852  65.656  1.00  0.00     0.000 HD 
HETATM    4  C   UNL     1      -7.879   3.778  67.758  1.00  0.00    -0.081 A  
HETATM    5  C   UNL     1      -8.962   3.411  65.480  1.00  0.00    -0.140 A  
HETATM    6  C   UNL     1      -9.855   5.232  67.120  1.00  0.00    -0.164 C  
HETATM    7  C   UNL     1      -7.307   2.557  69.840  1.00  0.00    -0.043 A  
HETATM    8  C   UNL     1      -6.546   3.910  68.115  1.00  0.00    -0.042 A  
HETATM    9  C   UNL     1      -8.423   2.149  65.266  1.00  0.00    -0.099 A  
HETATM   10  O   UNL     1     -10.914   5.472  66.553  1.00  0.00    -0.250 OA 
HETATM   11  C   UNL     1      -6.221   3.219  69.316  1.00  0.00    -0.028 A  
HETATM   12  C   UNL     1      -8.923   1.512  64.095  1.00  0.00    -0.096 A  
HETATM   13  S   UNL     1     -10.013   3.823  64.175  1.00  0.00    -0.203 SA 
HETATM   14  C   UNL     1      -9.815   2.309  63.420  1.00  0.00    -0.119 A  
HETATM   15  S   UNL     1      -8.697   2.727  68.863  1.00  0.00    -0.097 SA 
ENDROOT
BRANCH   6  16
HETATM   16  O   UNL     1      -9.598   5.754  68.364  1.00  0.00    -0.119 OA 
BRANCH  16  17
HETATM   17  C   UNL     1      -8.831   6.968  68.437  1.00  0.00    -0.123 C  
HETATM   18  N   UNL     1      -9.803   9.244  69.126  1.00  0.00    -0.162 N  
HETATM   19  C   UNL     1      -9.595   8.224  67.942  1.00  0.00    -0.152 C  
HETATM   20  C   UNL     1      -8.414   9.625  69.665  1.00  0.00    -0.174 C  
HETATM   21  C   UNL     1     -10.593   8.514  70.221  1.00  0.00    -0.226 C  
HETATM   22  C   UNL     1      -7.615   8.391  70.053  1.00  0.00    -0.068 C  
HETATM   23  C   UNL     1      -9.760   7.340  70.742  1.00  0.00    -0.171 C  
HETATM   24  C   UNL     1      -8.473   7.143  69.919  1.00  0.00    -0.140 C  
BRANCH  18  25
HETATM   25  C   UNL     1     -10.602  10.449  68.549  1.00  0.00    -0.209 C  
BRANCH  25  26
HETATM   26  C   UNL     1     -11.414  11.309  69.532  1.00  0.00    -0.376 C  
BRANCH  26  27
HETATM   27  C   UNL     1     -11.654  12.736  69.062  1.00  0.00    -0.316 C  
BRANCH  27  28
HETATM   28  O   UNL     1     -10.636  13.194  68.183  1.00  0.00    -0.231 OA 
BRANCH  28  29
HETATM   29  C   UNL     1     -11.102  13.591  66.948  1.00  0.00    -0.296 A  
HETATM   30  C   UNL     1     -10.480  14.720  66.428  1.00  0.00    -0.294 A  
HETATM   31  C   UNL     1     -10.884  15.253  65.200  1.00  0.00    -0.441 A  
HETATM   32  C   UNL     1     -11.903  14.641  64.472  1.00  0.00    -0.442 A  
HETATM   33  C   UNL     1     -12.507  13.492  64.964  1.00  0.00    -0.462 A  
HETATM   34  C   UNL     1     -12.106  12.964  66.194  1.00  0.00    -0.458 A  
ENDBRANCH  28  29
ENDBRANCH  27  28
ENDBRANCH  26  27
ENDBRANCH  25  26
ENDBRANCH  18  25
ENDBRANCH  16  17
ENDBRANCH   6  16
TORSDOF 7
ENDMDL
MODEL      152
REMARK 921   NORMALIZED FREE ENERGY PREDICTED BY IDOCK:   -3.95 KCAL/MOL
REMARK 922        TOTAL FREE ENERGY PREDICTED BY IDOCK:   -7.22 KCAL/MOL
REMARK 923 INTER-LIGAND FREE ENERGY PREDICTED BY IDOCK:   -6.07 KCAL/MOL
REMARK 924 INTRA-LIGAND FREE ENERGY PREDICTED BY IDOCK:   -1.15 KCAL/MOL
REMARK 927      BINDING AFFINITY PREDICTED BY RF-SCORE:    0.00 PKD
ROOT
HETATM    1  O   UNL     1      -9.451   4.012  70.980  1.00  0.00    -0.136 OA 
HETATM    2  C   UNL     1      -8.517   4.620  71.886  1.00  0.00    -0.117 C  
HETATM    3  H   UNL     1      -8.975   3.395  70.437  1.00  0.00     0.000 HD 
HETATM    4  C   UNL     1      -7.512   5.382  71.014  1.00  0.00    -0.088 A  
HETATM    5  C   UNL     1      -7.876   3.465  72.653  1.00  0.00    -0.067 A  
HETATM    6  C   UNL     1      -9.305   5.643  72.786  1.00  0.00    -0.138 C  
HETATM    7  C   UNL     1      -5.737   6.911  70.198  1.00  0.00    -0.023 A  
HETATM    8  C   UNL     1      -7.388   5.381  69.633  1.00  0.00    -0.065 A  
HETATM    9  C   UNL     1      -6.657   2.842  72.419  1.00  0.00    -0.015 A  
HETATM   10  O   UNL     1      -9.808   5.453  73.888  1.00  0.00    -0.153 OA 
HETATM   11  C   UNL     1      -6.378   6.267  69.165  1.00  0.00    -0.041 A  
HETATM   12  C   UNL     1      -6.408   1.743  73.289  1.00  0.00    -0.013 A  
HETATM   13  S   UNL     1      -8.733   2.620  73.890  1.00  0.00    -0.072 SA 
HETATM   14  C   UNL     1      -7.452   1.528  74.156  1.00  0.00    -0.029 A  
HETATM   15  S   UNL     1      -6.317   6.412  71.725  1.00  0.00    -0.043 SA 
ENDROOT
BRANCH   6  16
HETATM   16  O   UNL     1      -9.455   6.851  72.152  1.00  0.00    -0.141 OA 
BRANCH  16  17
HETATM   17  C   UNL     1     -10.718   7.526  72.282  1.00  0.00    -0.250 C  
HETATM   18  N   UNL     1     -11.564   9.322  70.651  1.00  0.00    -0.267 N  
HETATM   19  C   UNL     1     -10.665   9.032  71.914  1.00  0.00    -0.331 C  
HETATM   20  C   UNL     1     -13.000   8.890  70.990  1.00  0.00    -0.005 C  
HETATM   21  C   UNL     1     -11.027   8.455  69.504  1.00  0.00    -0.040 C  
HETATM   22  C   UNL     1     -13.046   7.444  71.455  1.00  0.00    -0.424 C  
HETATM   23  C   UNL     1     -11.186   6.979  69.875  1.00  0.00    -0.286 C  
HETATM   24  C   UNL     1     -11.675   6.803  71.325  1.00  0.00    -0.384 C  
BRANCH  18  25
HETATM   25  C   UNL     1     -11.424  10.841  70.337  1.00  0.00    -0.307 C  
BRANCH  25  26
HETATM   26  C   UNL     1     -12.407  11.458  69.328  1.00  0.00    -0.148 C  
BRANCH  26  27
HETATM   27  C   UNL     1     -11.748  12.323  68.264  1.00  0.00    -0.336 C  
BRANCH  27  28
HETATM   28  O   UNL     1     -11.153  13.492  68.809  1.00  0.00    -0.246 OA 
BRANCH  28  29
HETATM   29  C   UNL     1     -10.901  14.476  67.878  1.00  0.00    -0.256 A  
HETATM   30  C   UNL     1     -10.856  14.032  66.562  1.00  0.00    -0.300 A  
HETATM   31  C   UNL     1     -10.571  14.921  65.521  1.00  0.00    -0.373 A  
HETATM   32  C   UNL     1     -10.350  16.270  65.792  1.00  0.00    -0.393 A  
HETATM   33  C   UNL     1     -10.429  16.732  67.098  1.00  0.00    -0.299 A  
HETATM   34  C   UNL     1     -10.709  15.841  68.138  1.00  0.00    -0.285 A  
ENDBRANCH  28  29
ENDBRANCH  27  28
ENDBRANCH  26  27
ENDBRANCH  25  26
ENDBRANCH  18  25
ENDBRANCH  16  17
ENDBRANCH   6  16
TORSDOF 7
ENDMDL
MODEL      153
REMARK 921   NORMALIZED FREE ENERGY PREDICTED BY IDOCK:   -3.92 KCAL/MOL
REMARK 922        TOTAL FREE ENERGY PREDICTED BY IDOCK:   -7.17 KCAL/MOL
REMARK 923 INTER-LIGAND FREE ENERGY PREDICTED BY IDOCK:   -5.55 KCAL/MOL
REMARK 924 INTRA-LIGAND FREE ENERGY PREDICTED BY IDOCK:   -1.62 KCAL/MOL
REMARK 927      BINDING AFFINITY PREDICTED BY RF-SCORE:    0.00 PKD
ROOT
HETATM    1  O   UNL     1     -10.755  11.211  69.237  1.00  0.00    -0.217 OA 
HETATM    2  C   UNL     1      -9.687  10.722  68.411  1.00  0.00    -0.174 C  
HETATM    3  H   UNL     1     -11.561  10.798  68.951  1.00  0.00     0.000 HD 
HETATM    4  C   UNL     1     -10.010  11.177  66.983  1.00  0.00    -0.192 A  
HETATM    5  C   UNL     1      -9.709   9.203  68.566  1.00  0.00    -0.155 A  
HETATM    6  C   UNL     1      -8.351  11.407  68.885  1.00  0.00    -0.039 C  
HETATM    7  C   UNL     1      -9.879  11.754  64.574  1.00  0.00    -0.202 A  
HETATM    8  C   UNL     1     -11.160  11.789  66.508  1.00  0.00    -0.364 A  
HETATM    9  C   UNL     1     -10.280   8.256  67.725  1.00  0.00    -0.282 A  
HETATM   10  O   UNL     1      -7.530  10.989  69.693  1.00  0.00    -0.089 OA 
HETATM   11  C   UNL     1     -11.080  12.131  65.129  1.00  0.00    -0.369 A  
HETATM   12  C   UNL     1     -10.176   6.925  68.221  1.00  0.00    -0.201 A  
HETATM   13  S   UNL     1      -9.132   8.436  70.000  1.00  0.00    -0.152 SA 
HETATM   14  C   UNL     1      -9.551   6.881  69.443  1.00  0.00    -0.147 A  
HETATM   15  S   UNL     1      -8.875  10.949  65.696  1.00  0.00    -0.176 SA 
ENDROOT
BRANCH   6  16
HETATM   16  O   UNL     1      -8.201  12.649  68.319  1.00  0.00    -0.159 OA 
BRANCH  16  17
HETATM   17  C   UNL     1      -6.883  13.222  68.297  1.00  0.00    -0.105 C  
HETATM   18  N   UNL     1      -6.409  15.728  67.985  1.00  0.00    -0.118 N  
HETATM   19  C   UNL     1      -6.711  14.361  67.259  1.00  0.00     0.227 C  
HETATM   20  C   UNL     1      -5.127  15.544  68.814  1.00  0.00    -0.097 C  
HETATM   21  C   UNL     1      -7.589  16.013  68.925  1.00  0.00    -0.192 C  
HETATM   22  C   UNL     1      -5.248  14.362  69.761  1.00  0.00    -0.092 C  
HETATM   23  C   UNL     1      -7.661  14.913  69.987  1.00  0.00     0.187 C  
HETATM   24  C   UNL     1      -6.651  13.782  69.708  1.00  0.00    -0.034 C  
BRANCH  18  25
HETATM   25  C   UNL     1      -6.286  16.813  66.874  1.00  0.00    -0.194 C  
BRANCH  25  26
HETATM   26  C   UNL     1      -7.248  18.011  66.933  1.00  0.00    -0.225 C  
BRANCH  26  27
HETATM   27  C   UNL     1      -8.229  18.081  65.771  1.00  0.00     0.250 C  
BRANCH  27  28
HETATM   28  O   UNL     1      -9.561  18.320  66.203  1.00  0.00    -0.454 OA 
BRANCH  28  29
HETATM   29  C   UNL     1     -10.110  17.280  66.922  1.00  0.00    -0.304 A  
HETATM   30  C   UNL     1     -10.590  17.632  68.178  1.00  0.00    -0.359 A  
HETATM   31  C   UNL     1     -11.136  16.665  69.027  1.00  0.00    -0.234 A  
HETATM   32  C   UNL     1     -11.227  15.338  68.612  1.00  0.00    -0.303 A  
HETATM   33  C   UNL     1     -10.785  14.981  67.345  1.00  0.00    -0.289 A  
HETATM   34  C   UNL     1     -10.233  15.948  66.500  1.00  0.00    -0.297 A  
ENDBRANCH  28  29
ENDBRANCH  27  28
ENDBRANCH  26  27
ENDBRANCH  25  26
ENDBRANCH  18  25
ENDBRANCH  16  17
ENDBRANCH   6  16
TORSDOF 7
ENDMDL
MODEL      154
REMARK 921   NORMALIZED FREE ENERGY PREDICTED BY IDOCK:   -3.90 KCAL/MOL
REMARK 922        TOTAL FREE ENERGY PREDICTED BY IDOCK:   -7.15 KCAL/MOL
REMARK 923 INTER-LIGAND FREE ENERGY PREDICTED BY IDOCK:   -7.74 KCAL/MOL
REMARK 924 INTRA-LIGAND FREE ENERGY PREDICTED BY IDOCK:    0.59 KCAL/MOL
REMARK 927      BINDING AFFINITY PREDICTED BY RF-SCORE:    0.00 PKD
ROOT
HETATM    1  O   UNL     1      -9.398  14.176  69.093  1.00  0.00    -0.397 OA 
HETATM    2  C   UNL     1     -10.500  15.053  68.816  1.00  0.00    -0.238 C  
HETATM    3  H   UNL     1      -8.896  14.550  69.808  1.00  0.00     0.000 HD 
HETATM    4  C   UNL     1      -9.884  16.381  68.361  1.00  0.00    -0.233 A  
HETATM    5  C   UNL     1     -11.269  15.177  70.129  1.00  0.00    -0.273 A  
HETATM    6  C   UNL     1     -11.331  14.433  67.630  1.00  0.00    -0.329 C  
HETATM    7  C   UNL     1      -9.521  18.641  67.405  1.00  0.00    -0.297 A  
HETATM    8  C   UNL     1      -8.551  16.762  68.360  1.00  0.00    -0.235 A  
HETATM    9  C   UNL     1     -11.201  16.189  71.079  1.00  0.00    -0.297 A  
HETATM   10  O   UNL     1     -12.307  13.695  67.693  1.00  0.00    -0.257 OA 
HETATM   11  C   UNL     1      -8.342  18.054  67.801  1.00  0.00    -0.249 A  
HETATM   12  C   UNL     1     -12.007  15.942  72.226  1.00  0.00    -0.617 A  
HETATM   13  S   UNL     1     -12.263  13.895  70.716  1.00  0.00    -0.358 SA 
HETATM   14  C   UNL     1     -12.656  14.734  72.146  1.00  0.00    -0.334 A  
HETATM   15  S   UNL     1     -10.876  17.662  67.752  1.00  0.00    -0.114 SA 
ENDROOT
BRANCH   6  16
HETATM   16  O   UNL     1     -10.782  14.759  66.414  1.00  0.00    -0.300 OA 
BRANCH  16  17
HETATM   17  C   UNL     1      -9.972  13.770  65.756  1.00  0.00    -0.275 C  
HETATM   18  N   UNL     1     -10.307  11.236  66.009  1.00  0.00    -0.245 N  
HETATM   19  C   UNL     1      -9.659  12.530  66.634  1.00  0.00    -0.239 C  
HETATM   20  C   UNL     1      -9.735  11.063  64.592  1.00  0.00    -0.266 C  
HETATM   21  C   UNL     1     -11.819  11.482  65.923  1.00  0.00     0.467 C  
HETATM   22  C   UNL     1      -9.943  12.316  63.757  1.00  0.00    -0.302 C  
HETATM   23  C   UNL     1     -12.083  12.654  64.975  1.00  0.00    -0.497 C  
HETATM   24  C   UNL     1     -10.775  13.331  64.524  1.00  0.00    -0.428 C  
BRANCH  18  25
HETATM   25  C   UNL     1      -9.972  10.055  66.968  1.00  0.00    -0.205 C  
BRANCH  25  26
HETATM   26  C   UNL     1     -11.026   9.661  68.016  1.00  0.00    -0.197 C  
BRANCH  26  27
HETATM   27  C   UNL     1     -10.752   8.333  68.706  1.00  0.00    -0.042 C  
BRANCH  27  28
HETATM   28  O   UNL     1      -9.363   8.059  68.821  1.00  0.00    -0.147 OA 
BRANCH  28  29
HETATM   29  C   UNL     1      -9.012   6.783  68.437  1.00  0.00    -0.124 A  
HETATM   30  C   UNL     1      -9.848   5.781  68.918  1.00  0.00    -0.191 A  
HETATM   31  C   UNL     1      -9.584   4.438  68.635  1.00  0.00    -0.216 A  
HETATM   32  C   UNL     1      -8.488   4.090  67.848  1.00  0.00    -0.103 A  
HETATM   33  C   UNL     1      -7.667   5.083  67.331  1.00  0.00    -0.092 A  
HETATM   34  C   UNL     1      -7.930   6.425  67.619  1.00  0.00    -0.114 A  
ENDBRANCH  28  29
ENDBRANCH  27  28
ENDBRANCH  26  27
ENDBRANCH  25  26
ENDBRANCH  18  25
ENDBRANCH  16  17
ENDBRANCH   6  16
TORSDOF 7
ENDMDL
MODEL      155
REMARK 921   NORMALIZED FREE ENERGY PREDICTED BY IDOCK:   -3.90 KCAL/MOL
REMARK 922        TOTAL FREE ENERGY PREDICTED BY IDOCK:   -7.14 KCAL/MOL
REMARK 923 INTER-LIGAND FREE ENERGY PREDICTED BY IDOCK:   -6.28 KCAL/MOL
REMARK 924 INTRA-LIGAND FREE ENERGY PREDICTED BY IDOCK:   -0.86 KCAL/MOL
REMARK 927      BINDING AFFINITY PREDICTED BY RF-SCORE:    0.00 PKD
ROOT
HETATM    1  O   UNL     1      -9.340   5.950  65.627  1.00  0.00    -0.344 OA 
HETATM    2  C   UNL     1      -8.016   6.277  66.076  1.00  0.00    -0.114 C  
HETATM    3  H   UNL     1      -9.393   6.144  64.699  1.00  0.00     0.000 HD 
HETATM    4  C   UNL     1      -7.855   7.787  65.865  1.00  0.00    -0.102 A  
HETATM    5  C   UNL     1      -7.070   5.454  65.204  1.00  0.00    -0.065 A  
HETATM    6  C   UNL     1      -7.929   5.955  67.615  1.00  0.00    -0.102 C  
HETATM    7  C   UNL     1      -7.067  10.138  65.941  1.00  0.00    -0.121 A  
HETATM    8  C   UNL     1      -8.714   8.668  65.226  1.00  0.00    -0.200 A  
HETATM    9  C   UNL     1      -6.371   5.853  64.071  1.00  0.00    -0.029 A  
HETATM   10  O   UNL     1      -7.545   4.923  68.153  1.00  0.00    -0.080 OA 
HETATM   11  C   UNL     1      -8.267  10.018  65.280  1.00  0.00    -0.148 A  
HETATM   12  C   UNL     1      -5.637   4.798  63.460  1.00  0.00    -0.016 A  
HETATM   13  S   UNL     1      -6.876   3.756  65.438  1.00  0.00    -0.054 SA 
HETATM   14  C   UNL     1      -5.808   3.605  64.120  1.00  0.00    -0.014 A  
HETATM   15  S   UNL     1      -6.459   8.625  66.450  1.00  0.00    -0.063 SA 
ENDROOT
BRANCH   6  16
HETATM   16  O   UNL     1      -8.426   6.990  68.369  1.00  0.00    -0.123 OA 
BRANCH  16  17
HETATM   17  C   UNL     1      -8.840   6.702  69.715  1.00  0.00    -0.144 C  
HETATM   18  N   UNL     1     -11.086   7.443  70.717  1.00  0.00    -0.259 N  
HETATM   19  C   UNL     1      -9.601   7.867  70.400  1.00  0.00    -0.171 C  
HETATM   20  C   UNL     1     -11.035   6.209  71.632  1.00  0.00    -0.267 C  
HETATM   21  C   UNL     1     -11.745   7.063  69.384  1.00  0.00     0.229 C  
HETATM   22  C   UNL     1     -10.201   5.098  71.015  1.00  0.00    -0.295 C  
HETATM   23  C   UNL     1     -11.019   5.853  68.793  1.00  0.00    -0.311 C  
HETATM   24  C   UNL     1      -9.766   5.482  69.611  1.00  0.00    -0.230 C  
BRANCH  18  25
HETATM   25  C   UNL     1     -11.779   8.677  71.368  1.00  0.00    -0.297 C  
BRANCH  25  26
HETATM   26  C   UNL     1     -11.291  10.075  70.953  1.00  0.00    -0.439 C  
BRANCH  26  27
HETATM   27  C   UNL     1     -12.191  10.775  69.944  1.00  0.00    -0.313 C  
BRANCH  27  28
HETATM   28  O   UNL     1     -11.754  10.586  68.606  1.00  0.00    -0.277 OA 
BRANCH  28  29
HETATM   29  C   UNL     1     -11.743  11.741  67.855  1.00  0.00    -0.276 A  
HETATM   30  C   UNL     1     -11.482  11.552  66.502  1.00  0.00    -0.178 A  
HETATM   31  C   UNL     1     -11.404  12.645  65.633  1.00  0.00    -0.357 A  
HETATM   32  C   UNL     1     -11.611  13.937  66.112  1.00  0.00    -0.371 A  
HETATM   33  C   UNL     1     -11.909  14.135  67.453  1.00  0.00    -0.447 A  
HETATM   34  C   UNL     1     -11.981  13.042  68.322  1.00  0.00    -0.306 A  
ENDBRANCH  28  29
ENDBRANCH  27  28
ENDBRANCH  26  27
ENDBRANCH  25  26
ENDBRANCH  18  25
ENDBRANCH  16  17
ENDBRANCH   6  16
TORSDOF 7
ENDMDL
MODEL      156
REMARK 921   NORMALIZED FREE ENERGY PREDICTED BY IDOCK:   -3.88 KCAL/MOL
REMARK 922        TOTAL FREE ENERGY PREDICTED BY IDOCK:   -7.12 KCAL/MOL
REMARK 923 INTER-LIGAND FREE ENERGY PREDICTED BY IDOCK:   -5.90 KCAL/MOL
REMARK 924 INTRA-LIGAND FREE ENERGY PREDICTED BY IDOCK:   -1.22 KCAL/MOL
REMARK 927      BINDING AFFINITY PREDICTED BY RF-SCORE:    0.00 PKD
ROOT
HETATM    1  O   UNL     1     -12.643  16.223  68.708  1.00  0.00     0.001 OA 
HETATM    2  C   UNL     1     -11.772  15.240  69.288  1.00  0.00    -0.338 C  
HETATM    3  H   UNL     1     -13.494  15.821  68.576  1.00  0.00     0.000 HD 
HETATM    4  C   UNL     1     -11.646  14.117  68.252  1.00  0.00    -0.321 A  
HETATM    5  C   UNL     1     -12.461  14.785  70.573  1.00  0.00    -0.352 A  
HETATM    6  C   UNL     1     -10.361  15.907  69.506  1.00  0.00    -0.277 C  
HETATM    7  C   UNL     1     -10.913  12.128  66.965  1.00  0.00    -0.271 A  
HETATM    8  C   UNL     1     -12.338  13.956  67.062  1.00  0.00    -0.287 A  
HETATM    9  C   UNL     1     -13.243  13.657  70.781  1.00  0.00    -0.029 A  
HETATM   10  O   UNL     1      -9.932  16.461  70.510  1.00  0.00     0.678 OA 
HETATM   11  C   UNL     1     -11.909  12.821  66.318  1.00  0.00    -0.485 A  
HETATM   12  C   UNL     1     -13.793  13.585  72.092  1.00  0.00    -0.628 A  
HETATM   13  S   UNL     1     -12.494  15.784  71.980  1.00  0.00    -0.480 SA 
HETATM   14  C   UNL     1     -13.443  14.672  72.855  1.00  0.00    -0.428 A  
HETATM   15  S   UNL     1     -10.533  12.813  68.482  1.00  0.00    -0.214 SA 
ENDROOT
BRANCH   6  16
HETATM   16  O   UNL     1      -9.612  15.872  68.355  1.00  0.00    -0.202 OA 
BRANCH  16  17
HETATM   17  C   UNL     1      -8.197  16.096  68.469  1.00  0.00    -0.186 C  
HETATM   18  N   UNL     1      -6.458  14.219  68.707  1.00  0.00    -0.084 N  
HETATM   19  C   UNL     1      -7.488  15.141  69.465  1.00  0.00    -0.213 C  
HETATM   20  C   UNL     1      -5.440  15.132  68.006  1.00  0.00    -0.134 C  
HETATM   21  C   UNL     1      -7.247  13.429  67.653  1.00  0.00    -0.161 C  
HETATM   22  C   UNL     1      -6.133  16.143  67.107  1.00  0.00    -0.101 C  
HETATM   23  C   UNL     1      -7.849  14.406  66.641  1.00  0.00     0.620 C  
HETATM   24  C   UNL     1      -7.628  15.872  67.061  1.00  0.00    -0.264 C  
BRANCH  18  25
HETATM   25  C   UNL     1      -5.825  13.277  69.774  1.00  0.00    -0.122 C  
BRANCH  25  26
HETATM   26  C   UNL     1      -5.692  11.786  69.425  1.00  0.00    -0.067 C  
BRANCH  26  27
HETATM   27  C   UNL     1      -6.365  10.851  70.421  1.00  0.00    -0.089 C  
BRANCH  27  28
HETATM   28  O   UNL     1      -6.943   9.716  69.792  1.00  0.00    -0.061 OA 
BRANCH  28  29
HETATM   29  C   UNL     1      -8.217   9.425  70.229  1.00  0.00    -0.175 A  
HETATM   30  C   UNL     1      -8.293   8.985  71.546  1.00  0.00    -0.070 A  
HETATM   31  C   UNL     1      -9.522   8.618  72.103  1.00  0.00    -0.373 A  
HETATM   32  C   UNL     1     -10.689   8.712  71.348  1.00  0.00    -0.338 A  
HETATM   33  C   UNL     1     -10.631   9.184  70.044  1.00  0.00    -0.250 A  
HETATM   34  C   UNL     1      -9.401   9.545  69.487  1.00  0.00    -0.199 A  
ENDBRANCH  28  29
ENDBRANCH  27  28
ENDBRANCH  26  27
ENDBRANCH  25  26
ENDBRANCH  18  25
ENDBRANCH  16  17
ENDBRANCH   6  16
TORSDOF 7
ENDMDL
MODEL      157
REMARK 921   NORMALIZED FREE ENERGY PREDICTED BY IDOCK:   -3.84 KCAL/MOL
REMARK 922        TOTAL FREE ENERGY PREDICTED BY IDOCK:   -7.07 KCAL/MOL
REMARK 923 INTER-LIGAND FREE ENERGY PREDICTED BY IDOCK:   -7.26 KCAL/MOL
REMARK 924 INTRA-LIGAND FREE ENERGY PREDICTED BY IDOCK:    0.19 KCAL/MOL
REMARK 927      BINDING AFFINITY PREDICTED BY RF-SCORE:    0.00 PKD
ROOT
HETATM    1  O   UNL     1     -11.320   9.961  69.361  1.00  0.00    -0.375 OA 
HETATM    2  C   UNL     1     -10.238   9.710  68.451  1.00  0.00    -0.188 C  
HETATM    3  H   UNL     1     -12.128   9.690  68.941  1.00  0.00     0.000 HD 
HETATM    4  C   UNL     1     -10.495  10.598  67.228  1.00  0.00    -0.246 A  
HETATM    5  C   UNL     1     -10.311   8.219  68.125  1.00  0.00    -0.202 A  
HETATM    6  C   UNL     1      -8.900  10.160  69.148  1.00  0.00    -0.175 C  
HETATM    7  C   UNL     1     -10.260  11.888  65.123  1.00  0.00    -0.277 A  
HETATM    8  C   UNL     1     -11.608  11.373  66.939  1.00  0.00    -0.088 A  
HETATM    9  C   UNL     1     -10.880   7.604  67.017  1.00  0.00    -0.219 A  
HETATM   10  O   UNL     1      -8.122   9.479  69.807  1.00  0.00    -0.107 OA 
HETATM   11  C   UNL     1     -11.467  12.122  65.737  1.00  0.00    -0.414 A  
HETATM   12  C   UNL     1     -10.835   6.182  67.076  1.00  0.00    -0.435 A  
HETATM   13  S   UNL     1      -9.811   7.023  69.263  1.00  0.00    -0.161 SA 
HETATM   14  C   UNL     1     -10.256   5.735  68.240  1.00  0.00    -0.187 A  
HETATM   15  S   UNL     1      -9.322  10.735  65.964  1.00  0.00    -0.195 SA 
ENDROOT
BRANCH   6  16
HETATM   16  O   UNL     1      -8.692  11.509  69.001  1.00  0.00    -0.021 OA 
BRANCH  16  17
HETATM   17  C   UNL     1      -7.665  11.935  68.089  1.00  0.00    -0.126 C  
HETATM   18  N   UNL     1      -6.348  14.128  68.330  1.00  0.00    -0.105 N  
HETATM   19  C   UNL     1      -7.675  13.459  67.801  1.00  0.00    -0.161 C  
HETATM   20  C   UNL     1      -5.166  13.444  67.623  1.00  0.00    -0.002 C  
HETATM   21  C   UNL     1      -6.271  13.853  69.837  1.00  0.00    -0.136 C  
HETATM   22  C   UNL     1      -5.208  11.937  67.811  1.00  0.00    -0.062 C  
HETATM   23  C   UNL     1      -6.169  12.343  70.067  1.00  0.00    -0.075 C  
HETATM   24  C   UNL     1      -6.336  11.553  68.755  1.00  0.00    -0.054 C  
BRANCH  18  25
HETATM   25  C   UNL     1      -6.461  15.652  68.030  1.00  0.00    -0.138 C  
BRANCH  25  26
HETATM   26  C   UNL     1      -6.992  16.566  69.147  1.00  0.00    -0.225 C  
BRANCH  26  27
HETATM   27  C   UNL     1      -6.754  18.050  68.904  1.00  0.00    -0.245 C  
BRANCH  27  28
HETATM   28  O   UNL     1      -6.834  18.392  67.528  1.00  0.00    -0.199 OA 
BRANCH  28  29
HETATM   29  C   UNL     1      -8.098  18.753  67.115  1.00  0.00    -0.250 A  
HETATM   30  C   UNL     1      -8.448  20.068  67.398  1.00  0.00    -0.391 A  
HETATM   31  C   UNL     1      -9.718  20.553  67.068  1.00  0.00    -0.548 A  
HETATM   32  C   UNL     1     -10.639  19.725  66.429  1.00  0.00    -0.575 A  
HETATM   33  C   UNL     1     -10.289  18.421  66.109  1.00  0.00    -0.431 A  
HETATM   34  C   UNL     1      -9.021  17.936  66.445  1.00  0.00    -0.247 A  
ENDBRANCH  28  29
ENDBRANCH  27  28
ENDBRANCH  26  27
ENDBRANCH  25  26
ENDBRANCH  18  25
ENDBRANCH  16  17
ENDBRANCH   6  16
TORSDOF 7
ENDMDL
MODEL      158
REMARK 921   NORMALIZED FREE ENERGY PREDICTED BY IDOCK:   -3.81 KCAL/MOL
REMARK 922        TOTAL FREE ENERGY PREDICTED BY IDOCK:   -7.02 KCAL/MOL
REMARK 923 INTER-LIGAND FREE ENERGY PREDICTED BY IDOCK:   -5.98 KCAL/MOL
REMARK 924 INTRA-LIGAND FREE ENERGY PREDICTED BY IDOCK:   -1.04 KCAL/MOL
REMARK 927      BINDING AFFINITY PREDICTED BY RF-SCORE:    0.00 PKD
ROOT
HETATM    1  O   UNL     1      -9.516  12.600  68.437  1.00  0.00    -0.257 OA 
HETATM    2  C   UNL     1     -10.347  11.608  67.814  1.00  0.00    -0.182 C  
HETATM    3  H   UNL     1      -8.959  12.980  67.768  1.00  0.00     0.000 HD 
HETATM    4  C   UNL     1      -9.397  10.532  67.276  1.00  0.00    -0.146 A  
HETATM    5  C   UNL     1     -11.101  12.339  66.705  1.00  0.00    -0.296 A  
HETATM    6  C   UNL     1     -11.270  10.979  68.924  1.00  0.00    -0.265 C  
HETATM    7  C   UNL     1      -8.435   8.433  66.370  1.00  0.00    -0.123 A  
HETATM    8  C   UNL     1      -8.011  10.547  67.227  1.00  0.00    -0.114 A  
HETATM    9  C   UNL     1     -10.806  12.391  65.349  1.00  0.00    -0.320 A  
HETATM   10  O   UNL     1     -12.405  11.312  69.245  1.00  0.00    -0.342 OA 
HETATM   11  C   UNL     1      -7.460   9.338  66.719  1.00  0.00    -0.087 A  
HETATM   12  C   UNL     1     -11.685  13.235  64.612  1.00  0.00    -0.403 A  
HETATM   13  S   UNL     1     -12.408  13.408  67.058  1.00  0.00    -0.038 SA 
HETATM   14  C   UNL     1     -12.619  13.833  65.421  1.00  0.00    -0.497 A  
HETATM   15  S   UNL     1     -10.006   9.057  66.609  1.00  0.00    -0.287 SA 
ENDROOT
BRANCH   6  16
HETATM   16  O   UNL     1     -10.617   9.983  69.608  1.00  0.00    -0.217 OA 
BRANCH  16  17
HETATM   17  C   UNL     1     -11.375   8.823  69.991  1.00  0.00    -0.032 C  
HETATM   18  N   UNL     1     -10.370   6.773  71.169  1.00  0.00    -0.204 N  
HETATM   19  C   UNL     1     -10.621   7.484  69.784  1.00  0.00    -0.241 C  
HETATM   20  C   UNL     1     -11.739   6.535  71.827  1.00  0.00    -0.324 C  
HETATM   21  C   UNL     1      -9.549   7.739  72.033  1.00  0.00    -0.168 C  
HETATM   22  C   UNL     1     -12.530   7.828  71.938  1.00  0.00    -0.343 C  
HETATM   23  C   UNL     1     -10.370   9.005  72.287  1.00  0.00    -0.038 C  
HETATM   24  C   UNL     1     -11.684   9.005  71.483  1.00  0.00    -0.415 C  
BRANCH  18  25
HETATM   25  C   UNL     1      -9.583   5.463  70.868  1.00  0.00    -0.173 C  
BRANCH  25  26
HETATM   26  C   UNL     1      -8.513   5.021  71.879  1.00  0.00    -0.124 C  
BRANCH  26  27
HETATM   27  C   UNL     1      -7.092   5.404  71.490  1.00  0.00    -0.068 C  
BRANCH  27  28
HETATM   28  O   UNL     1      -6.992   5.798  70.129  1.00  0.00    -0.060 OA 
BRANCH  28  29
HETATM   29  C   UNL     1      -6.581   4.789  69.285  1.00  0.00    -0.040 A  
HETATM   30  C   UNL     1      -7.294   4.701  68.094  1.00  0.00    -0.066 A  
HETATM   31  C   UNL     1      -7.005   3.696  67.165  1.00  0.00    -0.058 A  
HETATM   32  C   UNL     1      -5.981   2.785  67.414  1.00  0.00    -0.023 A  
HETATM   33  C   UNL     1      -5.238   2.885  68.582  1.00  0.00    -0.012 A  
HETATM   34  C   UNL     1      -5.531   3.886  69.513  1.00  0.00    -0.016 A  
ENDBRANCH  28  29
ENDBRANCH  27  28
ENDBRANCH  26  27
ENDBRANCH  25  26
ENDBRANCH  18  25
ENDBRANCH  16  17
ENDBRANCH   6  16
TORSDOF 7
ENDMDL
MODEL      159
REMARK 921   NORMALIZED FREE ENERGY PREDICTED BY IDOCK:   -3.76 KCAL/MOL
REMARK 922        TOTAL FREE ENERGY PREDICTED BY IDOCK:   -6.94 KCAL/MOL
REMARK 923 INTER-LIGAND FREE ENERGY PREDICTED BY IDOCK:   -4.99 KCAL/MOL
REMARK 924 INTRA-LIGAND FREE ENERGY PREDICTED BY IDOCK:   -1.95 KCAL/MOL
REMARK 927      BINDING AFFINITY PREDICTED BY RF-SCORE:    0.00 PKD
ROOT
HETATM    1  O   UNL     1      -9.480   8.492  70.774  1.00  0.00    -0.162 OA 
HETATM    2  C   UNL     1      -8.510   8.740  69.745  1.00  0.00    -0.129 C  
HETATM    3  H   UNL     1      -9.661   7.559  70.789  1.00  0.00     0.000 HD 
HETATM    4  C   UNL     1      -9.174   8.332  68.425  1.00  0.00    -0.135 A  
HETATM    5  C   UNL     1      -7.305   7.870  70.095  1.00  0.00    -0.070 A  
HETATM    6  C   UNL     1      -8.212  10.286  69.720  1.00  0.00    -0.094 C  
HETATM    7  C   UNL     1      -9.735   8.031  66.028  1.00  0.00     0.068 A  
HETATM    8  C   UNL     1     -10.390   7.694  68.228  1.00  0.00    -0.238 A  
HETATM    9  C   UNL     1      -6.961   6.624  69.586  1.00  0.00    -0.067 A  
HETATM   10  O   UNL     1      -7.324  10.897  70.304  1.00  0.00    -0.026 OA 
HETATM   11  C   UNL     1     -10.716   7.533  66.853  1.00  0.00    -0.299 A  
HETATM   12  C   UNL     1      -5.804   6.063  70.198  1.00  0.00    -0.017 A  
HETATM   13  S   UNL     1      -6.240   8.284  71.388  1.00  0.00    -0.043 SA 
HETATM   14  C   UNL     1      -5.300   6.878  71.183  1.00  0.00    -0.027 A  
HETATM   15  S   UNL     1      -8.406   8.644  66.907  1.00  0.00    -0.109 SA 
ENDROOT
BRANCH   6  16
HETATM   16  O   UNL     1      -9.150  10.962  68.980  1.00  0.00    -0.163 OA 
BRANCH  16  17
HETATM   17  C   UNL     1     -10.067  11.820  69.679  1.00  0.00     0.839 C  
HETATM   18  N   UNL     1     -11.678  13.453  68.522  1.00  0.00    -0.336 N  
HETATM   19  C   UNL     1     -10.210  13.231  69.052  1.00  0.00     0.090 C  
HETATM   20  C   UNL     1     -12.636  13.283  69.712  1.00  0.00     0.126 C  
HETATM   21  C   UNL     1     -11.955  12.357  67.483  1.00  0.00    -0.183 C  
HETATM   22  C   UNL     1     -12.430  11.943  70.400  1.00  0.00    -0.252 C  
HETATM   23  C   UNL     1     -11.896  10.990  68.168  1.00  0.00    -0.195 C  
HETATM   24  C   UNL     1     -11.424  11.103  69.630  1.00  0.00    -0.383 C  
BRANCH  18  25
HETATM   25  C   UNL     1     -11.718  14.872  67.883  1.00  0.00    -0.321 C  
BRANCH  25  26
HETATM   26  C   UNL     1     -10.441  15.388  67.200  1.00  0.00    -0.290 C  
BRANCH  26  27
HETATM   27  C   UNL     1     -10.622  15.757  65.735  1.00  0.00    -0.355 C  
BRANCH  27  28
HETATM   28  O   UNL     1      -9.898  14.896  64.867  1.00  0.00    -0.204 OA 
BRANCH  28  29
HETATM   29  C   UNL     1     -10.613  13.793  64.451  1.00  0.00    -0.295 A  
HETATM   30  C   UNL     1     -11.984  13.998  64.342  1.00  0.00    -0.480 A  
HETATM   31  C   UNL     1     -12.831  12.950  63.968  1.00  0.00    -0.109 A  
HETATM   32  C   UNL     1     -12.305  11.693  63.677  1.00  0.00    -0.338 A  
HETATM   33  C   UNL     1     -10.935  11.487  63.747  1.00  0.00    -0.485 A  
HETATM   34  C   UNL     1     -10.089  12.533  64.127  1.00  0.00    -0.311 A  
ENDBRANCH  28  29
ENDBRANCH  27  28
ENDBRANCH  26  27
ENDBRANCH  25  26
ENDBRANCH  18  25
ENDBRANCH  16  17
ENDBRANCH   6  16
TORSDOF 7
ENDMDL
MODEL      160
REMARK 921   NORMALIZED FREE ENERGY PREDICTED BY IDOCK:   -3.75 KCAL/MOL
REMARK 922        TOTAL FREE ENERGY PREDICTED BY IDOCK:   -6.94 KCAL/MOL
REMARK 923 INTER-LIGAND FREE ENERGY PREDICTED BY IDOCK:   -6.01 KCAL/MOL
REMARK 924 INTRA-LIGAND FREE ENERGY PREDICTED BY IDOCK:   -0.93 KCAL/MOL
REMARK 927      BINDING AFFINITY PREDICTED BY RF-SCORE:    0.00 PKD
ROOT
HETATM    1  O   UNL     1      -9.379  11.229  69.120  1.00  0.00    -0.396 OA 
HETATM    2  C   UNL     1      -8.864  12.011  68.031  1.00  0.00    -0.179 C  
HETATM    3  H   UNL     1      -9.450  11.794  69.881  1.00  0.00     0.000 HD 
HETATM    4  C   UNL     1      -7.463  12.464  68.457  1.00  0.00    -0.112 A  
HETATM    5  C   UNL     1      -9.837  13.176  67.864  1.00  0.00    -0.231 A  
HETATM    6  C   UNL     1      -8.746  11.073  66.771  1.00  0.00    -0.152 C  
HETATM    7  C   UNL     1      -5.139  13.331  68.483  1.00  0.00    -0.073 A  
HETATM    8  C   UNL     1      -6.843  12.319  69.689  1.00  0.00     0.135 A  
HETATM    9  C   UNL     1      -9.723  14.474  68.346  1.00  0.00    -0.224 A  
HETATM   10  O   UNL     1      -9.566  10.897  65.878  1.00  0.00    -0.198 OA 
HETATM   11  C   UNL     1      -5.506  12.806  69.700  1.00  0.00    -0.089 A  
HETATM   12  C   UNL     1     -10.860  15.283  68.064  1.00  0.00    -0.288 A  
HETATM   13  S   UNL     1     -11.391  12.956  67.148  1.00  0.00    -0.324 SA 
HETATM   14  C   UNL     1     -11.834  14.582  67.395  1.00  0.00    -0.388 A  
HETATM   15  S   UNL     1      -6.416  13.283  67.350  1.00  0.00     0.113 SA 
ENDROOT
BRANCH   6  16
HETATM   16  O   UNL     1      -7.575  10.356  66.793  1.00  0.00    -0.104 OA 
BRANCH  16  17
HETATM   17  C   UNL     1      -7.524   9.179  67.617  1.00  0.00    -0.084 C  
HETATM   18  N   UNL     1      -8.365   6.867  66.876  1.00  0.00    -0.113 N  
HETATM   19  C   UNL     1      -8.770   8.265  67.484  1.00  0.00    -0.129 C  
HETATM   20  C   UNL     1      -7.319   6.236  67.811  1.00  0.00    -0.084 C  
HETATM   21  C   UNL     1      -7.729   7.135  65.506  1.00  0.00    -0.108 C  
HETATM   22  C   UNL     1      -6.142   7.172  68.033  1.00  0.00    -0.034 C  
HETATM   23  C   UNL     1      -6.455   7.961  65.697  1.00  0.00    -0.042 C  
HETATM   24  C   UNL     1      -6.278   8.408  67.160  1.00  0.00    -0.056 C  
BRANCH  18  25
HETATM   25  C   UNL     1      -9.674   6.034  66.748  1.00  0.00    -0.153 C  
BRANCH  25  26
HETATM   26  C   UNL     1     -10.946   6.590  67.410  1.00  0.00    -0.458 C  
BRANCH  26  27
HETATM   27  C   UNL     1     -11.125   6.174  68.864  1.00  0.00    -0.345 C  
BRANCH  27  28
HETATM   28  O   UNL     1     -11.588   7.242  69.678  1.00  0.00    -0.014 OA 
BRANCH  28  29
HETATM   29  C   UNL     1     -11.157   7.174  70.985  1.00  0.00    -0.260 A  
HETATM   30  C   UNL     1     -11.389   5.954  71.611  1.00  0.00    -0.272 A  
HETATM   31  C   UNL     1     -11.036   5.762  72.950  1.00  0.00    -0.321 A  
HETATM   32  C   UNL     1     -10.425   6.789  73.667  1.00  0.00    -0.374 A  
HETATM   33  C   UNL     1     -10.154   7.999  73.044  1.00  0.00    -0.351 A  
HETATM   34  C   UNL     1     -10.513   8.191  71.706  1.00  0.00    -0.304 A  
ENDBRANCH  28  29
ENDBRANCH  27  28
ENDBRANCH  26  27
ENDBRANCH  25  26
ENDBRANCH  18  25
ENDBRANCH  16  17
ENDBRANCH   6  16
TORSDOF 7
ENDMDL
MODEL      161
REMARK 921   NORMALIZED FREE ENERGY PREDICTED BY IDOCK:   -3.71 KCAL/MOL
REMARK 922        TOTAL FREE ENERGY PREDICTED BY IDOCK:   -6.88 KCAL/MOL
REMARK 923 INTER-LIGAND FREE ENERGY PREDICTED BY IDOCK:   -5.47 KCAL/MOL
REMARK 924 INTRA-LIGAND FREE ENERGY PREDICTED BY IDOCK:   -1.41 KCAL/MOL
REMARK 927      BINDING AFFINITY PREDICTED BY RF-SCORE:    0.00 PKD
ROOT
HETATM    1  O   UNL     1      -7.983  12.951  66.343  1.00  0.00    -0.177 OA 
HETATM    2  C   UNL     1      -8.200  13.706  67.544  1.00  0.00    -0.184 C  
HETATM    3  H   UNL     1      -8.160  13.518  65.602  1.00  0.00     0.000 HD 
HETATM    4  C   UNL     1      -9.685  14.089  67.544  1.00  0.00    -0.232 A  
HETATM    5  C   UNL     1      -7.277  14.919  67.441  1.00  0.00    -0.183 A  
HETATM    6  C   UNL     1      -7.906  12.766  68.772  1.00  0.00     0.040 C  
HETATM    7  C   UNL     1     -11.957  14.839  68.198  1.00  0.00    -0.230 A  
HETATM    8  C   UNL     1     -10.625  13.912  66.540  1.00  0.00    -0.279 A  
HETATM    9  C   UNL     1      -7.588  16.209  67.030  1.00  0.00    -0.260 A  
HETATM   10  O   UNL     1      -6.857  12.632  69.390  1.00  0.00    -0.066 OA 
HETATM   11  C   UNL     1     -11.930  14.331  66.920  1.00  0.00    -0.467 A  
HETATM   12  C   UNL     1      -6.458  17.074  66.984  1.00  0.00    -0.233 A  
HETATM   13  S   UNL     1      -5.574  14.778  67.678  1.00  0.00     0.133 SA 
HETATM   14  C   UNL     1      -5.300  16.424  67.336  1.00  0.00    -0.131 A  
HETATM   15  S   UNL     1     -10.408  14.856  68.916  1.00  0.00    -0.248 SA 
ENDROOT
BRANCH   6  16
HETATM   16  O   UNL     1      -8.998  11.991  69.078  1.00  0.00     0.129 OA 
BRANCH  16  17
HETATM   17  C   UNL     1      -8.970  10.608  68.687  1.00  0.00    -0.170 C  
HETATM   18  N   UNL     1     -10.180   8.730  69.956  1.00  0.00    -0.192 N  
HETATM   19  C   UNL     1      -8.881   9.620  69.879  1.00  0.00    -0.221 C  
HETATM   20  C   UNL     1     -10.307   7.972  68.624  1.00  0.00    -0.200 C  
HETATM   21  C   UNL     1     -11.373   9.682  70.117  1.00  0.00    -0.227 C  
HETATM   22  C   UNL     1     -10.288   8.926  67.442  1.00  0.00    -0.337 C  
HETATM   23  C   UNL     1     -11.476  10.572  68.876  1.00  0.00    -0.292 C  
HETATM   24  C   UNL     1     -10.281  10.367  67.926  1.00  0.00    -0.211 C  
BRANCH  18  25
HETATM   25  C   UNL     1     -10.018   7.799  71.194  1.00  0.00    -0.176 C  
BRANCH  25  26
HETATM   26  C   UNL     1     -10.062   6.280  70.960  1.00  0.00    -0.221 C  
BRANCH  26  27
HETATM   27  C   UNL     1      -8.952   5.509  71.660  1.00  0.00    -0.136 C  
BRANCH  27  28
HETATM   28  O   UNL     1      -8.984   4.121  71.358  1.00  0.00    -0.110 OA 
BRANCH  28  29
HETATM   29  C   UNL     1      -8.700   3.831  70.041  1.00  0.00    -0.069 A  
HETATM   30  C   UNL     1      -7.407   4.148  69.642  1.00  0.00    -0.050 A  
HETATM   31  C   UNL     1      -7.000   3.940  68.320  1.00  0.00    -0.051 A  
HETATM   32  C   UNL     1      -7.883   3.390  67.393  1.00  0.00    -0.078 A  
HETATM   33  C   UNL     1      -9.165   3.035  67.789  1.00  0.00    -0.244 A  
HETATM   34  C   UNL     1      -9.572   3.248  69.109  1.00  0.00    -0.100 A  
ENDBRANCH  28  29
ENDBRANCH  27  28
ENDBRANCH  26  27
ENDBRANCH  25  26
ENDBRANCH  18  25
ENDBRANCH  16  17
ENDBRANCH   6  16
TORSDOF 7
ENDMDL
MODEL      162
REMARK 921   NORMALIZED FREE ENERGY PREDICTED BY IDOCK:   -3.71 KCAL/MOL
REMARK 922        TOTAL FREE ENERGY PREDICTED BY IDOCK:   -6.88 KCAL/MOL
REMARK 923 INTER-LIGAND FREE ENERGY PREDICTED BY IDOCK:   -5.02 KCAL/MOL
REMARK 924 INTRA-LIGAND FREE ENERGY PREDICTED BY IDOCK:   -1.86 KCAL/MOL
REMARK 927      BINDING AFFINITY PREDICTED BY RF-SCORE:    0.00 PKD
ROOT
HETATM    1  O   UNL     1      -9.895   6.141  66.077  1.00  0.00    -0.378 OA 
HETATM    2  C   UNL     1      -9.158   7.147  66.789  1.00  0.00    -0.147 C  
HETATM    3  H   UNL     1     -10.766   6.479  65.907  1.00  0.00     0.000 HD 
HETATM    4  C   UNL     1      -9.891   7.350  68.120  1.00  0.00    -0.156 A  
HETATM    5  C   UNL     1      -9.191   8.388  65.901  1.00  0.00    -0.155 A  
HETATM    6  C   UNL     1      -7.714   6.585  67.071  1.00  0.00    -0.100 C  
HETATM    7  C   UNL     1     -10.494   7.985  70.441  1.00  0.00    -0.218 A  
HETATM    8  C   UNL     1     -11.106   6.822  68.529  1.00  0.00    -0.217 A  
HETATM    9  C   UNL     1     -10.033   9.490  65.985  1.00  0.00    -0.348 A  
HETATM   10  O   UNL     1      -6.700   6.729  66.399  1.00  0.00    -0.046 OA 
HETATM   11  C   UNL     1     -11.446   7.177  69.865  1.00  0.00    -0.154 A  
HETATM   12  C   UNL     1      -9.833  10.435  64.939  1.00  0.00    -0.400 A  
HETATM   13  S   UNL     1      -8.228   8.501  64.473  1.00  0.00    -0.131 SA 
HETATM   14  C   UNL     1      -8.861  10.027  64.059  1.00  0.00    -0.224 A  
HETATM   15  S   UNL     1      -9.223   8.354  69.361  1.00  0.00    -0.154 SA 
ENDROOT
BRANCH   6  16
HETATM   16  O   UNL     1      -7.698   5.797  68.196  1.00  0.00    -0.093 OA 
BRANCH  16  17
HETATM   17  C   UNL     1      -7.204   4.453  68.066  1.00  0.00    -0.064 C  
HETATM   18  N   UNL     1      -7.309   2.696  69.937  1.00  0.00    -0.043 N  
HETATM   19  C   UNL     1      -6.506   3.915  69.343  1.00  0.00    -0.033 C  
HETATM   20  C   UNL     1      -7.379   1.609  68.852  1.00  0.00    -0.043 C  
HETATM   21  C   UNL     1      -8.726   3.195  70.252  1.00  0.00    -0.069 C  
HETATM   22  C   UNL     1      -7.965   2.155  67.560  1.00  0.00    -0.064 C  
HETATM   23  C   UNL     1      -9.406   3.627  68.951  1.00  0.00    -0.235 C  
HETATM   24  C   UNL     1      -8.433   3.588  67.757  1.00  0.00    -0.107 C  
BRANCH  18  25
HETATM   25  C   UNL     1      -6.560   2.246  71.226  1.00  0.00    -0.023 C  
BRANCH  25  26
HETATM   26  C   UNL     1      -6.379   3.282  72.348  1.00  0.00    -0.014 C  
BRANCH  26  27
HETATM   27  C   UNL     1      -7.271   3.051  73.560  1.00  0.00    -0.042 C  
BRANCH  27  28
HETATM   28  O   UNL     1      -7.345   4.192  74.402  1.00  0.00    -0.068 OA 
BRANCH  28  29
HETATM   29  C   UNL     1      -8.427   5.006  74.146  1.00  0.00    -0.109 A  
HETATM   30  C   UNL     1      -9.584   4.332  73.772  1.00  0.00    -0.133 A  
HETATM   31  C   UNL     1     -10.745   5.039  73.445  1.00  0.00    -0.330 A  
HETATM   32  C   UNL     1     -10.760   6.431  73.514  1.00  0.00    -0.267 A  
HETATM   33  C   UNL     1      -9.622   7.113  73.921  1.00  0.00    -0.319 A  
HETATM   34  C   UNL     1      -8.461   6.405  74.242  1.00  0.00    -0.136 A  
ENDBRANCH  28  29
ENDBRANCH  27  28
ENDBRANCH  26  27
ENDBRANCH  25  26
ENDBRANCH  18  25
ENDBRANCH  16  17
ENDBRANCH   6  16
TORSDOF 7
ENDMDL
MODEL      163
REMARK 921   NORMALIZED FREE ENERGY PREDICTED BY IDOCK:   -3.71 KCAL/MOL
REMARK 922        TOTAL FREE ENERGY PREDICTED BY IDOCK:   -6.87 KCAL/MOL
REMARK 923 INTER-LIGAND FREE ENERGY PREDICTED BY IDOCK:   -6.11 KCAL/MOL
REMARK 924 INTRA-LIGAND FREE ENERGY PREDICTED BY IDOCK:   -0.77 KCAL/MOL
REMARK 927      BINDING AFFINITY PREDICTED BY RF-SCORE:    0.00 PKD
ROOT
HETATM    1  O   UNL     1      -9.730  11.168  69.389  1.00  0.00    -0.420 OA 
HETATM    2  C   UNL     1      -8.799  10.515  68.513  1.00  0.00    -0.144 C  
HETATM    3  H   UNL     1      -9.736  10.699  70.216  1.00  0.00     0.000 HD 
HETATM    4  C   UNL     1      -9.344   9.100  68.288  1.00  0.00    -0.135 A  
HETATM    5  C   UNL     1      -7.462  10.522  69.252  1.00  0.00    -0.122 A  
HETATM    6  C   UNL     1      -8.790  11.292  67.143  1.00  0.00    -0.153 C  
HETATM    7  C   UNL     1      -9.784   6.822  67.410  1.00  0.00    -0.133 A  
HETATM    8  C   UNL     1     -10.417   8.477  68.909  1.00  0.00    -0.207 A  
HETATM    9  C   UNL     1      -6.882   9.506  70.001  1.00  0.00    -0.075 A  
HETATM   10  O   UNL     1      -8.045  12.198  66.790  1.00  0.00    -0.147 OA 
HETATM   11  C   UNL     1     -10.676   7.175  68.396  1.00  0.00    -0.192 A  
HETATM   12  C   UNL     1      -5.657   9.887  70.617  1.00  0.00    -0.062 A  
HETATM   13  S   UNL     1      -6.522  11.962  69.400  1.00  0.00    -0.110 SA 
HETATM   14  C   UNL     1      -5.335  11.195  70.351  1.00  0.00    -0.104 A  
HETATM   15  S   UNL     1      -8.612   8.033  67.139  1.00  0.00    -0.125 SA 
ENDROOT
BRANCH   6  16
HETATM   16  O   UNL     1      -9.820  10.882  66.333  1.00  0.00    -0.194 OA 
BRANCH  16  17
HETATM   17  C   UNL     1     -10.993  11.710  66.267  1.00  0.00    -0.289 C  
HETATM   18  N   UNL     1     -11.095  13.965  65.040  1.00  0.00    -0.336 N  
HETATM   19  C   UNL     1     -10.697  13.228  66.376  1.00  0.00    -0.285 C  
HETATM   20  C   UNL     1     -12.593  13.715  64.797  1.00  0.00    -0.295 C  
HETATM   21  C   UNL     1     -10.280  13.324  63.909  1.00  0.00     0.342 C  
HETATM   22  C   UNL     1     -12.911  12.228  64.794  1.00  0.00    -0.059 C  
HETATM   23  C   UNL     1     -10.674  11.851  63.778  1.00  0.00    -0.476 C  
HETATM   24  C   UNL     1     -11.632  11.414  64.903  1.00  0.00     0.052 C  
BRANCH  18  25
HETATM   25  C   UNL     1     -10.734  15.468  65.228  1.00  0.00    -0.422 C  
BRANCH  25  26
HETATM   26  C   UNL     1     -10.022  15.877  66.528  1.00  0.00    -0.286 C  
BRANCH  26  27
HETATM   27  C   UNL     1      -9.712  17.364  66.628  1.00  0.00    -0.290 C  
BRANCH  27  28
HETATM   28  O   UNL     1      -9.394  17.763  67.954  1.00  0.00    -0.256 OA 
BRANCH  28  29
HETATM   29  C   UNL     1      -8.290  17.126  68.477  1.00  0.00    -0.262 A  
HETATM   30  C   UNL     1      -7.077  17.750  68.208  1.00  0.00    -0.230 A  
HETATM   31  C   UNL     1      -5.875  17.187  68.648  1.00  0.00    -0.144 A  
HETATM   32  C   UNL     1      -5.883  16.003  69.383  1.00  0.00    -0.131 A  
HETATM   33  C   UNL     1      -7.090  15.391  69.690  1.00  0.00    -0.180 A  
HETATM   34  C   UNL     1      -8.290  15.951  69.245  1.00  0.00    -0.238 A  
ENDBRANCH  28  29
ENDBRANCH  27  28
ENDBRANCH  26  27
ENDBRANCH  25  26
ENDBRANCH  18  25
ENDBRANCH  16  17
ENDBRANCH   6  16
TORSDOF 7
ENDMDL
MODEL      164
REMARK 921   NORMALIZED FREE ENERGY PREDICTED BY IDOCK:   -3.69 KCAL/MOL
REMARK 922        TOTAL FREE ENERGY PREDICTED BY IDOCK:   -6.85 KCAL/MOL
REMARK 923 INTER-LIGAND FREE ENERGY PREDICTED BY IDOCK:   -6.77 KCAL/MOL
REMARK 924 INTRA-LIGAND FREE ENERGY PREDICTED BY IDOCK:   -0.08 KCAL/MOL
REMARK 927      BINDING AFFINITY PREDICTED BY RF-SCORE:    0.00 PKD
ROOT
HETATM    1  O   UNL     1     -10.471  13.601  70.692  1.00  0.00     1.209 OA 
HETATM    2  C   UNL     1     -11.885  13.657  70.450  1.00  0.00    -0.237 C  
HETATM    3  H   UNL     1     -10.335  13.236  71.558  1.00  0.00     0.000 HD 
HETATM    4  C   UNL     1     -12.460  14.615  71.499  1.00  0.00    -0.346 A  
HETATM    5  C   UNL     1     -12.389  12.225  70.618  1.00  0.00    -0.286 A  
HETATM    6  C   UNL     1     -12.111  14.262  69.014  1.00  0.00    -0.285 C  
HETATM    7  C   UNL     1     -13.925  16.157  72.777  1.00  0.00    -0.053 A  
HETATM    8  C   UNL     1     -11.819  15.201  72.581  1.00  0.00    -0.484 A  
HETATM    9  C   UNL     1     -12.989  11.644  71.729  1.00  0.00    -0.483 A  
HETATM   10  O   UNL     1     -12.244  13.666  67.952  1.00  0.00    -0.320 OA 
HETATM   11  C   UNL     1     -12.657  16.094  73.306  1.00  0.00    -0.623 A  
HETATM   12  C   UNL     1     -13.265  10.258  71.561  1.00  0.00    -0.484 A  
HETATM   13  S   UNL     1     -12.095  11.019  69.420  1.00  0.00    -0.244 SA 
HETATM   14  C   UNL     1     -12.847   9.796  70.337  1.00  0.00     0.142 A  
HETATM   15  S   UNL     1     -14.118  15.107  71.444  1.00  0.00    -0.477 SA 
ENDROOT
BRANCH   6  16
HETATM   16  O   UNL     1     -12.076  15.635  69.042  1.00  0.00    -0.337 OA 
BRANCH  16  17
HETATM   17  C   UNL     1     -10.788  16.272  69.096  1.00  0.00    -0.314 C  
HETATM   18  N   UNL     1      -8.804  15.637  67.592  1.00  0.00    -0.174 N  
HETATM   19  C   UNL     1      -9.596  15.297  68.912  1.00  0.00    -0.220 C  
HETATM   20  C   UNL     1      -8.312  17.089  67.703  1.00  0.00    -0.190 C  
HETATM   21  C   UNL     1      -9.796  15.522  66.426  1.00  0.00    -0.278 C  
HETATM   22  C   UNL     1      -9.461  18.041  67.990  1.00  0.00    -0.284 C  
HETATM   23  C   UNL     1     -10.901  16.565  66.602  1.00  0.00    -0.053 C  
HETATM   24  C   UNL     1     -10.785  17.297  67.953  1.00  0.00    -0.351 C  
BRANCH  18  25
HETATM   25  C   UNL     1      -7.655  14.592  67.473  1.00  0.00    -0.194 C  
BRANCH  25  26
HETATM   26  C   UNL     1      -7.602  13.463  68.514  1.00  0.00    -0.127 C  
BRANCH  26  27
HETATM   27  C   UNL     1      -7.975  12.092  67.967  1.00  0.00    -0.152 C  
BRANCH  27  28
HETATM   28  O   UNL     1      -7.371  11.829  66.709  1.00  0.00    -0.128 OA 
BRANCH  28  29
HETATM   29  C   UNL     1      -8.249  11.363  65.755  1.00  0.00     0.153 A  
HETATM   30  C   UNL     1      -9.435  12.082  65.656  1.00  0.00    -0.150 A  
HETATM   31  C   UNL     1     -10.431  11.691  64.755  1.00  0.00    -0.346 A  
HETATM   32  C   UNL     1     -10.234  10.587  63.929  1.00  0.00    -0.199 A  
HETATM   33  C   UNL     1      -9.039   9.883  63.993  1.00  0.00    -0.300 A  
HETATM   34  C   UNL     1      -8.047  10.271  64.898  1.00  0.00    -0.154 A  
ENDBRANCH  28  29
ENDBRANCH  27  28
ENDBRANCH  26  27
ENDBRANCH  25  26
ENDBRANCH  18  25
ENDBRANCH  16  17
ENDBRANCH   6  16
TORSDOF 7
ENDMDL
MODEL      165
REMARK 921   NORMALIZED FREE ENERGY PREDICTED BY IDOCK:   -3.64 KCAL/MOL
REMARK 922        TOTAL FREE ENERGY PREDICTED BY IDOCK:   -6.77 KCAL/MOL
REMARK 923 INTER-LIGAND FREE ENERGY PREDICTED BY IDOCK:   -6.28 KCAL/MOL
REMARK 924 INTRA-LIGAND FREE ENERGY PREDICTED BY IDOCK:   -0.49 KCAL/MOL
REMARK 927      BINDING AFFINITY PREDICTED BY RF-SCORE:    0.00 PKD
ROOT
HETATM    1  O   UNL     1      -8.414   9.791  66.290  1.00  0.00    -0.122 OA 
HETATM    2  C   UNL     1      -8.396   9.395  67.670  1.00  0.00    -0.119 C  
HETATM    3  H   UNL     1      -7.565   9.588  65.914  1.00  0.00     0.000 HD 
HETATM    4  C   UNL     1      -7.324  10.257  68.347  1.00  0.00    -0.084 A  
HETATM    5  C   UNL     1      -8.044   7.909  67.668  1.00  0.00    -0.124 A  
HETATM    6  C   UNL     1      -9.803   9.731  68.292  1.00  0.00    -0.148 C  
HETATM    7  C   UNL     1      -5.904  11.436  70.005  1.00  0.00    -0.126 A  
HETATM    8  C   UNL     1      -6.420  11.131  67.763  1.00  0.00    -0.063 A  
HETATM    9  C   UNL     1      -6.807   7.313  67.878  1.00  0.00    -0.070 A  
HETATM   10  O   UNL     1     -10.781   9.000  68.394  1.00  0.00    -0.186 OA 
HETATM   11  C   UNL     1      -5.614  11.815  68.715  1.00  0.00    -0.049 A  
HETATM   12  C   UNL     1      -6.829   5.897  67.729  1.00  0.00    -0.060 A  
HETATM   13  S   UNL     1      -9.195   6.711  67.200  1.00  0.00    -0.130 SA 
HETATM   14  C   UNL     1      -8.077   5.438  67.381  1.00  0.00    -0.101 A  
HETATM   15  S   UNL     1      -7.107  10.225  70.063  1.00  0.00    -0.143 SA 
ENDROOT
BRANCH   6  16
HETATM   16  O   UNL     1      -9.873  11.045  68.684  1.00  0.00    -0.181 OA 
BRANCH  16  17
HETATM   17  C   UNL     1     -10.835  11.890  68.031  1.00  0.00    -0.216 C  
HETATM   18  N   UNL     1     -11.626  14.152  68.958  1.00  0.00    -0.282 N  
HETATM   19  C   UNL     1     -11.820  12.588  69.004  1.00  0.00    -0.296 C  
HETATM   20  C   UNL     1     -11.868  14.611  67.511  1.00  0.00    -0.347 C  
HETATM   21  C   UNL     1     -10.170  14.440  69.348  1.00  0.00     0.021 C  
HETATM   22  C   UNL     1     -10.980  13.855  66.536  1.00  0.00    -0.300 C  
HETATM   23  C   UNL     1      -9.238  13.812  68.309  1.00  0.00    -0.204 C  
HETATM   24  C   UNL     1     -10.014  12.955  67.290  1.00  0.00    -0.224 C  
BRANCH  18  25
HETATM   25  C   UNL     1     -12.626  14.762  69.984  1.00  0.00    -0.224 C  
BRANCH  25  26
HETATM   26  C   UNL     1     -13.522  13.795  70.774  1.00  0.00     0.126 C  
BRANCH  26  27
HETATM   27  C   UNL     1     -12.769  12.655  71.446  1.00  0.00    -0.247 C  
BRANCH  27  28
HETATM   28  O   UNL     1     -13.642  11.719  72.063  1.00  0.00    -0.326 OA 
BRANCH  28  29
HETATM   29  C   UNL     1     -13.214  10.413  71.971  1.00  0.00    -0.392 A  
HETATM   30  C   UNL     1     -11.895  10.262  71.559  1.00  0.00    -0.290 A  
HETATM   31  C   UNL     1     -11.345   8.988  71.387  1.00  0.00    -0.394 A  
HETATM   32  C   UNL     1     -12.111   7.853  71.649  1.00  0.00    -0.333 A  
HETATM   33  C   UNL     1     -13.418   7.991  72.096  1.00  0.00    -0.209 A  
HETATM   34  C   UNL     1     -13.967   9.266  72.262  1.00  0.00    -0.439 A  
ENDBRANCH  28  29
ENDBRANCH  27  28
ENDBRANCH  26  27
ENDBRANCH  25  26
ENDBRANCH  18  25
ENDBRANCH  16  17
ENDBRANCH   6  16
TORSDOF 7
ENDMDL
MODEL      166
REMARK 921   NORMALIZED FREE ENERGY PREDICTED BY IDOCK:   -3.60 KCAL/MOL
REMARK 922        TOTAL FREE ENERGY PREDICTED BY IDOCK:   -6.72 KCAL/MOL
REMARK 923 INTER-LIGAND FREE ENERGY PREDICTED BY IDOCK:   -6.99 KCAL/MOL
REMARK 924 INTRA-LIGAND FREE ENERGY PREDICTED BY IDOCK:    0.27 KCAL/MOL
REMARK 927      BINDING AFFINITY PREDICTED BY RF-SCORE:    0.00 PKD
ROOT
HETATM    1  O   UNL     1     -10.767  10.848  67.043  1.00  0.00    -0.247 OA 
HETATM    2  C   UNL     1      -9.366  10.586  66.864  1.00  0.00    -0.159 C  
HETATM    3  H   UNL     1     -11.252  10.120  66.673  1.00  0.00     0.000 HD 
HETATM    4  C   UNL     1      -9.133  10.540  65.349  1.00  0.00    -0.187 A  
HETATM    5  C   UNL     1      -9.107   9.244  67.543  1.00  0.00    -0.120 A  
HETATM    6  C   UNL     1      -8.562  11.793  67.477  1.00  0.00    -0.157 C  
HETATM    7  C   UNL     1      -8.106  10.530  63.091  1.00  0.00    -0.104 A  
HETATM    8  C   UNL     1     -10.069  10.571  64.327  1.00  0.00    -0.380 A  
HETATM    9  C   UNL     1      -9.025   7.983  66.964  1.00  0.00    -0.156 A  
HETATM   10  O   UNL     1      -8.102  11.902  68.607  1.00  0.00    -0.144 OA 
HETATM   11  C   UNL     1      -9.479  10.577  63.032  1.00  0.00    -0.364 A  
HETATM   12  C   UNL     1      -8.846   6.937  67.913  1.00  0.00    -0.123 A  
HETATM   13  S   UNL     1      -9.051   9.099  69.261  1.00  0.00    -0.150 SA 
HETATM   14  C   UNL     1      -8.821   7.412  69.202  1.00  0.00    -0.136 A  
HETATM   15  S   UNL     1      -7.534  10.429  64.697  1.00  0.00     0.032 SA 
ENDROOT
BRANCH   6  16
HETATM   16  O   UNL     1      -8.469  12.834  66.585  1.00  0.00    -0.094 OA 
BRANCH  16  17
HETATM   17  C   UNL     1      -9.639  13.642  66.372  1.00  0.00    -0.268 C  
HETATM   18  N   UNL     1     -11.031  14.683  68.264  1.00  0.00    -0.245 N  
HETATM   19  C   UNL     1     -10.772  13.389  67.400  1.00  0.00    -0.262 C  
HETATM   20  C   UNL     1     -11.408  15.820  67.302  1.00  0.00    -0.059 C  
HETATM   21  C   UNL     1      -9.713  15.027  68.971  1.00  0.00    -0.229 C  
HETATM   22  C   UNL     1     -10.352  16.006  66.225  1.00  0.00    -0.330 C  
HETATM   23  C   UNL     1      -8.652  15.360  67.920  1.00  0.00    -0.156 C  
HETATM   24  C   UNL     1      -9.163  15.097  66.490  1.00  0.00    -0.318 C  
BRANCH  18  25
HETATM   25  C   UNL     1     -12.153  14.327  69.284  1.00  0.00    -0.313 C  
BRANCH  25  26
HETATM   26  C   UNL     1     -11.734  13.997  70.726  1.00  0.00    -0.190 C  
BRANCH  26  27
HETATM   27  C   UNL     1     -12.680  13.049  71.449  1.00  0.00    -0.281 C  
BRANCH  27  28
HETATM   28  O   UNL     1     -13.067  11.949  70.639  1.00  0.00     0.064 OA 
BRANCH  28  29
HETATM   29  C   UNL     1     -12.847  10.721  71.223  1.00  0.00    -0.438 A  
HETATM   30  C   UNL     1     -13.995  10.074  71.666  1.00  0.00     0.072 A  
HETATM   31  C   UNL     1     -13.911   8.837  72.314  1.00  0.00    -0.505 A  
HETATM   32  C   UNL     1     -12.671   8.229  72.502  1.00  0.00    -0.225 A  
HETATM   33  C   UNL     1     -11.521   8.847  72.031  1.00  0.00    -0.431 A  
HETATM   34  C   UNL     1     -11.607  10.086  71.389  1.00  0.00    -0.383 A  
ENDBRANCH  28  29
ENDBRANCH  27  28
ENDBRANCH  26  27
ENDBRANCH  25  26
ENDBRANCH  18  25
ENDBRANCH  16  17
ENDBRANCH   6  16
TORSDOF 7
ENDMDL
MODEL      167
REMARK 921   NORMALIZED FREE ENERGY PREDICTED BY IDOCK:   -3.54 KCAL/MOL
REMARK 922        TOTAL FREE ENERGY PREDICTED BY IDOCK:   -6.64 KCAL/MOL
REMARK 923 INTER-LIGAND FREE ENERGY PREDICTED BY IDOCK:   -5.74 KCAL/MOL
REMARK 924 INTRA-LIGAND FREE ENERGY PREDICTED BY IDOCK:   -0.90 KCAL/MOL
REMARK 927      BINDING AFFINITY PREDICTED BY RF-SCORE:    0.00 PKD
ROOT
HETATM    1  O   UNL     1      -5.721  12.354  67.108  1.00  0.00    -0.231 OA 
HETATM    2  C   UNL     1      -6.764  12.423  68.093  1.00  0.00    -0.075 C  
HETATM    3  H   UNL     1      -4.942  12.756  67.475  1.00  0.00     0.000 HD 
HETATM    4  C   UNL     1      -7.029  13.915  68.329  1.00  0.00    -0.108 A  
HETATM    5  C   UNL     1      -6.211  11.718  69.329  1.00  0.00    -0.092 A  
HETATM    6  C   UNL     1      -8.054  11.756  67.484  1.00  0.00    -0.152 C  
HETATM    7  C   UNL     1      -8.024  16.086  68.998  1.00  0.00    -0.224 A  
HETATM    8  C   UNL     1      -6.324  15.006  67.845  1.00  0.00    -0.179 A  
HETATM    9  C   UNL     1      -5.632  12.281  70.459  1.00  0.00    -0.168 A  
HETATM   10  O   UNL     1      -8.428  10.594  67.589  1.00  0.00    -0.118 OA 
HETATM   11  C   UNL     1      -6.902  16.252  68.219  1.00  0.00    -0.134 A  
HETATM   12  C   UNL     1      -5.155  11.316  71.391  1.00  0.00    -0.066 A  
HETATM   13  S   UNL     1      -6.073  10.000  69.400  1.00  0.00    -0.042 SA 
HETATM   14  C   UNL     1      -5.354  10.032  70.945  1.00  0.00    -0.068 A  
HETATM   15  S   UNL     1      -8.348  14.440  69.317  1.00  0.00     0.253 SA 
ENDROOT
BRANCH   6  16
HETATM   16  O   UNL     1      -8.752  12.644  66.703  1.00  0.00    -0.179 OA 
BRANCH  16  17
HETATM   17  C   UNL     1     -10.163  12.428  66.537  1.00  0.00    -0.227 C  
HETATM   18  N   UNL     1     -11.592  13.575  64.736  1.00  0.00    -0.335 N  
HETATM   19  C   UNL     1     -10.956  13.710  66.173  1.00  0.00    -0.284 C  
HETATM   20  C   UNL     1     -12.514  12.345  64.747  1.00  0.00    -0.401 C  
HETATM   21  C   UNL     1     -10.440  13.341  63.750  1.00  0.00     0.259 C  
HETATM   22  C   UNL     1     -11.771  11.102  65.206  1.00  0.00     0.625 C  
HETATM   23  C   UNL     1      -9.748  12.020  64.092  1.00  0.00    -0.123 C  
HETATM   24  C   UNL     1     -10.295  11.409  65.397  1.00  0.00    -0.331 C  
BRANCH  18  25
HETATM   25  C   UNL     1     -12.334  14.912  64.444  1.00  0.00    -0.323 C  
BRANCH  25  26
HETATM   26  C   UNL     1     -11.481  16.164  64.179  1.00  0.00     0.062 C  
BRANCH  26  27
HETATM   27  C   UNL     1     -10.689  16.645  65.387  1.00  0.00    -0.215 C  
BRANCH  27  28
HETATM   28  O   UNL     1     -10.448  18.045  65.352  1.00  0.00    -0.621 OA 
BRANCH  28  29
HETATM   29  C   UNL     1      -9.962  18.556  66.536  1.00  0.00    -0.380 A  
HETATM   30  C   UNL     1      -8.750  19.227  66.425  1.00  0.00    -0.362 A  
HETATM   31  C   UNL     1      -8.126  19.761  67.556  1.00  0.00    -0.337 A  
HETATM   32  C   UNL     1      -8.727  19.646  68.808  1.00  0.00    -0.283 A  
HETATM   33  C   UNL     1      -9.956  19.011  68.927  1.00  0.00    -0.460 A  
HETATM   34  C   UNL     1     -10.575  18.472  67.795  1.00  0.00    -0.422 A  
ENDBRANCH  28  29
ENDBRANCH  27  28
ENDBRANCH  26  27
ENDBRANCH  25  26
ENDBRANCH  18  25
ENDBRANCH  16  17
ENDBRANCH   6  16
TORSDOF 7
ENDMDL
MODEL      168
REMARK 921   NORMALIZED FREE ENERGY PREDICTED BY IDOCK:   -3.54 KCAL/MOL
REMARK 922        TOTAL FREE ENERGY PREDICTED BY IDOCK:   -6.64 KCAL/MOL
REMARK 923 INTER-LIGAND FREE ENERGY PREDICTED BY IDOCK:   -6.58 KCAL/MOL
REMARK 924 INTRA-LIGAND FREE ENERGY PREDICTED BY IDOCK:   -0.06 KCAL/MOL
REMARK 927      BINDING AFFINITY PREDICTED BY RF-SCORE:    0.00 PKD
ROOT
HETATM    1  O   UNL     1      -7.318  18.005  69.547  1.00  0.00    -0.002 OA 
HETATM    2  C   UNL     1      -7.440  17.178  68.380  1.00  0.00    -0.227 C  
HETATM    3  H   UNL     1      -6.395  18.185  69.686  1.00  0.00     0.000 HD 
HETATM    4  C   UNL     1      -6.713  15.868  68.708  1.00  0.00    -0.125 A  
HETATM    5  C   UNL     1      -6.771  17.957  67.250  1.00  0.00    -0.173 A  
HETATM    6  C   UNL     1      -8.969  16.880  68.151  1.00  0.00    -0.227 C  
HETATM    7  C   UNL     1      -5.883  13.531  68.696  1.00  0.00    -0.085 A  
HETATM    8  C   UNL     1      -5.942  15.561  69.819  1.00  0.00    -0.144 A  
HETATM    9  C   UNL     1      -5.485  17.817  66.746  1.00  0.00    -0.187 A  
HETATM   10  O   UNL     1      -9.764  17.492  67.447  1.00  0.00    -0.263 OA 
HETATM   11  C   UNL     1      -5.476  14.216  69.817  1.00  0.00    -0.096 A  
HETATM   12  C   UNL     1      -5.167  18.768  65.736  1.00  0.00    -0.180 A  
HETATM   13  S   UNL     1      -7.534  19.325  66.526  1.00  0.00    -0.258 SA 
HETATM   14  C   UNL     1      -6.206  19.636  65.504  1.00  0.00    -0.220 A  
HETATM   15  S   UNL     1      -6.780  14.517  67.629  1.00  0.00    -0.127 SA 
ENDROOT
BRANCH   6  16
HETATM   16  O   UNL     1      -9.393  15.828  68.925  1.00  0.00    -0.199 OA 
BRANCH  16  17
HETATM   17  C   UNL     1      -9.955  14.686  68.257  1.00  0.00    -0.222 C  
HETATM   18  N   UNL     1     -11.622  13.061  69.343  1.00  0.00    -0.296 N  
HETATM   19  C   UNL     1     -10.101  13.437  69.164  1.00  0.00     0.246 C  
HETATM   20  C   UNL     1     -12.205  12.795  67.945  1.00  0.00     0.072 C  
HETATM   21  C   UNL     1     -12.321  14.278  69.964  1.00  0.00    -0.346 C  
HETATM   22  C   UNL     1     -11.972  13.974  67.016  1.00  0.00    -0.472 C  
HETATM   23  C   UNL     1     -12.231  15.458  68.993  1.00  0.00    -0.167 C  
HETATM   24  C   UNL     1     -11.344  15.130  67.777  1.00  0.00    -0.335 C  
BRANCH  18  25
HETATM   25  C   UNL     1     -11.674  11.825  70.289  1.00  0.00    -0.228 C  
BRANCH  25  26
HETATM   26  C   UNL     1     -11.157  10.483  69.745  1.00  0.00    -0.354 C  
BRANCH  26  27
HETATM   27  C   UNL     1     -10.823   9.461  70.822  1.00  0.00    -0.305 C  
BRANCH  27  28
HETATM   28  O   UNL     1     -11.732   8.369  70.833  1.00  0.00    -0.284 OA 
BRANCH  28  29
HETATM   29  C   UNL     1     -11.267   7.250  70.179  1.00  0.00    -0.239 A  
HETATM   30  C   UNL     1     -10.886   6.205  71.014  1.00  0.00    -0.338 A  
HETATM   31  C   UNL     1     -10.359   5.025  70.482  1.00  0.00    -0.285 A  
HETATM   32  C   UNL     1     -10.231   4.874  69.102  1.00  0.00    -0.186 A  
HETATM   33  C   UNL     1     -10.642   5.895  68.256  1.00  0.00    -0.310 A  
HETATM   34  C   UNL     1     -11.163   7.077  68.791  1.00  0.00    -0.010 A  
ENDBRANCH  28  29
ENDBRANCH  27  28
ENDBRANCH  26  27
ENDBRANCH  25  26
ENDBRANCH  18  25
ENDBRANCH  16  17
ENDBRANCH   6  16
TORSDOF 7
ENDMDL
MODEL      169
REMARK 921   NORMALIZED FREE ENERGY PREDICTED BY IDOCK:   -3.54 KCAL/MOL
REMARK 922        TOTAL FREE ENERGY PREDICTED BY IDOCK:   -6.64 KCAL/MOL
REMARK 923 INTER-LIGAND FREE ENERGY PREDICTED BY IDOCK:   -4.85 KCAL/MOL
REMARK 924 INTRA-LIGAND FREE ENERGY PREDICTED BY IDOCK:   -1.79 KCAL/MOL
REMARK 927      BINDING AFFINITY PREDICTED BY RF-SCORE:    0.00 PKD
ROOT
HETATM    1  O   UNL     1      -8.931   9.770  71.243  1.00  0.00    -0.255 OA 
HETATM    2  C   UNL     1      -9.314   9.014  70.084  1.00  0.00    -0.192 C  
HETATM    3  H   UNL     1      -9.719   9.984  71.729  1.00  0.00     0.000 HD 
HETATM    4  C   UNL     1     -10.194   9.944  69.240  1.00  0.00    -0.209 A  
HETATM    5  C   UNL     1     -10.076   7.802  70.616  1.00  0.00    -0.191 A  
HETATM    6  C   UNL     1      -8.008   8.661  69.279  1.00  0.00    -0.103 C  
HETATM    7  C   UNL     1     -11.488  10.982  67.396  1.00  0.00    -0.135 A  
HETATM    8  C   UNL     1     -10.684  11.200  69.562  1.00  0.00    -0.193 A  
HETATM    9  C   UNL     1     -11.449   7.620  70.717  1.00  0.00    -0.295 A  
HETATM   10  O   UNL     1      -7.320   7.650  69.355  1.00  0.00    -0.082 OA 
HETATM   11  C   UNL     1     -11.416  11.800  68.499  1.00  0.00    -0.353 A  
HETATM   12  C   UNL     1     -11.812   6.390  71.335  1.00  0.00    -0.340 A  
HETATM   13  S   UNL     1      -9.258   6.485  71.373  1.00  0.00    -0.147 SA 
HETATM   14  C   UNL     1     -10.710   5.665  71.720  1.00  0.00    -0.244 A  
HETATM   15  S   UNL     1     -10.720   9.480  67.658  1.00  0.00    -0.188 SA 
ENDROOT
BRANCH   6  16
HETATM   16  O   UNL     1      -7.632   9.698  68.461  1.00  0.00    -0.079 OA 
BRANCH  16  17
HETATM   17  C   UNL     1      -6.710   9.413  67.395  1.00  0.00    -0.068 C  
HETATM   18  N   UNL     1      -7.394   9.157  64.932  1.00  0.00    -0.099 N  
HETATM   19  C   UNL     1      -7.267   8.435  66.328  1.00  0.00    -0.078 C  
HETATM   20  C   UNL     1      -5.996   9.660  64.537  1.00  0.00    -0.086 C  
HETATM   21  C   UNL     1      -8.333  10.355  65.124  1.00  0.00    -0.165 C  
HETATM   22  C   UNL     1      -5.396  10.535  65.626  1.00  0.00    -0.102 C  
HETATM   23  C   UNL     1      -7.698  11.336  66.113  1.00  0.00     0.004 C  
HETATM   24  C   UNL     1      -6.409  10.766  66.736  1.00  0.00    -0.088 C  
BRANCH  18  25
HETATM   25  C   UNL     1      -7.988   8.116  63.938  1.00  0.00    -0.138 C  
BRANCH  25  26
HETATM   26  C   UNL     1      -7.401   6.696  63.950  1.00  0.00    -0.078 C  
BRANCH  26  27
HETATM   27  C   UNL     1      -8.445   5.589  63.990  1.00  0.00    -0.043 C  
BRANCH  27  28
HETATM   28  O   UNL     1      -7.990   4.440  64.691  1.00  0.00    -0.087 OA 
BRANCH  28  29
HETATM   29  C   UNL     1      -8.611   4.246  65.905  1.00  0.00    -0.114 A  
HETATM   30  C   UNL     1      -9.329   5.341  66.372  1.00  0.00    -0.153 A  
HETATM   31  C   UNL     1      -9.976   5.291  67.611  1.00  0.00    -0.202 A  
HETATM   32  C   UNL     1      -9.925   4.131  68.382  1.00  0.00     0.019 A  
HETATM   33  C   UNL     1      -9.242   3.019  67.909  1.00  0.00    -0.247 A  
HETATM   34  C   UNL     1      -8.592   3.072  66.673  1.00  0.00    -0.119 A  
ENDBRANCH  28  29
ENDBRANCH  27  28
ENDBRANCH  26  27
ENDBRANCH  25  26
ENDBRANCH  18  25
ENDBRANCH  16  17
ENDBRANCH   6  16
TORSDOF 7
ENDMDL
MODEL      170
REMARK 921   NORMALIZED FREE ENERGY PREDICTED BY IDOCK:   -3.54 KCAL/MOL
REMARK 922        TOTAL FREE ENERGY PREDICTED BY IDOCK:   -6.63 KCAL/MOL
REMARK 923 INTER-LIGAND FREE ENERGY PREDICTED BY IDOCK:   -5.55 KCAL/MOL
REMARK 924 INTRA-LIGAND FREE ENERGY PREDICTED BY IDOCK:   -1.08 KCAL/MOL
REMARK 927      BINDING AFFINITY PREDICTED BY RF-SCORE:    0.00 PKD
ROOT
HETATM    1  O   UNL     1      -8.054   7.173  66.077  1.00  0.00    -0.103 OA 
HETATM    2  C   UNL     1      -8.684   6.977  67.352  1.00  0.00    -0.120 C  
HETATM    3  H   UNL     1      -7.190   6.778  66.112  1.00  0.00     0.000 HD 
HETATM    4  C   UNL     1      -7.824   7.732  68.373  1.00  0.00    -0.121 A  
HETATM    5  C   UNL     1      -8.688   5.468  67.583  1.00  0.00    -0.107 A  
HETATM    6  C   UNL     1     -10.115   7.631  67.294  1.00  0.00    -0.237 C  
HETATM    7  C   UNL     1      -6.987   8.873  70.410  1.00  0.00    -0.052 A  
HETATM    8  C   UNL     1      -6.597   8.348  68.184  1.00  0.00    -0.061 A  
HETATM    9  C   UNL     1      -7.801   4.706  68.334  1.00  0.00    -0.080 A  
HETATM   10  O   UNL     1     -11.181   7.098  67.009  1.00  0.00    -0.277 OA 
HETATM   11  C   UNL     1      -6.123   9.013  69.349  1.00  0.00    -0.040 A  
HETATM   12  C   UNL     1      -8.062   3.308  68.268  1.00  0.00    -0.080 A  
HETATM   13  S   UNL     1      -9.774   4.429  66.735  1.00  0.00    -0.219 SA 
HETATM   14  C   UNL     1      -9.126   3.023  67.447  1.00  0.00    -0.178 A  
HETATM   15  S   UNL     1      -8.337   7.904  70.016  1.00  0.00    -0.122 SA 
ENDROOT
BRANCH   6  16
HETATM   16  O   UNL     1     -10.057   8.980  67.545  1.00  0.00    -0.196 OA 
BRANCH  16  17
HETATM   17  C   UNL     1     -10.730   9.863  66.631  1.00  0.00    -0.046 C  
HETATM   18  N   UNL     1     -10.465  12.418  66.643  1.00  0.00    -0.228 N  
HETATM   19  C   UNL     1     -11.215  11.186  67.279  1.00  0.00    -0.277 C  
HETATM   20  C   UNL     1     -10.752  12.411  65.132  1.00  0.00    -0.292 C  
HETATM   21  C   UNL     1      -8.964  12.207  66.879  1.00  0.00    -0.201 C  
HETATM   22  C   UNL     1     -10.378  11.077  64.506  1.00  0.00    -0.420 C  
HETATM   23  C   UNL     1      -8.513  10.943  66.144  1.00  0.00    -0.171 C  
HETATM   24  C   UNL     1      -9.706  10.181  65.533  1.00  0.00    -0.344 C  
BRANCH  18  25
HETATM   25  C   UNL     1     -10.987  13.691  67.373  1.00  0.00    -0.276 C  
BRANCH  25  26
HETATM   26  C   UNL     1      -9.956  14.586  68.079  1.00  0.00    -0.222 C  
BRANCH  26  27
HETATM   27  C   UNL     1      -9.779  15.957  67.441  1.00  0.00    -0.227 C  
BRANCH  27  28
HETATM   28  O   UNL     1      -8.527  16.545  67.762  1.00  0.00    -0.172 OA 
BRANCH  28  29
HETATM   29  C   UNL     1      -7.583  15.642  68.201  1.00  0.00    -0.120 A  
HETATM   30  C   UNL     1      -7.596  15.410  69.572  1.00  0.00    -0.212 A  
HETATM   31  C   UNL     1      -6.664  14.545  70.155  1.00  0.00    -0.089 A  
HETATM   32  C   UNL     1      -5.726  13.888  69.362  1.00  0.00    -0.089 A  
HETATM   33  C   UNL     1      -5.727  14.083  67.988  1.00  0.00    -0.132 A  
HETATM   34  C   UNL     1      -6.655  14.952  67.407  1.00  0.00    -0.039 A  
ENDBRANCH  28  29
ENDBRANCH  27  28
ENDBRANCH  26  27
ENDBRANCH  25  26
ENDBRANCH  18  25
ENDBRANCH  16  17
ENDBRANCH   6  16
TORSDOF 7
ENDMDL
MODEL      171
REMARK 921   NORMALIZED FREE ENERGY PREDICTED BY IDOCK:   -3.49 KCAL/MOL
REMARK 922        TOTAL FREE ENERGY PREDICTED BY IDOCK:   -6.57 KCAL/MOL
REMARK 923 INTER-LIGAND FREE ENERGY PREDICTED BY IDOCK:   -5.32 KCAL/MOL
REMARK 924 INTRA-LIGAND FREE ENERGY PREDICTED BY IDOCK:   -1.25 KCAL/MOL
REMARK 927      BINDING AFFINITY PREDICTED BY RF-SCORE:    0.00 PKD
ROOT
HETATM    1  O   UNL     1      -7.652   6.504  70.621  1.00  0.00    -0.097 OA 
HETATM    2  C   UNL     1      -7.534   6.029  69.272  1.00  0.00    -0.089 C  
HETATM    3  H   UNL     1      -8.223   5.909  71.094  1.00  0.00     0.000 HD 
HETATM    4  C   UNL     1      -8.943   6.096  68.672  1.00  0.00    -0.126 A  
HETATM    5  C   UNL     1      -7.006   4.600  69.382  1.00  0.00    -0.050 A  
HETATM    6  C   UNL     1      -6.589   7.015  68.488  1.00  0.00    -0.055 C  
HETATM    7  C   UNL     1     -10.878   6.139  67.120  1.00  0.00    -0.360 A  
HETATM    8  C   UNL     1     -10.142   6.387  69.306  1.00  0.00    -0.203 A  
HETATM    9  C   UNL     1      -7.718   3.409  69.333  1.00  0.00    -0.051 A  
HETATM   10  O   UNL     1      -5.378   6.930  68.318  1.00  0.00    -0.014 OA 
HETATM   11  C   UNL     1     -11.249   6.423  68.413  1.00  0.00    -0.297 A  
HETATM   12  C   UNL     1      -6.909   2.258  69.547  1.00  0.00    -0.033 A  
HETATM   13  S   UNL     1      -5.359   4.277  69.782  1.00  0.00    -0.008 SA 
HETATM   14  C   UNL     1      -5.597   2.590  69.782  1.00  0.00    -0.017 A  
HETATM   15  S   UNL     1      -9.213   5.782  66.992  1.00  0.00    -0.121 SA 
ENDROOT
BRANCH   6  16
HETATM   16  O   UNL     1      -7.281   8.108  68.029  1.00  0.00    -0.090 OA 
BRANCH  16  17
HETATM   17  C   UNL     1      -6.717   9.409  68.269  1.00  0.00    -0.059 C  
HETATM   18  N   UNL     1      -8.045  11.603  68.110  1.00  0.00    -0.140 N  
HETATM   19  C   UNL     1      -7.243  10.508  67.308  1.00  0.00    -0.090 C  
HETATM   20  C   UNL     1      -7.096  12.202  69.160  1.00  0.00    -0.015 C  
HETATM   21  C   UNL     1      -9.205  10.889  68.818  1.00  0.00    -0.183 C  
HETATM   22  C   UNL     1      -6.492  11.120  70.040  1.00  0.00    -0.133 C  
HETATM   23  C   UNL     1      -8.637   9.883  69.821  1.00  0.00    -0.219 C  
HETATM   24  C   UNL     1      -7.104   9.768  69.710  1.00  0.00    -0.095 C  
BRANCH  18  25
HETATM   25  C   UNL     1      -8.560  12.639  67.068  1.00  0.00    -0.181 C  
BRANCH  25  26
HETATM   26  C   UNL     1      -8.404  14.132  67.402  1.00  0.00    -0.210 C  
BRANCH  26  27
HETATM   27  C   UNL     1      -9.422  14.656  68.405  1.00  0.00    -0.209 C  
BRANCH  27  28
HETATM   28  O   UNL     1      -8.910  15.728  69.184  1.00  0.00    -0.219 OA 
BRANCH  28  29
HETATM   29  C   UNL     1      -8.997  16.957  68.568  1.00  0.00    -0.254 A  
HETATM   30  C   UNL     1      -7.856  17.744  68.678  1.00  0.00    -0.278 A  
HETATM   31  C   UNL     1      -7.824  19.031  68.132  1.00  0.00    -0.334 A  
HETATM   32  C   UNL     1      -8.931  19.529  67.448  1.00  0.00    -0.368 A  
HETATM   33  C   UNL     1     -10.063  18.739  67.299  1.00  0.00    -0.401 A  
HETATM   34  C   UNL     1     -10.095  17.455  67.851  1.00  0.00    -0.326 A  
ENDBRANCH  28  29
ENDBRANCH  27  28
ENDBRANCH  26  27
ENDBRANCH  25  26
ENDBRANCH  18  25
ENDBRANCH  16  17
ENDBRANCH   6  16
TORSDOF 7
ENDMDL
MODEL      172
REMARK 921   NORMALIZED FREE ENERGY PREDICTED BY IDOCK:   -3.49 KCAL/MOL
REMARK 922        TOTAL FREE ENERGY PREDICTED BY IDOCK:   -6.57 KCAL/MOL
REMARK 923 INTER-LIGAND FREE ENERGY PREDICTED BY IDOCK:   -5.89 KCAL/MOL
REMARK 924 INTRA-LIGAND FREE ENERGY PREDICTED BY IDOCK:   -0.67 KCAL/MOL
REMARK 927      BINDING AFFINITY PREDICTED BY RF-SCORE:    0.00 PKD
ROOT
HETATM    1  O   UNL     1      -7.953  17.621  69.402  1.00  0.00     0.076 OA 
HETATM    2  C   UNL     1      -7.709  16.791  68.257  1.00  0.00    -0.187 C  
HETATM    3  H   UNL     1      -7.119  17.963  69.702  1.00  0.00     0.000 HD 
HETATM    4  C   UNL     1      -6.834  15.632  68.749  1.00  0.00    -0.118 A  
HETATM    5  C   UNL     1      -6.994  17.684  67.245  1.00  0.00    -0.166 A  
HETATM    6  C   UNL     1      -9.092  16.224  67.762  1.00  0.00    -0.195 C  
HETATM    7  C   UNL     1      -5.614  13.482  68.954  1.00  0.00    -0.074 A  
HETATM    8  C   UNL     1      -6.238  15.463  69.989  1.00  0.00    -0.146 A  
HETATM    9  C   UNL     1      -5.632  17.779  66.988  1.00  0.00    -0.168 A  
HETATM   10  O   UNL     1      -9.840  16.686  66.908  1.00  0.00    -0.247 OA 
HETATM   11  C   UNL     1      -5.548  14.224  70.110  1.00  0.00    -0.119 A  
HETATM   12  C   UNL     1      -5.308  18.777  66.025  1.00  0.00    -0.179 A  
HETATM   13  S   UNL     1      -7.840  18.896  66.356  1.00  0.00    -0.278 SA 
HETATM   14  C   UNL     1      -6.424  19.445  65.584  1.00  0.00    -0.239 A  
HETATM   15  S   UNL     1      -6.460  14.296  67.714  1.00  0.00    -0.139 SA 
ENDROOT
BRANCH   6  16
HETATM   16  O   UNL     1      -9.457  15.109  68.475  1.00  0.00    -0.191 OA 
BRANCH  16  17
HETATM   17  C   UNL     1      -9.896  13.955  67.740  1.00  0.00    -0.237 C  
HETATM   18  N   UNL     1     -10.894  11.851  68.826  1.00  0.00    -0.224 N  
HETATM   19  C   UNL     1      -9.567  12.606  68.432  1.00  0.00    -0.173 C  
HETATM   20  C   UNL     1     -11.701  11.622  67.538  1.00  0.00    -0.214 C  
HETATM   21  C   UNL     1     -11.681  12.775  69.765  1.00  0.00    -0.282 C  
HETATM   22  C   UNL     1     -11.937  12.928  66.795  1.00  0.00    -0.418 C  
HETATM   23  C   UNL     1     -12.063  14.050  69.009  1.00  0.00    -0.358 C  
HETATM   24  C   UNL     1     -11.418  14.100  67.611  1.00  0.00    -0.364 C  
BRANCH  18  25
HETATM   25  C   UNL     1     -10.469  10.534  69.541  1.00  0.00    -0.235 C  
BRANCH  25  26
HETATM   26  C   UNL     1      -9.901   9.398  68.674  1.00  0.00    -0.174 C  
BRANCH  26  27
HETATM   27  C   UNL     1      -9.384   8.207  69.468  1.00  0.00    -0.155 C  
BRANCH  27  28
HETATM   28  O   UNL     1      -9.617   6.973  68.804  1.00  0.00    -0.140 OA 
BRANCH  28  29
HETATM   29  C   UNL     1      -8.685   6.677  67.834  1.00  0.00    -0.116 A  
HETATM   30  C   UNL     1      -7.435   6.310  68.321  1.00  0.00    -0.090 A  
HETATM   31  C   UNL     1      -6.386   6.022  67.443  1.00  0.00    -0.038 A  
HETATM   32  C   UNL     1      -6.590   6.077  66.065  1.00  0.00    -0.048 A  
HETATM   33  C   UNL     1      -7.843   6.406  65.567  1.00  0.00    -0.103 A  
HETATM   34  C   UNL     1      -8.889   6.700  66.446  1.00  0.00    -0.151 A  
ENDBRANCH  28  29
ENDBRANCH  27  28
ENDBRANCH  26  27
ENDBRANCH  25  26
ENDBRANCH  18  25
ENDBRANCH  16  17
ENDBRANCH   6  16
TORSDOF 7
ENDMDL
MODEL      173
REMARK 921   NORMALIZED FREE ENERGY PREDICTED BY IDOCK:   -3.47 KCAL/MOL
REMARK 922        TOTAL FREE ENERGY PREDICTED BY IDOCK:   -6.54 KCAL/MOL
REMARK 923 INTER-LIGAND FREE ENERGY PREDICTED BY IDOCK:   -5.33 KCAL/MOL
REMARK 924 INTRA-LIGAND FREE ENERGY PREDICTED BY IDOCK:   -1.21 KCAL/MOL
REMARK 927      BINDING AFFINITY PREDICTED BY RF-SCORE:    0.00 PKD
ROOT
HETATM    1  O   UNL     1     -12.408  12.986  66.070  1.00  0.00    -0.439 OA 
HETATM    2  C   UNL     1     -11.004  13.117  66.340  1.00  0.00    -0.288 C  
HETATM    3  H   UNL     1     -12.885  13.345  66.810  1.00  0.00     0.000 HD 
HETATM    4  C   UNL     1     -10.727  12.262  67.583  1.00  0.00    -0.220 A  
HETATM    5  C   UNL     1     -10.767  14.606  66.582  1.00  0.00    -0.305 A  
HETATM    6  C   UNL     1     -10.215  12.522  65.114  1.00  0.00    -0.279 C  
HETATM    7  C   UNL     1      -9.637  10.953  69.385  1.00  0.00     0.036 A  
HETATM    8  C   UNL     1     -11.635  11.615  68.408  1.00  0.00    -0.376 A  
HETATM    9  C   UNL     1     -10.672  15.280  67.793  1.00  0.00    -0.286 A  
HETATM   10  O   UNL     1      -9.786  13.113  64.130  1.00  0.00    -0.217 OA 
HETATM   11  C   UNL     1     -11.008  10.854  69.434  1.00  0.00    -0.304 A  
HETATM   12  C   UNL     1     -10.523  16.688  67.645  1.00  0.00    -0.320 A  
HETATM   13  S   UNL     1     -10.761  15.740  65.282  1.00  0.00    -0.411 SA 
HETATM   14  C   UNL     1     -10.533  17.069  66.325  1.00  0.00    -0.258 A  
HETATM   15  S   UNL     1      -9.111  11.996  68.140  1.00  0.00    -0.191 SA 
ENDROOT
BRANCH   6  16
HETATM   16  O   UNL     1     -10.094  11.158  65.215  1.00  0.00    -0.246 OA 
BRANCH  16  17
HETATM   17  C   UNL     1      -8.964  10.535  64.580  1.00  0.00    -0.207 C  
HETATM   18  N   UNL     1      -7.022   9.438  65.856  1.00  0.00    -0.088 N  
HETATM   19  C   UNL     1      -7.617  10.791  65.306  1.00  0.00     0.079 C  
HETATM   20  C   UNL     1      -6.829   8.491  64.660  1.00  0.00    -0.069 C  
HETATM   21  C   UNL     1      -8.062   8.843  66.816  1.00  0.00    -0.111 C  
HETATM   22  C   UNL     1      -8.122   8.319  63.879  1.00  0.00    -0.124 C  
HETATM   23  C   UNL     1      -9.339   8.521  66.036  1.00  0.00    -0.266 C  
HETATM   24  C   UNL     1      -9.264   9.030  64.584  1.00  0.00     0.078 C  
BRANCH  18  25
HETATM   25  C   UNL     1      -5.698   9.793  66.594  1.00  0.00    -0.053 C  
BRANCH  25  26
HETATM   26  C   UNL     1      -5.788  10.200  68.074  1.00  0.00    -0.038 C  
BRANCH  26  27
HETATM   27  C   UNL     1      -5.286   9.139  69.043  1.00  0.00    -0.037 C  
BRANCH  27  28
HETATM   28  O   UNL     1      -5.601   9.449  70.394  1.00  0.00    -0.033 OA 
BRANCH  28  29
HETATM   29  C   UNL     1      -6.018   8.364  71.132  1.00  0.00    -0.035 A  
HETATM   30  C   UNL     1      -7.296   7.910  70.826  1.00  0.00    -0.061 A  
HETATM   31  C   UNL     1      -7.858   6.839  71.528  1.00  0.00    -0.101 A  
HETATM   32  C   UNL     1      -7.130   6.199  72.530  1.00  0.00    -0.084 A  
HETATM   33  C   UNL     1      -5.839   6.619  72.820  1.00  0.00    -0.042 A  
HETATM   34  C   UNL     1      -5.282   7.694  72.121  1.00  0.00    -0.036 A  
ENDBRANCH  28  29
ENDBRANCH  27  28
ENDBRANCH  26  27
ENDBRANCH  25  26
ENDBRANCH  18  25
ENDBRANCH  16  17
ENDBRANCH   6  16
TORSDOF 7
ENDMDL
MODEL      174
REMARK 921   NORMALIZED FREE ENERGY PREDICTED BY IDOCK:   -3.47 KCAL/MOL
REMARK 922        TOTAL FREE ENERGY PREDICTED BY IDOCK:   -6.53 KCAL/MOL
REMARK 923 INTER-LIGAND FREE ENERGY PREDICTED BY IDOCK:   -5.27 KCAL/MOL
REMARK 924 INTRA-LIGAND FREE ENERGY PREDICTED BY IDOCK:   -1.26 KCAL/MOL
REMARK 927      BINDING AFFINITY PREDICTED BY RF-SCORE:    0.00 PKD
ROOT
HETATM    1  O   UNL     1      -8.381   6.170  70.662  1.00  0.00    -0.122 OA 
HETATM    2  C   UNL     1      -7.809   5.756  69.412  1.00  0.00    -0.093 C  
HETATM    3  H   UNL     1      -8.973   5.487  70.956  1.00  0.00     0.000 HD 
HETATM    4  C   UNL     1      -8.978   5.640  68.426  1.00  0.00    -0.114 A  
HETATM    5  C   UNL     1      -7.136   4.414  69.690  1.00  0.00    -0.050 A  
HETATM    6  C   UNL     1      -6.830   6.889  68.925  1.00  0.00    -0.072 C  
HETATM    7  C   UNL     1     -10.364   5.454  66.377  1.00  0.00    -0.247 A  
HETATM    8  C   UNL     1     -10.338   5.740  68.679  1.00  0.00    -0.283 A  
HETATM    9  C   UNL     1      -7.624   3.136  69.452  1.00  0.00    -0.047 A  
HETATM   10  O   UNL     1      -5.623   6.981  69.116  1.00  0.00    -0.017 OA 
HETATM   11  C   UNL     1     -11.131   5.645  67.502  1.00  0.00     0.192 A  
HETATM   12  C   UNL     1      -6.755   2.105  69.909  1.00  0.00    -0.033 A  
HETATM   13  S   UNL     1      -5.648   4.316  70.558  1.00  0.00    -0.013 SA 
HETATM   14  C   UNL     1      -5.630   2.613  70.511  1.00  0.00    -0.016 A  
HETATM   15  S   UNL     1      -8.700   5.340  66.745  1.00  0.00    -0.112 SA 
ENDROOT
BRANCH   6  16
HETATM   16  O   UNL     1      -7.509   7.886  68.269  1.00  0.00    -0.099 OA 
BRANCH  16  17
HETATM   17  C   UNL     1      -6.990   9.224  68.360  1.00  0.00    -0.067 C  
HETATM   18  N   UNL     1      -8.393  11.340  67.965  1.00  0.00    -0.130 N  
HETATM   19  C   UNL     1      -7.554  10.190  67.286  1.00  0.00    -0.095 C  
HETATM   20  C   UNL     1      -7.464  12.084  68.938  1.00  0.00    -0.043 C  
HETATM   21  C   UNL     1      -9.527  10.669  68.753  1.00  0.00    -0.183 C  
HETATM   22  C   UNL     1      -6.822  11.127  69.930  1.00  0.00    -0.060 C  
HETATM   23  C   UNL     1      -8.923   9.801  69.859  1.00  0.00    -0.254 C  
HETATM   24  C   UNL     1      -7.388   9.727  69.754  1.00  0.00    -0.116 C  
BRANCH  18  25
HETATM   25  C   UNL     1      -8.945  12.235  66.817  1.00  0.00    -0.209 C  
BRANCH  25  26
HETATM   26  C   UNL     1      -9.063  13.746  67.079  1.00  0.00    -0.253 C  
BRANCH  26  27
HETATM   27  C   UNL     1     -10.469  14.208  67.437  1.00  0.00    -0.271 C  
BRANCH  27  28
HETATM   28  O   UNL     1     -10.467  15.232  68.421  1.00  0.00    -0.229 OA 
BRANCH  28  29
HETATM   29  C   UNL     1     -11.132  14.893  69.579  1.00  0.00    -0.281 A  
HETATM   30  C   UNL     1     -11.628  13.595  69.606  1.00  0.00    -0.342 A  
HETATM   31  C   UNL     1     -12.357  13.135  70.707  1.00  0.00    -0.404 A  
HETATM   32  C   UNL     1     -12.574  13.969  71.802  1.00  0.00    -0.376 A  
HETATM   33  C   UNL     1     -12.051  15.255  71.803  1.00  0.00    -0.439 A  
HETATM   34  C   UNL     1     -11.328  15.715  70.699  1.00  0.00    -0.392 A  
ENDBRANCH  28  29
ENDBRANCH  27  28
ENDBRANCH  26  27
ENDBRANCH  25  26
ENDBRANCH  18  25
ENDBRANCH  16  17
ENDBRANCH   6  16
TORSDOF 7
ENDMDL
MODEL      175
REMARK 921   NORMALIZED FREE ENERGY PREDICTED BY IDOCK:   -3.46 KCAL/MOL
REMARK 922        TOTAL FREE ENERGY PREDICTED BY IDOCK:   -6.53 KCAL/MOL
REMARK 923 INTER-LIGAND FREE ENERGY PREDICTED BY IDOCK:   -5.80 KCAL/MOL
REMARK 924 INTRA-LIGAND FREE ENERGY PREDICTED BY IDOCK:   -0.73 KCAL/MOL
REMARK 927      BINDING AFFINITY PREDICTED BY RF-SCORE:    0.00 PKD
ROOT
HETATM    1  O   UNL     1      -8.505   8.322  72.653  1.00  0.00    -0.168 OA 
HETATM    2  C   UNL     1      -8.762   7.933  71.295  1.00  0.00    -0.134 C  
HETATM    3  H   UNL     1      -9.269   8.099  73.173  1.00  0.00     0.000 HD 
HETATM    4  C   UNL     1      -9.956   8.774  70.828  1.00  0.00    -0.213 A  
HETATM    5  C   UNL     1      -9.075   6.439  71.346  1.00  0.00    -0.145 A  
HETATM    6  C   UNL     1      -7.497   8.304  70.434  1.00  0.00    -0.067 C  
HETATM    7  C   UNL     1     -11.676   9.927  69.462  1.00  0.00     0.085 A  
HETATM    8  C   UNL     1     -10.760   9.623  71.573  1.00  0.00    -0.137 A  
HETATM    9  C   UNL     1     -10.317   5.816  71.356  1.00  0.00    -0.279 A  
HETATM   10  O   UNL     1      -6.537   7.596  70.152  1.00  0.00    -0.037 OA 
HETATM   11  C   UNL     1     -11.739  10.294  70.786  1.00  0.00    -0.453 A  
HETATM   12  C   UNL     1     -10.237   4.400  71.487  1.00  0.00    -0.167 A  
HETATM   13  S   UNL     1      -7.834   5.266  71.591  1.00  0.00    -0.112 SA 
HETATM   14  C   UNL     1      -8.938   3.969  71.602  1.00  0.00    -0.118 A  
HETATM   15  S   UNL     1     -10.477   8.745  69.179  1.00  0.00    -0.191 SA 
ENDROOT
BRANCH   6  16
HETATM   16  O   UNL     1      -7.527   9.621  70.048  1.00  0.00    -0.103 OA 
BRANCH  16  17
HETATM   17  C   UNL     1      -7.152   9.934  68.696  1.00  0.00    -0.071 C  
HETATM   18  N   UNL     1      -7.466  12.242  67.612  1.00  0.00    -0.122 N  
HETATM   19  C   UNL     1      -8.153  10.867  67.966  1.00  0.00    -0.119 C  
HETATM   20  C   UNL     1      -6.249  11.942  66.723  1.00  0.00    -0.044 C  
HETATM   21  C   UNL     1      -6.993  12.865  68.933  1.00  0.00    -0.084 C  
HETATM   22  C   UNL     1      -5.314  10.943  67.386  1.00  0.00    -0.041 C  
HETATM   23  C   UNL     1      -5.940  11.955  69.568  1.00  0.00    -0.098 C  
HETATM   24  C   UNL     1      -5.788  10.631  68.795  1.00  0.00    -0.040 C  
BRANCH  18  25
HETATM   25  C   UNL     1      -8.547  13.122  66.918  1.00  0.00    -0.109 C  
BRANCH  25  26
HETATM   26  C   UNL     1      -9.588  13.817  67.811  1.00  0.00    -0.219 C  
BRANCH  26  27
HETATM   27  C   UNL     1     -10.013  15.193  67.318  1.00  0.00    -0.230 C  
BRANCH  27  28
HETATM   28  O   UNL     1      -9.998  16.166  68.352  1.00  0.00    -0.222 OA 
BRANCH  28  29
HETATM   29  C   UNL     1      -9.557  17.406  67.944  1.00  0.00    -0.267 A  
HETATM   30  C   UNL     1     -10.265  18.479  68.477  1.00  0.00    -0.389 A  
HETATM   31  C   UNL     1      -9.946  19.791  68.115  1.00  0.00    -0.557 A  
HETATM   32  C   UNL     1      -8.898  20.039  67.231  1.00  0.00    -0.428 A  
HETATM   33  C   UNL     1      -8.160  18.979  66.722  1.00  0.00    -0.279 A  
HETATM   34  C   UNL     1      -8.484  17.667  67.080  1.00  0.00    -0.239 A  
ENDBRANCH  28  29
ENDBRANCH  27  28
ENDBRANCH  26  27
ENDBRANCH  25  26
ENDBRANCH  18  25
ENDBRANCH  16  17
ENDBRANCH   6  16
TORSDOF 7
ENDMDL
MODEL      176
REMARK 921   NORMALIZED FREE ENERGY PREDICTED BY IDOCK:   -3.45 KCAL/MOL
REMARK 922        TOTAL FREE ENERGY PREDICTED BY IDOCK:   -6.51 KCAL/MOL
REMARK 923 INTER-LIGAND FREE ENERGY PREDICTED BY IDOCK:   -5.98 KCAL/MOL
REMARK 924 INTRA-LIGAND FREE ENERGY PREDICTED BY IDOCK:   -0.53 KCAL/MOL
REMARK 927      BINDING AFFINITY PREDICTED BY RF-SCORE:    0.00 PKD
ROOT
HETATM    1  O   UNL     1     -12.089  11.618  65.868  1.00  0.00    -0.252 OA 
HETATM    2  C   UNL     1     -10.771  11.876  66.377  1.00  0.00    -0.266 C  
HETATM    3  H   UNL     1     -12.715  12.040  66.444  1.00  0.00     0.000 HD 
HETATM    4  C   UNL     1     -10.712  11.217  67.760  1.00  0.00    -0.222 A  
HETATM    5  C   UNL     1     -10.645  13.397  66.442  1.00  0.00    -0.285 A  
HETATM    6  C   UNL     1      -9.733  11.176  65.422  1.00  0.00    -0.231 C  
HETATM    7  C   UNL     1      -9.947  10.237  69.907  1.00  0.00    -0.135 A  
HETATM    8  C   UNL     1     -11.737  10.627  68.483  1.00  0.00    -0.200 A  
HETATM    9  C   UNL     1     -10.817  14.233  67.538  1.00  0.00    -0.284 A  
HETATM   10  O   UNL     1      -9.143  11.656  64.461  1.00  0.00     0.059 OA 
HETATM   11  C   UNL     1     -11.296  10.055  69.709  1.00  0.00    -0.281 A  
HETATM   12  C   UNL     1     -10.697  15.615  67.218  1.00  0.00    -0.305 A  
HETATM   13  S   UNL     1     -10.427  14.344  65.016  1.00  0.00    -0.416 SA 
HETATM   14  C   UNL     1     -10.462  15.813  65.879  1.00  0.00    -0.352 A  
HETATM   15  S   UNL     1      -9.227  11.136  68.646  1.00  0.00    -0.145 SA 
ENDROOT
BRANCH   6  16
HETATM   16  O   UNL     1      -9.581   9.849  65.740  1.00  0.00    -0.209 OA 
BRANCH  16  17
HETATM   17  C   UNL     1      -8.273   9.397  66.128  1.00  0.00    -0.111 C  
HETATM   18  N   UNL     1      -7.598   6.924  66.300  1.00  0.00    -0.087 N  
HETATM   19  C   UNL     1      -8.287   8.138  67.034  1.00  0.00    -0.116 C  
HETATM   20  C   UNL     1      -6.158   7.339  65.960  1.00  0.00    -0.037 C  
HETATM   21  C   UNL     1      -8.379   6.677  65.002  1.00  0.00    -0.064 C  
HETATM   22  C   UNL     1      -6.129   8.632  65.161  1.00  0.00    -0.056 C  
HETATM   23  C   UNL     1      -8.258   7.909  64.102  1.00  0.00    -0.031 C  
HETATM   24  C   UNL     1      -7.543   9.071  64.817  1.00  0.00    -0.105 C  
BRANCH  18  25
HETATM   25  C   UNL     1      -7.688   5.704  67.264  1.00  0.00    -0.101 C  
BRANCH  25  26
HETATM   26  C   UNL     1      -6.796   5.713  68.517  1.00  0.00    -0.059 C  
BRANCH  26  27
HETATM   27  C   UNL     1      -7.558   5.882  69.824  1.00  0.00    -0.081 C  
BRANCH  27  28
HETATM   28  O   UNL     1      -8.928   5.527  69.701  1.00  0.00    -0.115 OA 
BRANCH  28  29
HETATM   29  C   UNL     1      -9.561   5.322  70.907  1.00  0.00    -0.175 A  
HETATM   30  C   UNL     1     -10.251   6.426  71.397  1.00  0.00    -0.228 A  
HETATM   31  C   UNL     1     -10.905   6.366  72.631  1.00  0.00    -0.270 A  
HETATM   32  C   UNL     1     -10.892   5.187  73.374  1.00  0.00    -0.359 A  
HETATM   33  C   UNL     1     -10.239   4.067  72.879  1.00  0.00    -0.228 A  
HETATM   34  C   UNL     1      -9.580   4.131  71.647  1.00  0.00    -0.232 A  
ENDBRANCH  28  29
ENDBRANCH  27  28
ENDBRANCH  26  27
ENDBRANCH  25  26
ENDBRANCH  18  25
ENDBRANCH  16  17
ENDBRANCH   6  16
TORSDOF 7
ENDMDL
MODEL      177
REMARK 921   NORMALIZED FREE ENERGY PREDICTED BY IDOCK:   -3.40 KCAL/MOL
REMARK 922        TOTAL FREE ENERGY PREDICTED BY IDOCK:   -6.44 KCAL/MOL
REMARK 923 INTER-LIGAND FREE ENERGY PREDICTED BY IDOCK:   -5.26 KCAL/MOL
REMARK 924 INTRA-LIGAND FREE ENERGY PREDICTED BY IDOCK:   -1.18 KCAL/MOL
REMARK 927      BINDING AFFINITY PREDICTED BY RF-SCORE:    0.00 PKD
ROOT
HETATM    1  O   UNL     1      -8.569  10.851  65.443  1.00  0.00    -0.218 OA 
HETATM    2  C   UNL     1      -8.313  10.612  66.835  1.00  0.00    -0.125 C  
HETATM    3  H   UNL     1      -8.836  11.758  65.344  1.00  0.00     0.000 HD 
HETATM    4  C   UNL     1      -9.648  10.828  67.558  1.00  0.00    -0.158 A  
HETATM    5  C   UNL     1      -7.250  11.631  67.240  1.00  0.00    -0.137 A  
HETATM    6  C   UNL     1      -7.870   9.109  66.998  1.00  0.00    -0.102 C  
HETATM    7  C   UNL     1     -11.483  10.849  69.226  1.00  0.00    -0.302 A  
HETATM    8  C   UNL     1     -10.841  11.315  67.045  1.00  0.00    -0.332 A  
HETATM    9  C   UNL     1      -7.422  12.854  67.875  1.00  0.00    -0.131 A  
HETATM   10  O   UNL     1      -6.735   8.650  67.006  1.00  0.00    -0.061 OA 
HETATM   11  C   UNL     1     -11.896  11.315  68.000  1.00  0.00    -0.244 A  
HETATM   12  C   UNL     1      -6.211  13.586  68.032  1.00  0.00    -0.136 A  
HETATM   13  S   UNL     1      -5.601  11.450  66.766  1.00  0.00    -0.139 SA 
HETATM   14  C   UNL     1      -5.138  12.921  67.489  1.00  0.00    -0.033 A  
HETATM   15  S   UNL     1      -9.821  10.460  69.240  1.00  0.00    -0.209 SA 
ENDROOT
BRANCH   6  16
HETATM   16  O   UNL     1      -8.959   8.275  67.069  1.00  0.00    -0.133 OA 
BRANCH  16  17
HETATM   17  C   UNL     1      -8.814   6.937  66.564  1.00  0.00    -0.140 C  
HETATM   18  N   UNL     1      -9.225   4.820  67.960  1.00  0.00    -0.117 N  
HETATM   19  C   UNL     1      -8.189   5.947  67.580  1.00  0.00    -0.105 C  
HETATM   20  C   UNL     1      -9.624   4.096  66.664  1.00  0.00    -0.206 C  
HETATM   21  C   UNL     1     -10.455   5.518  68.556  1.00  0.00    -0.164 C  
HETATM   22  C   UNL     1     -10.139   5.075  65.622  1.00  0.00    -0.090 C  
HETATM   23  C   UNL     1     -11.091   6.411  67.488  1.00  0.00    -0.401 C  
HETATM   24  C   UNL     1     -10.233   6.473  66.210  1.00  0.00     0.082 C  
BRANCH  18  25
HETATM   25  C   UNL     1      -8.527   3.898  69.004  1.00  0.00    -0.077 C  
BRANCH  25  26
HETATM   26  C   UNL     1      -9.408   3.227  70.070  1.00  0.00    -0.238 C  
BRANCH  26  27
HETATM   27  C   UNL     1      -9.361   3.903  71.433  1.00  0.00    -0.139 C  
BRANCH  27  28
HETATM   28  O   UNL     1      -8.132   4.577  71.661  1.00  0.00    -0.096 OA 
BRANCH  28  29
HETATM   29  C   UNL     1      -8.264   5.759  72.357  1.00  0.00    -0.107 A  
HETATM   30  C   UNL     1      -9.577   6.174  72.551  1.00  0.00    -0.149 A  
HETATM   31  C   UNL     1      -9.852   7.377  73.209  1.00  0.00    -0.322 A  
HETATM   32  C   UNL     1      -8.810   8.163  73.698  1.00  0.00    -0.296 A  
HETATM   33  C   UNL     1      -7.497   7.740  73.543  1.00  0.00    -0.154 A  
HETATM   34  C   UNL     1      -7.223   6.540  72.880  1.00  0.00    -0.082 A  
ENDBRANCH  28  29
ENDBRANCH  27  28
ENDBRANCH  26  27
ENDBRANCH  25  26
ENDBRANCH  18  25
ENDBRANCH  16  17
ENDBRANCH   6  16
TORSDOF 7
ENDMDL
MODEL      178
REMARK 921   NORMALIZED FREE ENERGY PREDICTED BY IDOCK:   -3.31 KCAL/MOL
REMARK 922        TOTAL FREE ENERGY PREDICTED BY IDOCK:   -6.32 KCAL/MOL
REMARK 923 INTER-LIGAND FREE ENERGY PREDICTED BY IDOCK:   -5.74 KCAL/MOL
REMARK 924 INTRA-LIGAND FREE ENERGY PREDICTED BY IDOCK:   -0.58 KCAL/MOL
REMARK 927      BINDING AFFINITY PREDICTED BY RF-SCORE:    0.00 PKD
ROOT
HETATM    1  O   UNL     1      -8.721   6.229  72.349  1.00  0.00    -0.122 OA 
HETATM    2  C   UNL     1      -9.842   5.682  71.637  1.00  0.00    -0.170 C  
HETATM    3  H   UNL     1      -8.943   6.253  73.273  1.00  0.00     0.000 HD 
HETATM    4  C   UNL     1     -11.003   6.660  71.853  1.00  0.00    -0.244 A  
HETATM    5  C   UNL     1     -10.098   4.312  72.261  1.00  0.00    -0.182 A  
HETATM    6  C   UNL     1      -9.474   5.642  70.106  1.00  0.00    -0.159 C  
HETATM    7  C   UNL     1     -13.145   7.898  71.680  1.00  0.00    -0.332 A  
HETATM    8  C   UNL     1     -11.059   7.765  72.688  1.00  0.00    -0.433 A  
HETATM    9  C   UNL     1     -11.032   3.964  73.229  1.00  0.00    -0.294 A  
HETATM   10  O   UNL     1      -8.986   4.718  69.468  1.00  0.00    -0.088 OA 
HETATM   11  C   UNL     1     -12.284   8.482  72.579  1.00  0.00    -0.383 A  
HETATM   12  C   UNL     1     -10.943   2.603  73.637  1.00  0.00    -0.312 A  
HETATM   13  S   UNL     1      -9.065   2.968  71.940  1.00  0.00    -0.105 SA 
HETATM   14  C   UNL     1      -9.925   1.942  72.994  1.00  0.00    -0.100 A  
HETATM   15  S   UNL     1     -12.500   6.466  71.008  1.00  0.00     0.371 SA 
ENDROOT
BRANCH   6  16
HETATM   16  O   UNL     1      -9.704   6.856  69.508  1.00  0.00    -0.158 OA 
BRANCH  16  17
HETATM   17  C   UNL     1      -8.636   7.441  68.743  1.00  0.00    -0.129 C  
HETATM   18  N   UNL     1      -8.572   9.902  68.010  1.00  0.00    -0.121 N  
HETATM   19  C   UNL     1      -9.113   8.459  67.675  1.00  0.00    -0.135 C  
HETATM   20  C   UNL     1      -7.037   9.829  68.050  1.00  0.00    -0.079 C  
HETATM   21  C   UNL     1      -9.103  10.274  69.401  1.00  0.00    -0.187 C  
HETATM   22  C   UNL     1      -6.561   8.758  69.018  1.00  0.00    -0.048 C  
HETATM   23  C   UNL     1      -8.532   9.299  70.433  1.00  0.00    -0.234 C  
HETATM   24  C   UNL     1      -7.741   8.158  69.764  1.00  0.00    -0.100 C  
BRANCH  18  25
HETATM   25  C   UNL     1      -9.125  10.858  66.911  1.00  0.00    -0.154 C  
BRANCH  25  26
HETATM   26  C   UNL     1      -8.954  12.371  67.124  1.00  0.00    -0.195 C  
BRANCH  26  27
HETATM   27  C   UNL     1      -9.672  12.912  68.353  1.00  0.00    -0.186 C  
BRANCH  27  28
HETATM   28  O   UNL     1     -10.040  14.277  68.206  1.00  0.00    -0.225 OA 
BRANCH  28  29
HETATM   29  C   UNL     1      -8.981  15.113  67.929  1.00  0.00    -0.174 A  
HETATM   30  C   UNL     1      -7.949  15.072  68.860  1.00  0.00    -0.169 A  
HETATM   31  C   UNL     1      -6.831  15.900  68.721  1.00  0.00    -0.128 A  
HETATM   32  C   UNL     1      -6.729  16.761  67.630  1.00  0.00    -0.163 A  
HETATM   33  C   UNL     1      -7.735  16.785  66.675  1.00  0.00    -0.308 A  
HETATM   34  C   UNL     1      -8.855  15.961  66.819  1.00  0.00    -0.294 A  
ENDBRANCH  28  29
ENDBRANCH  27  28
ENDBRANCH  26  27
ENDBRANCH  25  26
ENDBRANCH  18  25
ENDBRANCH  16  17
ENDBRANCH   6  16
TORSDOF 7
ENDMDL
MODEL      179
REMARK 921   NORMALIZED FREE ENERGY PREDICTED BY IDOCK:   -3.31 KCAL/MOL
REMARK 922        TOTAL FREE ENERGY PREDICTED BY IDOCK:   -6.31 KCAL/MOL
REMARK 923 INTER-LIGAND FREE ENERGY PREDICTED BY IDOCK:   -5.01 KCAL/MOL
REMARK 924 INTRA-LIGAND FREE ENERGY PREDICTED BY IDOCK:   -1.30 KCAL/MOL
REMARK 927      BINDING AFFINITY PREDICTED BY RF-SCORE:    0.00 PKD
ROOT
HETATM    1  O   UNL     1      -6.878   6.045  68.738  1.00  0.00    -0.061 OA 
HETATM    2  C   UNL     1      -7.685   4.883  68.491  1.00  0.00    -0.078 C  
HETATM    3  H   UNL     1      -6.060   5.941  68.266  1.00  0.00     0.000 HD 
HETATM    4  C   UNL     1      -6.911   3.695  69.074  1.00  0.00    -0.046 A  
HETATM    5  C   UNL     1      -7.838   4.802  66.974  1.00  0.00    -0.098 A  
HETATM    6  C   UNL     1      -9.040   5.055  69.275  1.00  0.00    -0.103 C  
HETATM    7  C   UNL     1      -6.263   1.468  69.954  1.00  0.00    -0.024 A  
HETATM    8  C   UNL     1      -5.625   3.669  69.591  1.00  0.00    -0.017 A  
HETATM    9  C   UNL     1      -7.122   4.024  66.073  1.00  0.00    -0.067 A  
HETATM   10  O   UNL     1     -10.098   5.522  68.868  1.00  0.00    -0.165 OA 
HETATM   11  C   UNL     1      -5.258   2.394  70.106  1.00  0.00    -0.004 A  
HETATM   12  C   UNL     1      -7.481   4.258  64.715  1.00  0.00    -0.073 A  
HETATM   13  S   UNL     1      -8.881   5.876  66.115  1.00  0.00    -0.148 SA 
HETATM   14  C   UNL     1      -8.446   5.229  64.600  1.00  0.00    -0.142 A  
HETATM   15  S   UNL     1      -7.622   2.119  69.150  1.00  0.00    -0.042 SA 
ENDROOT
BRANCH   6  16
HETATM   16  O   UNL     1      -8.909   4.669  70.586  1.00  0.00    -0.099 OA 
BRANCH  16  17
HETATM   17  C   UNL     1      -8.620   5.687  71.560  1.00  0.00    -0.132 C  
HETATM   18  N   UNL     1     -10.279   7.519  72.261  1.00  0.00    -0.197 N  
HETATM   19  C   UNL     1      -9.197   7.081  71.201  1.00  0.00    -0.157 C  
HETATM   20  C   UNL     1      -9.600   7.546  73.640  1.00  0.00    -0.293 C  
HETATM   21  C   UNL     1     -11.379   6.449  72.254  1.00  0.00    -0.290 C  
HETATM   22  C   UNL     1      -8.938   6.214  73.955  1.00  0.00    -0.130 C  
HETATM   23  C   UNL     1     -10.783   5.114  72.704  1.00  0.00    -0.291 C  
HETATM   24  C   UNL     1      -9.254   5.198  72.870  1.00  0.00    -0.142 C  
BRANCH  18  25
HETATM   25  C   UNL     1     -10.824   8.905  71.804  1.00  0.00    -0.365 C  
BRANCH  25  26
HETATM   26  C   UNL     1     -11.605   8.968  70.481  1.00  0.00    -0.209 C  
BRANCH  26  27
HETATM   27  C   UNL     1     -11.117  10.042  69.519  1.00  0.00    -0.238 C  
BRANCH  27  28
HETATM   28  O   UNL     1      -9.723   9.944  69.262  1.00  0.00    -0.184 OA 
BRANCH  28  29
HETATM   29  C   UNL     1      -9.399   9.985  67.924  1.00  0.00    -0.140 A  
HETATM   30  C   UNL     1     -10.451  10.326  67.081  1.00  0.00    -0.311 A  
HETATM   31  C   UNL     1     -10.268  10.366  65.696  1.00  0.00    -0.308 A  
HETATM   32  C   UNL     1      -9.019  10.086  65.145  1.00  0.00    -0.227 A  
HETATM   33  C   UNL     1      -7.952   9.781  65.978  1.00  0.00    -0.111 A  
HETATM   34  C   UNL     1      -8.137   9.735  67.363  1.00  0.00    -0.114 A  
ENDBRANCH  28  29
ENDBRANCH  27  28
ENDBRANCH  26  27
ENDBRANCH  25  26
ENDBRANCH  18  25
ENDBRANCH  16  17
ENDBRANCH   6  16
TORSDOF 7
ENDMDL
MODEL      180
REMARK 921   NORMALIZED FREE ENERGY PREDICTED BY IDOCK:   -3.22 KCAL/MOL
REMARK 922        TOTAL FREE ENERGY PREDICTED BY IDOCK:   -6.19 KCAL/MOL
REMARK 923 INTER-LIGAND FREE ENERGY PREDICTED BY IDOCK:   -5.73 KCAL/MOL
REMARK 924 INTRA-LIGAND FREE ENERGY PREDICTED BY IDOCK:   -0.46 KCAL/MOL
REMARK 927      BINDING AFFINITY PREDICTED BY RF-SCORE:    0.00 PKD
ROOT
HETATM    1  O   UNL     1     -12.876  13.905  68.374  1.00  0.00     0.064 OA 
HETATM    2  C   UNL     1     -11.916  14.028  69.434  1.00  0.00    -0.343 C  
HETATM    3  H   UNL     1     -13.205  14.773  68.172  1.00  0.00     0.000 HD 
HETATM    4  C   UNL     1     -12.685  14.571  70.644  1.00  0.00    -0.360 A  
HETATM    5  C   UNL     1     -10.857  15.002  68.921  1.00  0.00    -0.243 A  
HETATM    6  C   UNL     1     -11.371  12.589  69.769  1.00  0.00    -0.040 C  
HETATM    7  C   UNL     1     -13.375  15.238  72.932  1.00  0.00    -0.514 A  
HETATM    8  C   UNL     1     -13.995  15.023  70.706  1.00  0.00    -0.054 A  
HETATM    9  C   UNL     1     -10.739  16.363  69.174  1.00  0.00    -0.317 A  
HETATM   10  O   UNL     1     -10.375  12.032  69.321  1.00  0.00     0.001 OA 
HETATM   11  C   UNL     1     -14.393  15.394  72.021  1.00  0.00    -0.653 A  
HETATM   12  C   UNL     1      -9.668  16.977  68.466  1.00  0.00    -0.282 A  
HETATM   13  S   UNL     1      -9.692  14.526  67.741  1.00  0.00    -0.219 SA 
HETATM   14  C   UNL     1      -9.002  16.082  67.665  1.00  0.00    -0.190 A  
HETATM   15  S   UNL     1     -11.932  14.695  72.197  1.00  0.00    -0.088 SA 
ENDROOT
BRANCH   6  16
HETATM   16  O   UNL     1     -12.213  11.925  70.626  1.00  0.00    -0.371 OA 
BRANCH  16  17
HETATM   17  C   UNL     1     -12.704  10.636  70.221  1.00  0.00    -0.209 C  
HETATM   18  N   UNL     1     -11.428   8.434  70.578  1.00  0.00    -0.228 N  
HETATM   19  C   UNL     1     -11.608   9.698  69.652  1.00  0.00     0.078 C  
HETATM   20  C   UNL     1     -12.783   7.712  70.652  1.00  0.00     0.234 C  
HETATM   21  C   UNL     1     -11.045   8.946  71.974  1.00  0.00    -0.351 C  
HETATM   22  C   UNL     1     -13.886   8.653  71.108  1.00  0.00    -0.108 C  
HETATM   23  C   UNL     1     -12.194   9.788  72.532  1.00  0.00     0.511 C  
HETATM   24  C   UNL     1     -13.304  10.005  71.485  1.00  0.00    -0.451 C  
BRANCH  18  25
HETATM   25  C   UNL     1     -10.292   7.573  69.952  1.00  0.00    -0.223 C  
BRANCH  25  26
HETATM   26  C   UNL     1      -9.746   6.396  70.777  1.00  0.00    -0.197 C  
BRANCH  26  27
HETATM   27  C   UNL     1     -10.080   5.025  70.206  1.00  0.00    -0.269 C  
BRANCH  27  28
HETATM   28  O   UNL     1      -8.948   4.389  69.630  1.00  0.00    -0.087 OA 
BRANCH  28  29
HETATM   29  C   UNL     1      -8.712   4.749  68.321  1.00  0.00    -0.102 A  
HETATM   30  C   UNL     1      -9.724   4.404  67.432  1.00  0.00    -0.217 A  
HETATM   31  C   UNL     1      -9.594   4.676  66.067  1.00  0.00    -0.189 A  
HETATM   32  C   UNL     1      -8.456   5.318  65.585  1.00  0.00    -0.135 A  
HETATM   33  C   UNL     1      -7.455   5.701  66.468  1.00  0.00    -0.087 A  
HETATM   34  C   UNL     1      -7.583   5.423  67.832  1.00  0.00    -0.088 A  
ENDBRANCH  28  29
ENDBRANCH  27  28
ENDBRANCH  26  27
ENDBRANCH  25  26
ENDBRANCH  18  25
ENDBRANCH  16  17
ENDBRANCH   6  16
TORSDOF 7
ENDMDL
MODEL      181
REMARK 921   NORMALIZED FREE ENERGY PREDICTED BY IDOCK:   -3.19 KCAL/MOL
REMARK 922        TOTAL FREE ENERGY PREDICTED BY IDOCK:   -6.15 KCAL/MOL
REMARK 923 INTER-LIGAND FREE ENERGY PREDICTED BY IDOCK:   -4.77 KCAL/MOL
REMARK 924 INTRA-LIGAND FREE ENERGY PREDICTED BY IDOCK:   -1.38 KCAL/MOL
REMARK 927      BINDING AFFINITY PREDICTED BY RF-SCORE:    0.00 PKD
ROOT
HETATM    1  O   UNL     1      -6.849   6.451  69.508  1.00  0.00    -0.060 OA 
HETATM    2  C   UNL     1      -8.236   6.602  69.848  1.00  0.00    -0.127 C  
HETATM    3  H   UNL     1      -6.453   5.863  70.141  1.00  0.00     0.000 HD 
HETATM    4  C   UNL     1      -8.267   7.256  71.234  1.00  0.00    -0.106 A  
HETATM    5  C   UNL     1      -8.817   5.189  69.848  1.00  0.00    -0.103 A  
HETATM    6  C   UNL     1      -8.891   7.576  68.799  1.00  0.00    -0.131 C  
HETATM    7  C   UNL     1      -8.964   8.430  73.305  1.00  0.00    -0.124 A  
HETATM    8  C   UNL     1      -7.210   7.514  72.093  1.00  0.00    -0.068 A  
HETATM    9  C   UNL     1      -9.039   4.346  70.929  1.00  0.00    -0.186 A  
HETATM   10  O   UNL     1      -9.474   7.291  67.760  1.00  0.00    -0.131 OA 
HETATM   11  C   UNL     1      -7.609   8.199  73.276  1.00  0.00    -0.196 A  
HETATM   12  C   UNL     1      -9.525   3.062  70.553  1.00  0.00    -0.221 A  
HETATM   13  S   UNL     1      -9.129   4.344  68.376  1.00  0.00    -0.133 SA 
HETATM   14  C   UNL     1      -9.641   2.937  69.189  1.00  0.00     0.016 A  
HETATM   15  S   UNL     1      -9.757   7.783  71.938  1.00  0.00    -0.178 SA 
ENDROOT
BRANCH   6  16
HETATM   16  O   UNL     1      -8.679   8.889  69.139  1.00  0.00    -0.129 OA 
BRANCH  16  17
HETATM   17  C   UNL     1      -8.490   9.837  68.075  1.00  0.00    -0.118 C  
HETATM   18  N   UNL     1      -6.679  11.659  68.076  1.00  0.00    -0.061 N  
HETATM   19  C   UNL     1      -8.126  11.264  68.561  1.00  0.00    -0.148 C  
HETATM   20  C   UNL     1      -6.665  11.584  66.540  1.00  0.00    -0.019 C  
HETATM   21  C   UNL     1      -5.708  10.618  68.647  1.00  0.00    -0.040 C  
HETATM   22  C   UNL     1      -7.123  10.220  66.050  1.00  0.00    -0.128 C  
HETATM   23  C   UNL     1      -6.048   9.243  68.067  1.00  0.00    -0.049 C  
HETATM   24  C   UNL     1      -7.339   9.281  67.225  1.00  0.00    -0.091 C  
BRANCH  18  25
HETATM   25  C   UNL     1      -6.388  13.083  68.636  1.00  0.00    -0.083 C  
BRANCH  25  26
HETATM   26  C   UNL     1      -7.583  14.024  68.860  1.00  0.00    -0.080 C  
BRANCH  26  27
HETATM   27  C   UNL     1      -7.917  14.905  67.664  1.00  0.00    -0.169 C  
BRANCH  27  28
HETATM   28  O   UNL     1      -9.314  15.112  67.518  1.00  0.00    -0.194 OA 
BRANCH  28  29
HETATM   29  C   UNL     1     -10.001  13.997  67.087  1.00  0.00    -0.252 A  
HETATM   30  C   UNL     1      -9.595  13.507  65.851  1.00  0.00    -0.132 A  
HETATM   31  C   UNL     1     -10.235  12.403  65.279  1.00  0.00    -0.306 A  
HETATM   32  C   UNL     1     -11.275  11.767  65.956  1.00  0.00    -0.352 A  
HETATM   33  C   UNL     1     -11.664  12.225  67.207  1.00  0.00    -0.394 A  
HETATM   34  C   UNL     1     -11.027  13.332  67.775  1.00  0.00    -0.278 A  
ENDBRANCH  28  29
ENDBRANCH  27  28
ENDBRANCH  26  27
ENDBRANCH  25  26
ENDBRANCH  18  25
ENDBRANCH  16  17
ENDBRANCH   6  16
TORSDOF 7
ENDMDL
MODEL      182
REMARK 921   NORMALIZED FREE ENERGY PREDICTED BY IDOCK:   -2.93 KCAL/MOL
REMARK 922        TOTAL FREE ENERGY PREDICTED BY IDOCK:   -5.77 KCAL/MOL
REMARK 923 INTER-LIGAND FREE ENERGY PREDICTED BY IDOCK:   -5.28 KCAL/MOL
REMARK 924 INTRA-LIGAND FREE ENERGY PREDICTED BY IDOCK:   -0.49 KCAL/MOL
REMARK 927      BINDING AFFINITY PREDICTED BY RF-SCORE:    0.00 PKD
ROOT
HETATM    1  O   UNL     1      -7.548   4.952  70.781  1.00  0.00    -0.063 OA 
HETATM    2  C   UNL     1      -8.095   5.160  69.470  1.00  0.00    -0.083 C  
HETATM    3  H   UNL     1      -8.142   4.386  71.261  1.00  0.00     0.000 HD 
HETATM    4  C   UNL     1      -9.431   5.885  69.675  1.00  0.00    -0.143 A  
HETATM    5  C   UNL     1      -8.265   3.767  68.867  1.00  0.00    -0.072 A  
HETATM    6  C   UNL     1      -7.112   6.099  68.675  1.00  0.00    -0.082 C  
HETATM    7  C   UNL     1     -11.518   7.183  69.344  1.00  0.00     0.119 A  
HETATM    8  C   UNL     1     -10.095   6.155  70.862  1.00  0.00    -0.237 A  
HETATM    9  C   UNL     1      -9.413   2.987  68.804  1.00  0.00    -0.185 A  
HETATM   10  O   UNL     1      -6.196   5.778  67.927  1.00  0.00    -0.027 OA 
HETATM   11  C   UNL     1     -11.287   6.910  70.672  1.00  0.00    -0.366 A  
HETATM   12  C   UNL     1      -9.190   1.700  68.237  1.00  0.00    -0.219 A  
HETATM   13  S   UNL     1      -6.911   2.857  68.305  1.00  0.00    -0.049 SA 
HETATM   14  C   UNL     1      -7.871   1.509  67.902  1.00  0.00    -0.058 A  
HETATM   15  S   UNL     1     -10.333   6.490  68.329  1.00  0.00    -0.213 SA 
ENDROOT
BRANCH   6  16
HETATM   16  O   UNL     1      -7.342   7.421  68.966  1.00  0.00    -0.086 OA 
BRANCH  16  17
HETATM   17  C   UNL     1      -6.473   8.400  68.372  1.00  0.00    -0.059 C  
HETATM   18  N   UNL     1      -7.294  10.577  67.282  1.00  0.00    -0.089 N  
HETATM   19  C   UNL     1      -7.039   9.035  67.075  1.00  0.00    -0.079 C  
HETATM   20  C   UNL     1      -5.955  11.225  67.671  1.00  0.00    -0.051 C  
HETATM   21  C   UNL     1      -8.287  10.720  68.444  1.00  0.00    -0.132 C  
HETATM   22  C   UNL     1      -5.340  10.538  68.879  1.00  0.00    -0.041 C  
HETATM   23  C   UNL     1      -7.649  10.166  69.720  1.00  0.00    -0.175 C  
HETATM   24  C   UNL     1      -6.292   9.493  69.434  1.00  0.00    -0.043 C  
BRANCH  18  25
HETATM   25  C   UNL     1      -7.890  11.120  65.950  1.00  0.00     0.036 C  
BRANCH  25  26
HETATM   26  C   UNL     1      -9.367  10.819  65.649  1.00  0.00    -0.241 C  
BRANCH  26  27
HETATM   27  C   UNL     1      -9.604  10.137  64.309  1.00  0.00    -0.290 C  
BRANCH  27  28
HETATM   28  O   UNL     1     -10.098  11.035  63.325  1.00  0.00    -0.333 OA 
BRANCH  28  29
HETATM   29  C   UNL     1     -10.805  12.097  63.845  1.00  0.00    -0.406 A  
HETATM   30  C   UNL     1     -12.187  11.955  63.797  1.00  0.00    -0.549 A  
HETATM   31  C   UNL     1     -13.024  12.977  64.256  1.00  0.00     0.025 A  
HETATM   32  C   UNL     1     -12.478  14.143  64.788  1.00  0.00    -0.395 A  
HETATM   33  C   UNL     1     -11.100  14.282  64.875  1.00  0.00    -0.396 A  
HETATM   34  C   UNL     1     -10.265  13.262  64.411  1.00  0.00    -0.300 A  
ENDBRANCH  28  29
ENDBRANCH  27  28
ENDBRANCH  26  27
ENDBRANCH  25  26
ENDBRANCH  18  25
ENDBRANCH  16  17
ENDBRANCH   6  16
TORSDOF 7
ENDMDL
MODEL      183
REMARK 921   NORMALIZED FREE ENERGY PREDICTED BY IDOCK:   -2.92 KCAL/MOL
REMARK 922        TOTAL FREE ENERGY PREDICTED BY IDOCK:   -5.76 KCAL/MOL
REMARK 923 INTER-LIGAND FREE ENERGY PREDICTED BY IDOCK:   -5.45 KCAL/MOL
REMARK 924 INTRA-LIGAND FREE ENERGY PREDICTED BY IDOCK:   -0.31 KCAL/MOL
REMARK 927      BINDING AFFINITY PREDICTED BY RF-SCORE:    0.00 PKD
ROOT
HETATM    1  O   UNL     1      -9.781   4.908  66.637  1.00  0.00    -0.150 OA 
HETATM    2  C   UNL     1      -8.468   5.487  66.614  1.00  0.00    -0.112 C  
HETATM    3  H   UNL     1      -9.745   4.077  66.178  1.00  0.00     0.000 HD 
HETATM    4  C   UNL     1      -8.139   5.738  65.137  1.00  0.00    -0.133 A  
HETATM    5  C   UNL     1      -7.548   4.451  67.256  1.00  0.00    -0.081 A  
HETATM    6  C   UNL     1      -8.528   6.865  67.374  1.00  0.00    -0.121 C  
HETATM    7  C   UNL     1      -7.123   6.537  63.020  1.00  0.00    -0.050 A  
HETATM    8  C   UNL     1      -8.853   5.352  64.013  1.00  0.00     0.130 A  
HETATM    9  C   UNL     1      -6.730   3.516  66.634  1.00  0.00    -0.049 A  
HETATM   10  O   UNL     1      -8.293   7.090  68.555  1.00  0.00    -0.120 OA 
HETATM   11  C   UNL     1      -8.276   5.821  62.800  1.00  0.00    -0.096 A  
HETATM   12  C   UNL     1      -6.064   2.652  67.547  1.00  0.00    -0.027 A  
HETATM   13  S   UNL     1      -7.546   4.182  68.960  1.00  0.00    -0.054 SA 
HETATM   14  C   UNL     1      -6.404   2.922  68.850  1.00  0.00    -0.029 A  
HETATM   15  S   UNL     1      -6.711   6.601  64.676  1.00  0.00    -0.043 SA 
ENDROOT
BRANCH   6  16
HETATM   16  O   UNL     1      -8.971   7.869  66.549  1.00  0.00    -0.144 OA 
BRANCH  16  17
HETATM   17  C   UNL     1      -8.328   9.151  66.645  1.00  0.00    -0.122 C  
HETATM   18  N   UNL     1      -9.519  11.392  66.246  1.00  0.00    -0.202 N  
HETATM   19  C   UNL     1      -8.790  10.168  65.570  1.00  0.00    -0.169 C  
HETATM   20  C   UNL     1      -8.529  12.043  67.226  1.00  0.00    -0.175 C  
HETATM   21  C   UNL     1     -10.716  10.832  67.026  1.00  0.00    -0.265 C  
HETATM   22  C   UNL     1      -7.988  11.027  68.220  1.00  0.00    -0.124 C  
HETATM   23  C   UNL     1     -10.206   9.909  68.134  1.00  0.00    -0.210 C  
HETATM   24  C   UNL     1      -8.684   9.689  68.038  1.00  0.00    -0.119 C  
BRANCH  18  25
HETATM   25  C   UNL     1      -9.975  12.338  65.096  1.00  0.00    -0.215 C  
BRANCH  25  26
HETATM   26  C   UNL     1     -11.202  13.230  65.345  1.00  0.00    -0.306 C  
BRANCH  26  27
HETATM   27  C   UNL     1     -10.944  14.716  65.140  1.00  0.00    -0.386 C  
BRANCH  27  28
HETATM   28  O   UNL     1      -9.594  15.071  65.399  1.00  0.00    -0.267 OA 
BRANCH  28  29
HETATM   29  C   UNL     1      -9.453  16.221  66.146  1.00  0.00    -0.339 A  
HETATM   30  C   UNL     1     -10.590  16.599  66.851  1.00  0.00    -0.229 A  
HETATM   31  C   UNL     1     -10.595  17.768  67.617  1.00  0.00    -0.385 A  
HETATM   32  C   UNL     1      -9.449  18.557  67.701  1.00  0.00    -0.295 A  
HETATM   33  C   UNL     1      -8.296  18.170  67.032  1.00  0.00    -0.250 A  
HETATM   34  C   UNL     1      -8.294  17.004  66.261  1.00  0.00    -0.308 A  
ENDBRANCH  28  29
ENDBRANCH  27  28
ENDBRANCH  26  27
ENDBRANCH  25  26
ENDBRANCH  18  25
ENDBRANCH  16  17
ENDBRANCH   6  16
TORSDOF 7
ENDMDL
MODEL      184
REMARK 921   NORMALIZED FREE ENERGY PREDICTED BY IDOCK:   -2.87 KCAL/MOL
REMARK 922        TOTAL FREE ENERGY PREDICTED BY IDOCK:   -5.69 KCAL/MOL
REMARK 923 INTER-LIGAND FREE ENERGY PREDICTED BY IDOCK:   -4.96 KCAL/MOL
REMARK 924 INTRA-LIGAND FREE ENERGY PREDICTED BY IDOCK:   -0.73 KCAL/MOL
REMARK 927      BINDING AFFINITY PREDICTED BY RF-SCORE:    0.00 PKD
ROOT
HETATM    1  O   UNL     1     -12.783  13.851  67.715  1.00  0.00    -0.207 OA 
HETATM    2  C   UNL     1     -11.609  14.084  68.507  1.00  0.00    -0.322 C  
HETATM    3  H   UNL     1     -13.187  14.691  67.532  1.00  0.00     0.000 HD 
HETATM    4  C   UNL     1     -12.097  14.706  69.821  1.00  0.00    -0.324 A  
HETATM    5  C   UNL     1     -10.741  15.037  67.689  1.00  0.00    -0.274 A  
HETATM    6  C   UNL     1     -10.940  12.691  68.810  1.00  0.00    -0.249 C  
HETATM    7  C   UNL     1     -12.263  15.541  72.150  1.00  0.00    -0.404 A  
HETATM    8  C   UNL     1     -13.375  15.129  70.156  1.00  0.00     0.192 A  
HETATM    9  C   UNL     1     -10.626  16.417  67.804  1.00  0.00    -0.321 A  
HETATM   10  O   UNL     1     -10.053  12.123  68.183  1.00  0.00    -0.194 OA 
HETATM   11  C   UNL     1     -13.472  15.597  71.496  1.00  0.00    -0.502 A  
HETATM   12  C   UNL     1      -9.776  16.997  66.821  1.00  0.00    -0.276 A  
HETATM   13  S   UNL     1      -9.864  14.495  66.306  1.00  0.00    -0.317 SA 
HETATM   14  C   UNL     1      -9.278  16.055  65.954  1.00  0.00    -0.286 A  
HETATM   15  S   UNL     1     -11.009  14.975  71.139  1.00  0.00     0.097 SA 
ENDROOT
BRANCH   6  16
HETATM   16  O   UNL     1     -11.530  12.079  69.888  1.00  0.00    -0.253 OA 
BRANCH  16  17
HETATM   17  C   UNL     1     -12.198  10.825  69.666  1.00  0.00    -0.254 C  
HETATM   18  N   UNL     1     -11.582   8.637  70.863  1.00  0.00    -0.278 N  
HETATM   19  C   UNL     1     -11.247   9.600  69.660  1.00  0.00    -0.141 C  
HETATM   20  C   UNL     1     -13.046   8.194  70.713  1.00  0.00     0.399 C  
HETATM   21  C   UNL     1     -11.424   9.451  72.154  1.00  0.00     0.085 C  
HETATM   22  C   UNL     1     -13.977   9.391  70.611  1.00  0.00     0.437 C  
HETATM   23  C   UNL     1     -12.445  10.591  72.156  1.00  0.00     0.130 C  
HETATM   24  C   UNL     1     -13.202  10.682  70.818  1.00  0.00    -0.168 C  
BRANCH  18  25
HETATM   25  C   UNL     1     -10.562   7.461  70.798  1.00  0.00    -0.223 C  
BRANCH  25  26
HETATM   26  C   UNL     1     -10.098   6.840  72.125  1.00  0.00    -0.198 C  
BRANCH  26  27
HETATM   27  C   UNL     1     -10.949   5.669  72.596  1.00  0.00    -0.270 C  
BRANCH  27  28
HETATM   28  O   UNL     1     -10.170   4.633  73.177  1.00  0.00    -0.155 OA 
BRANCH  28  29
HETATM   29  C   UNL     1      -9.420   3.922  72.265  1.00  0.00    -0.128 A  
HETATM   30  C   UNL     1     -10.031   2.770  71.782  1.00  0.00    -0.183 A  
HETATM   31  C   UNL     1      -9.364   1.936  70.880  1.00  0.00    -0.191 A  
HETATM   32  C   UNL     1      -8.084   2.263  70.438  1.00  0.00    -0.055 A  
HETATM   33  C   UNL     1      -7.478   3.429  70.884  1.00  0.00    -0.037 A  
HETATM   34  C   UNL     1      -8.144   4.260  71.790  1.00  0.00    -0.092 A  
ENDBRANCH  28  29
ENDBRANCH  27  28
ENDBRANCH  26  27
ENDBRANCH  25  26
ENDBRANCH  18  25
ENDBRANCH  16  17
ENDBRANCH   6  16
TORSDOF 7
ENDMDL
MODEL      185
REMARK 921   NORMALIZED FREE ENERGY PREDICTED BY IDOCK:   -2.72 KCAL/MOL
REMARK 922        TOTAL FREE ENERGY PREDICTED BY IDOCK:   -5.49 KCAL/MOL
REMARK 923 INTER-LIGAND FREE ENERGY PREDICTED BY IDOCK:   -6.35 KCAL/MOL
REMARK 924 INTRA-LIGAND FREE ENERGY PREDICTED BY IDOCK:    0.86 KCAL/MOL
REMARK 927      BINDING AFFINITY PREDICTED BY RF-SCORE:    0.00 PKD
ROOT
HETATM    1  O   UNL     1      -8.419  12.433  67.295  1.00  0.00    -0.168 OA 
HETATM    2  C   UNL     1      -9.346  11.363  67.051  1.00  0.00    -0.174 C  
HETATM    3  H   UNL     1      -7.913  12.570  66.502  1.00  0.00     0.000 HD 
HETATM    4  C   UNL     1      -8.496  10.118  66.772  1.00  0.00    -0.126 A  
HETATM    5  C   UNL     1     -10.171  11.799  65.843  1.00  0.00    -0.237 A  
HETATM    6  C   UNL     1     -10.184  11.136  68.365  1.00  0.00    -0.188 C  
HETATM    7  C   UNL     1      -7.711   7.789  66.434  1.00  0.00    -0.093 A  
HETATM    8  C   UNL     1      -7.121  10.027  66.610  1.00  0.00    -0.091 A  
HETATM    9  C   UNL     1     -10.005  11.446  64.509  1.00  0.00    -0.318 A  
HETATM   10  O   UNL     1     -11.268  11.620  68.666  1.00  0.00    -0.209 OA 
HETATM   11  C   UNL     1      -6.671   8.689  66.428  1.00  0.00    -0.070 A  
HETATM   12  C   UNL     1     -10.915  12.103  63.633  1.00  0.00    -0.527 A  
HETATM   13  S   UNL     1     -11.394  13.009  65.976  1.00  0.00    -0.323 SA 
HETATM   14  C   UNL     1     -11.743  12.967  64.309  1.00  0.00    -0.386 A  
HETATM   15  S   UNL     1      -9.226   8.558  66.607  1.00  0.00    -0.191 SA 
ENDROOT
BRANCH   6  16
HETATM   16  O   UNL     1      -9.510  10.333  69.252  1.00  0.00    -0.198 OA 
BRANCH  16  17
HETATM   17  C   UNL     1      -9.928   8.962  69.369  1.00  0.00    -0.192 C  
HETATM   18  N   UNL     1      -9.612   7.538  71.484  1.00  0.00    -0.155 N  
HETATM   19  C   UNL     1      -8.938   8.069  70.161  1.00  0.00    -0.150 C  
HETATM   20  C   UNL     1     -10.866   6.744  71.083  1.00  0.00    -0.238 C  
HETATM   21  C   UNL     1     -10.026   8.765  72.307  1.00  0.00    -0.232 C  
HETATM   22  C   UNL     1     -11.795   7.579  70.216  1.00  0.00     0.022 C  
HETATM   23  C   UNL     1     -11.072   9.564  71.525  1.00  0.00    -0.406 C  
HETATM   24  C   UNL     1     -11.275   9.002  70.105  1.00  0.00    -0.191 C  
BRANCH  18  25
HETATM   25  C   UNL     1      -8.541   6.685  72.225  1.00  0.00    -0.121 C  
BRANCH  25  26
HETATM   26  C   UNL     1      -7.533   5.898  71.371  1.00  0.00    -0.096 C  
BRANCH  26  27
HETATM   27  C   UNL     1      -8.139   4.724  70.616  1.00  0.00    -0.081 C  
BRANCH  27  28
HETATM   28  O   UNL     1      -7.929   3.487  71.282  1.00  0.00    -0.058 OA 
BRANCH  28  29
HETATM   29  C   UNL     1      -8.969   3.113  72.105  1.00  0.00    -0.095 A  
HETATM   30  C   UNL     1      -9.643   1.965  71.705  1.00  0.00    -0.196 A  
HETATM   31  C   UNL     1     -10.744   1.497  72.429  1.00  0.00    -0.178 A  
HETATM   32  C   UNL     1     -11.164   2.168  73.576  1.00  0.00    -0.310 A  
HETATM   33  C   UNL     1     -10.477   3.295  74.006  1.00  0.00    -0.251 A  
HETATM   34  C   UNL     1      -9.380   3.764  73.278  1.00  0.00    -0.121 A  
ENDBRANCH  28  29
ENDBRANCH  27  28
ENDBRANCH  26  27
ENDBRANCH  25  26
ENDBRANCH  18  25
ENDBRANCH  16  17
ENDBRANCH   6  16
TORSDOF 7
ENDMDL
MODEL      186
REMARK 921   NORMALIZED FREE ENERGY PREDICTED BY IDOCK:   -2.71 KCAL/MOL
REMARK 922        TOTAL FREE ENERGY PREDICTED BY IDOCK:   -5.47 KCAL/MOL
REMARK 923 INTER-LIGAND FREE ENERGY PREDICTED BY IDOCK:   -4.60 KCAL/MOL
REMARK 924 INTRA-LIGAND FREE ENERGY PREDICTED BY IDOCK:   -0.88 KCAL/MOL
REMARK 927      BINDING AFFINITY PREDICTED BY RF-SCORE:    0.00 PKD
ROOT
HETATM    1  O   UNL     1      -9.410  17.384  68.764  1.00  0.00    -0.277 OA 
HETATM    2  C   UNL     1      -8.648  17.674  67.582  1.00  0.00    -0.224 C  
HETATM    3  H   UNL     1      -9.658  18.209  69.165  1.00  0.00     0.000 HD 
HETATM    4  C   UNL     1      -7.387  18.406  68.057  1.00  0.00    -0.247 A  
HETATM    5  C   UNL     1      -9.549  18.552  66.716  1.00  0.00    -0.321 A  
HETATM    6  C   UNL     1      -8.237  16.307  66.919  1.00  0.00    -0.226 C  
HETATM    7  C   UNL     1      -5.133  19.432  68.199  1.00  0.00    -0.175 A  
HETATM    8  C   UNL     1      -7.079  18.863  69.329  1.00  0.00    -0.243 A  
HETATM    9  C   UNL     1      -9.549  19.935  66.593  1.00  0.00    -0.527 A  
HETATM   10  O   UNL     1      -8.821  15.684  66.040  1.00  0.00    -0.318 OA 
HETATM   11  C   UNL     1      -5.781  19.441  69.413  1.00  0.00    -0.260 A  
HETATM   12  C   UNL     1     -10.584  20.427  65.748  1.00  0.00    -0.051 A  
HETATM   13  S   UNL     1     -10.890  17.891  65.853  1.00  0.00     0.249 SA 
HETATM   14  C   UNL     1     -11.373  19.413  65.261  1.00  0.00     1.194 A  
HETATM   15  S   UNL     1      -6.104  18.776  66.957  1.00  0.00    -0.165 SA 
ENDROOT
BRANCH   6  16
HETATM   16  O   UNL     1      -7.107  15.790  67.504  1.00  0.00    -0.150 OA 
BRANCH  16  17
HETATM   17  C   UNL     1      -7.275  14.923  68.638  1.00  0.00    -0.117 C  
HETATM   18  N   UNL     1      -7.132  12.360  68.524  1.00  0.00    -0.094 N  
HETATM   19  C   UNL     1      -8.057  13.621  68.323  1.00  0.00    -0.155 C  
HETATM   20  C   UNL     1      -6.642  12.367  69.981  1.00  0.00     0.205 C  
HETATM   21  C   UNL     1      -5.932  12.524  67.581  1.00  0.00    -0.136 C  
HETATM   22  C   UNL     1      -5.967  13.683  70.331  1.00  0.00    -0.148 C  
HETATM   23  C   UNL     1      -5.139  13.768  67.990  1.00  0.00    -0.101 C  
HETATM   24  C   UNL     1      -5.855  14.563  69.098  1.00  0.00    -0.092 C  
BRANCH  18  25
HETATM   25  C   UNL     1      -7.985  11.111  68.155  1.00  0.00    -0.125 C  
BRANCH  25  26
HETATM   26  C   UNL     1      -9.272  11.335  67.344  1.00  0.00    -0.164 C  
BRANCH  26  27
HETATM   27  C   UNL     1     -10.490  10.607  67.895  1.00  0.00    -0.208 C  
BRANCH  27  28
HETATM   28  O   UNL     1     -10.623   9.297  67.364  1.00  0.00    -0.272 OA 
BRANCH  28  29
HETATM   29  C   UNL     1     -10.584   8.302  68.317  1.00  0.00    -0.103 A  
HETATM   30  C   UNL     1     -10.437   7.016  67.810  1.00  0.00    -0.282 A  
HETATM   31  C   UNL     1     -10.422   5.911  68.666  1.00  0.00    -0.302 A  
HETATM   32  C   UNL     1     -10.532   6.090  70.043  1.00  0.00    -0.313 A  
HETATM   33  C   UNL     1     -10.643   7.372  70.565  1.00  0.00    -0.234 A  
HETATM   34  C   UNL     1     -10.663   8.475  69.707  1.00  0.00    -0.213 A  
ENDBRANCH  28  29
ENDBRANCH  27  28
ENDBRANCH  26  27
ENDBRANCH  25  26
ENDBRANCH  18  25
ENDBRANCH  16  17
ENDBRANCH   6  16
TORSDOF 7
ENDMDL
MODEL      187
REMARK 921   NORMALIZED FREE ENERGY PREDICTED BY IDOCK:   -2.70 KCAL/MOL
REMARK 922        TOTAL FREE ENERGY PREDICTED BY IDOCK:   -5.45 KCAL/MOL
REMARK 923 INTER-LIGAND FREE ENERGY PREDICTED BY IDOCK:   -4.01 KCAL/MOL
REMARK 924 INTRA-LIGAND FREE ENERGY PREDICTED BY IDOCK:   -1.44 KCAL/MOL
REMARK 927      BINDING AFFINITY PREDICTED BY RF-SCORE:    0.00 PKD
ROOT
HETATM    1  O   UNL     1      -9.551  16.133  68.911  1.00  0.00    -0.222 OA 
HETATM    2  C   UNL     1      -8.291  16.306  68.244  1.00  0.00    -0.185 C  
HETATM    3  H   UNL     1      -9.518  16.609  69.732  1.00  0.00     0.000 HD 
HETATM    4  C   UNL     1      -7.236  15.670  69.156  1.00  0.00    -0.178 A  
HETATM    5  C   UNL     1      -8.109  17.815  68.092  1.00  0.00    -0.265 A  
HETATM    6  C   UNL     1      -8.347  15.516  66.883  1.00  0.00    -0.255 C  
HETATM    7  C   UNL     1      -5.152  14.678  70.066  1.00  0.00    -0.093 A  
HETATM    8  C   UNL     1      -7.389  15.169  70.440  1.00  0.00     0.493 A  
HETATM    9  C   UNL     1      -7.371  18.681  68.889  1.00  0.00    -0.301 A  
HETATM   10  O   UNL     1      -8.663  15.934  65.776  1.00  0.00    -0.192 OA 
HETATM   11  C   UNL     1      -6.196  14.589  70.957  1.00  0.00     0.016 A  
HETATM   12  C   UNL     1      -7.486  20.045  68.497  1.00  0.00    -0.237 A  
HETATM   13  S   UNL     1      -9.004  18.717  66.925  1.00  0.00    -0.307 SA 
HETATM   14  C   UNL     1      -8.330  20.200  67.424  1.00  0.00    -0.338 A  
HETATM   15  S   UNL     1      -5.594  15.499  68.636  1.00  0.00    -0.096 SA 
ENDROOT
BRANCH   6  16
HETATM   16  O   UNL     1      -8.052  14.187  67.067  1.00  0.00    -0.147 OA 
BRANCH  16  17
HETATM   17  C   UNL     1      -9.133  13.242  66.989  1.00  0.00    -0.232 C  
HETATM   18  N   UNL     1      -8.872  10.824  66.161  1.00  0.00    -0.171 N  
HETATM   19  C   UNL     1      -9.078  12.329  65.737  1.00  0.00     0.122 C  
HETATM   20  C   UNL     1     -10.043  10.431  67.075  1.00  0.00    -0.215 C  
HETATM   21  C   UNL     1      -7.559  10.752  66.954  1.00  0.00    -0.123 C  
HETATM   22  C   UNL     1     -10.171  11.387  68.250  1.00  0.00    -0.204 C  
HETATM   23  C   UNL     1      -7.694  11.593  68.225  1.00  0.00    -0.128 C  
HETATM   24  C   UNL     1      -9.020  12.379  68.252  1.00  0.00    -0.178 C  
BRANCH  18  25
HETATM   25  C   UNL     1      -8.795   9.991  64.848  1.00  0.00    -0.192 C  
BRANCH  25  26
HETATM   26  C   UNL     1      -9.027   8.474  64.946  1.00  0.00     0.061 C  
BRANCH  26  27
HETATM   27  C   UNL     1      -8.004   7.636  64.191  1.00  0.00    -0.105 C  
BRANCH  27  28
HETATM   28  O   UNL     1      -6.773   7.527  64.891  1.00  0.00    -0.046 OA 
BRANCH  28  29
HETATM   29  C   UNL     1      -6.720   6.461  65.763  1.00  0.00    -0.048 A  
HETATM   30  C   UNL     1      -6.300   6.783  67.049  1.00  0.00    -0.041 A  
HETATM   31  C   UNL     1      -6.164   5.789  68.023  1.00  0.00    -0.039 A  
HETATM   32  C   UNL     1      -6.472   4.464  67.719  1.00  0.00    -0.038 A  
HETATM   33  C   UNL     1      -6.927   4.136  66.449  1.00  0.00    -0.059 A  
HETATM   34  C   UNL     1      -7.057   5.130  65.476  1.00  0.00    -0.067 A  
ENDBRANCH  28  29
ENDBRANCH  27  28
ENDBRANCH  26  27
ENDBRANCH  25  26
ENDBRANCH  18  25
ENDBRANCH  16  17
ENDBRANCH   6  16
TORSDOF 7
ENDMDL
MODEL      188
REMARK 921   NORMALIZED FREE ENERGY PREDICTED BY IDOCK:   -2.68 KCAL/MOL
REMARK 922        TOTAL FREE ENERGY PREDICTED BY IDOCK:   -5.43 KCAL/MOL
REMARK 923 INTER-LIGAND FREE ENERGY PREDICTED BY IDOCK:   -4.51 KCAL/MOL
REMARK 924 INTRA-LIGAND FREE ENERGY PREDICTED BY IDOCK:   -0.91 KCAL/MOL
REMARK 927      BINDING AFFINITY PREDICTED BY RF-SCORE:    0.00 PKD
ROOT
HETATM    1  O   UNL     1     -11.048  15.984  67.879  1.00  0.00    -0.338 OA 
HETATM    2  C   UNL     1     -10.829  14.855  68.738  1.00  0.00    -0.252 C  
HETATM    3  H   UNL     1     -11.968  16.000  67.642  1.00  0.00     0.000 HD 
HETATM    4  C   UNL     1     -11.157  13.613  67.901  1.00  0.00    -0.261 A  
HETATM    5  C   UNL     1     -11.782  15.042  69.917  1.00  0.00    -0.307 A  
HETATM    6  C   UNL     1      -9.304  14.829  69.131  1.00  0.00    -0.101 C  
HETATM    7  C   UNL     1     -11.351  11.291  67.049  1.00  0.00    -0.187 A  
HETATM    8  C   UNL     1     -11.712  13.545  66.633  1.00  0.00    -0.425 A  
HETATM    9  C   UNL     1     -13.031  14.468  70.119  1.00  0.00    -0.048 A  
HETATM   10  O   UNL     1      -8.767  15.319  70.117  1.00  0.00     0.126 OA 
HETATM   11  C   UNL     1     -11.812  12.214  66.139  1.00  0.00    -0.327 A  
HETATM   12  C   UNL     1     -13.680  14.928  71.300  1.00  0.00    -0.505 A  
HETATM   13  S   UNL     1     -11.473  16.210  71.149  1.00  0.00    -0.289 SA 
HETATM   14  C   UNL     1     -12.927  15.865  71.966  1.00  0.00    -0.378 A  
HETATM   15  S   UNL     1     -10.847  12.022  68.508  1.00  0.00    -0.245 SA 
ENDROOT
BRANCH   6  16
HETATM   16  O   UNL     1      -8.551  14.219  68.158  1.00  0.00    -0.156 OA 
BRANCH  16  17
HETATM   17  C   UNL     1      -7.210  13.824  68.497  1.00  0.00    -0.108 C  
HETATM   18  N   UNL     1      -6.547  11.443  69.198  1.00  0.00    -0.085 N  
HETATM   19  C   UNL     1      -7.130  12.826  69.681  1.00  0.00     0.395 C  
HETATM   20  C   UNL     1      -5.152  11.705  68.607  1.00  0.00    -0.046 C  
HETATM   21  C   UNL     1      -7.478  10.918  68.097  1.00  0.00    -0.091 C  
HETATM   22  C   UNL     1      -5.204  12.762  67.516  1.00  0.00    -0.072 C  
HETATM   23  C   UNL     1      -7.451  11.887  66.913  1.00  0.00    -0.079 C  
HETATM   24  C   UNL     1      -6.644  13.160  67.234  1.00  0.00     0.042 C  
BRANCH  18  25
HETATM   25  C   UNL     1      -6.535  10.500  70.437  1.00  0.00    -0.117 C  
BRANCH  25  26
HETATM   26  C   UNL     1      -5.801   9.156  70.309  1.00  0.00    -0.035 C  
BRANCH  26  27
HETATM   27  C   UNL     1      -6.588   8.083  69.569  1.00  0.00    -0.038 C  
BRANCH  27  28
HETATM   28  O   UNL     1      -5.898   7.598  68.426  1.00  0.00    -0.029 OA 
BRANCH  28  29
HETATM   29  C   UNL     1      -6.724   7.276  67.371  1.00  0.00    -0.068 A  
HETATM   30  C   UNL     1      -8.048   7.669  67.529  1.00  0.00    -0.120 A  
HETATM   31  C   UNL     1      -9.001   7.370  66.551  1.00  0.00    -0.184 A  
HETATM   32  C   UNL     1      -8.626   6.692  65.392  1.00  0.00    -0.065 A  
HETATM   33  C   UNL     1      -7.300   6.327  65.206  1.00  0.00    -0.077 A  
HETATM   34  C   UNL     1      -6.350   6.622  66.188  1.00  0.00    -0.042 A  
ENDBRANCH  28  29
ENDBRANCH  27  28
ENDBRANCH  26  27
ENDBRANCH  25  26
ENDBRANCH  18  25
ENDBRANCH  16  17
ENDBRANCH   6  16
TORSDOF 7
ENDMDL
MODEL      189
REMARK 921   NORMALIZED FREE ENERGY PREDICTED BY IDOCK:   -2.56 KCAL/MOL
REMARK 922        TOTAL FREE ENERGY PREDICTED BY IDOCK:   -5.25 KCAL/MOL
REMARK 923 INTER-LIGAND FREE ENERGY PREDICTED BY IDOCK:   -4.29 KCAL/MOL
REMARK 924 INTRA-LIGAND FREE ENERGY PREDICTED BY IDOCK:   -0.96 KCAL/MOL
REMARK 927      BINDING AFFINITY PREDICTED BY RF-SCORE:    0.00 PKD
ROOT
HETATM    1  O   UNL     1     -11.767  15.324  67.287  1.00  0.00    -0.244 OA 
HETATM    2  C   UNL     1     -10.665  15.386  68.205  1.00  0.00    -0.260 C  
HETATM    3  H   UNL     1     -12.382  16.010  67.518  1.00  0.00     0.000 HD 
HETATM    4  C   UNL     1     -11.249  15.096  69.593  1.00  0.00    -0.272 A  
HETATM    5  C   UNL     1     -10.106  16.803  68.084  1.00  0.00    -0.282 A  
HETATM    6  C   UNL     1      -9.645  14.249  67.823  1.00  0.00    -0.221 C  
HETATM    7  C   UNL     1     -11.539  14.531  71.991  1.00  0.00     0.280 A  
HETATM    8  C   UNL     1     -12.579  14.961  69.961  1.00  0.00    -0.260 A  
HETATM    9  C   UNL     1     -10.351  17.901  68.898  1.00  0.00    -0.272 A  
HETATM   10  O   UNL     1      -8.666  14.324  67.091  1.00  0.00    -0.208 OA 
HETATM   11  C   UNL     1     -12.744  14.625  71.334  1.00  0.00    -0.403 A  
HETATM   12  C   UNL     1      -9.719  19.093  68.443  1.00  0.00    -0.451 A  
HETATM   13  S   UNL     1      -9.171  17.288  66.718  1.00  0.00    -0.264 SA 
HETATM   14  C   UNL     1      -9.025  18.891  67.275  1.00  0.00    -0.280 A  
HETATM   15  S   UNL     1     -10.220  14.895  70.969  1.00  0.00     1.429 SA 
ENDROOT
BRANCH   6  16
HETATM   16  O   UNL     1     -10.015  13.045  68.369  1.00  0.00    -0.231 OA 
BRANCH  16  17
HETATM   17  C   UNL     1      -9.581  11.845  67.707  1.00  0.00    -0.190 C  
HETATM   18  N   UNL     1      -8.666   9.778  68.929  1.00  0.00    -0.129 N  
HETATM   19  C   UNL     1      -8.321  11.200  68.340  1.00  0.00    -0.149 C  
HETATM   20  C   UNL     1      -9.206   8.913  67.778  1.00  0.00    -0.141 C  
HETATM   21  C   UNL     1      -9.769   9.978  69.978  1.00  0.00    -0.175 C  
HETATM   22  C   UNL     1     -10.376   9.588  67.082  1.00  0.00    -0.320 C  
HETATM   23  C   UNL     1     -11.021  10.528  69.291  1.00  0.00    -0.291 C  
HETATM   24  C   UNL     1     -10.759  10.866  67.811  1.00  0.00    -0.279 C  
BRANCH  18  25
HETATM   25  C   UNL     1      -7.359   9.225  69.569  1.00  0.00    -0.070 C  
BRANCH  25  26
HETATM   26  C   UNL     1      -6.879   7.832  69.130  1.00  0.00    -0.049 C  
BRANCH  26  27
HETATM   27  C   UNL     1      -6.008   7.120  70.156  1.00  0.00    -0.024 C  
BRANCH  27  28
HETATM   28  O   UNL     1      -6.502   5.828  70.481  1.00  0.00    -0.033 OA 
BRANCH  28  29
HETATM   29  C   UNL     1      -6.873   5.689  71.800  1.00  0.00    -0.067 A  
HETATM   30  C   UNL     1      -8.153   6.145  72.095  1.00  0.00    -0.110 A  
HETATM   31  C   UNL     1      -8.640   6.098  73.405  1.00  0.00    -0.122 A  
HETATM   32  C   UNL     1      -7.854   5.570  74.427  1.00  0.00    -0.101 A  
HETATM   33  C   UNL     1      -6.588   5.078  74.138  1.00  0.00    -0.070 A  
HETATM   34  C   UNL     1      -6.100   5.130  72.830  1.00  0.00    -0.027 A  
ENDBRANCH  28  29
ENDBRANCH  27  28
ENDBRANCH  26  27
ENDBRANCH  25  26
ENDBRANCH  18  25
ENDBRANCH  16  17
ENDBRANCH   6  16
TORSDOF 7
ENDMDL
MODEL      190
REMARK 921   NORMALIZED FREE ENERGY PREDICTED BY IDOCK:   -2.48 KCAL/MOL
REMARK 922        TOTAL FREE ENERGY PREDICTED BY IDOCK:   -5.15 KCAL/MOL
REMARK 923 INTER-LIGAND FREE ENERGY PREDICTED BY IDOCK:   -4.40 KCAL/MOL
REMARK 924 INTRA-LIGAND FREE ENERGY PREDICTED BY IDOCK:   -0.75 KCAL/MOL
REMARK 927      BINDING AFFINITY PREDICTED BY RF-SCORE:    0.00 PKD
ROOT
HETATM    1  O   UNL     1      -8.100  11.322  65.659  1.00  0.00    -0.366 OA 
HETATM    2  C   UNL     1      -8.003  11.164  67.083  1.00  0.00    -0.139 C  
HETATM    3  H   UNL     1      -8.487  12.171  65.482  1.00  0.00     0.000 HD 
HETATM    4  C   UNL     1      -9.442  11.185  67.613  1.00  0.00    -0.166 A  
HETATM    5  C   UNL     1      -7.175  12.350  67.574  1.00  0.00    -0.145 A  
HETATM    6  C   UNL     1      -7.363   9.756  67.376  1.00  0.00    -0.090 C  
HETATM    7  C   UNL     1     -11.471  10.961  69.022  1.00  0.00    -0.302 A  
HETATM    8  C   UNL     1     -10.614  11.463  66.925  1.00  0.00    -0.292 A  
HETATM    9  C   UNL     1      -7.619  13.547  68.121  1.00  0.00    -0.138 A  
HETATM   10  O   UNL     1      -6.182   9.483  67.555  1.00  0.00    -0.056 OA 
HETATM   11  C   UNL     1     -11.778  11.322  67.731  1.00  0.00    -0.254 A  
HETATM   12  C   UNL     1      -6.567  14.465  68.400  1.00  0.00    -0.104 A  
HETATM   13  S   UNL     1      -5.469  12.419  67.330  1.00  0.00    -0.087 SA 
HETATM   14  C   UNL     1      -5.341  13.964  68.036  1.00  0.00    -0.106 A  
HETATM   15  S   UNL     1      -9.786  10.841  69.273  1.00  0.00    -0.076 SA 
ENDROOT
BRANCH   6  16
HETATM   16  O   UNL     1      -8.310   8.762  67.343  1.00  0.00    -0.108 OA 
BRANCH  16  17
HETATM   17  C   UNL     1      -7.864   7.404  67.496  1.00  0.00    -0.112 C  
HETATM   18  N   UNL     1      -9.134   5.615  68.833  1.00  0.00    -0.114 N  
HETATM   19  C   UNL     1      -8.116   6.816  68.909  1.00  0.00    -0.120 C  
HETATM   20  C   UNL     1      -8.536   4.553  67.896  1.00  0.00    -0.102 C  
HETATM   21  C   UNL     1     -10.433   6.160  68.223  1.00  0.00    -0.232 C  
HETATM   22  C   UNL     1      -8.186   5.146  66.541  1.00  0.00    -0.108 C  
HETATM   23  C   UNL     1     -10.155   6.642  66.798  1.00  0.00    -0.240 C  
HETATM   24  C   UNL     1      -8.652   6.590  66.461  1.00  0.00    -0.123 C  
BRANCH  18  25
HETATM   25  C   UNL     1      -9.351   5.114  70.291  1.00  0.00    -0.156 C  
BRANCH  25  26
HETATM   26  C   UNL     1      -9.477   3.598  70.517  1.00  0.00    -0.255 C  
BRANCH  26  27
HETATM   27  C   UNL     1     -10.224   3.216  71.787  1.00  0.00     0.065 C  
BRANCH  27  28
HETATM   28  O   UNL     1      -9.847   4.019  72.898  1.00  0.00    -0.128 OA 
BRANCH  28  29
HETATM   29  C   UNL     1      -8.551   3.815  73.318  1.00  0.00    -0.090 A  
HETATM   30  C   UNL     1      -8.004   4.866  74.045  1.00  0.00    -0.101 A  
HETATM   31  C   UNL     1      -6.682   4.806  74.499  1.00  0.00    -0.067 A  
HETATM   32  C   UNL     1      -5.906   3.677  74.245  1.00  0.00    -0.011 A  
HETATM   33  C   UNL     1      -6.452   2.606  73.553  1.00  0.00    -0.021 A  
HETATM   34  C   UNL     1      -7.771   2.670  73.095  1.00  0.00    -0.050 A  
ENDBRANCH  28  29
ENDBRANCH  27  28
ENDBRANCH  26  27
ENDBRANCH  25  26
ENDBRANCH  18  25
ENDBRANCH  16  17
ENDBRANCH   6  16
TORSDOF 7
ENDMDL
MODEL      191
REMARK 921   NORMALIZED FREE ENERGY PREDICTED BY IDOCK:   -2.33 KCAL/MOL
REMARK 922        TOTAL FREE ENERGY PREDICTED BY IDOCK:   -4.93 KCAL/MOL
REMARK 923 INTER-LIGAND FREE ENERGY PREDICTED BY IDOCK:   -5.57 KCAL/MOL
REMARK 924 INTRA-LIGAND FREE ENERGY PREDICTED BY IDOCK:    0.64 KCAL/MOL
REMARK 927      BINDING AFFINITY PREDICTED BY RF-SCORE:    0.00 PKD
ROOT
HETATM    1  O   UNL     1      -9.782  15.052  68.666  1.00  0.00    -0.204 OA 
HETATM    2  C   UNL     1      -8.998  15.791  67.717  1.00  0.00    -0.176 C  
HETATM    3  H   UNL     1      -9.794  15.539  69.482  1.00  0.00     0.000 HD 
HETATM    4  C   UNL     1      -7.578  15.851  68.292  1.00  0.00    -0.135 A  
HETATM    5  C   UNL     1      -9.655  17.167  67.622  1.00  0.00    -0.254 A  
HETATM    6  C   UNL     1      -8.979  14.983  66.366  1.00  0.00    -0.251 C  
HETATM    7  C   UNL     1      -5.130  16.129  68.583  1.00  0.00    -0.097 A  
HETATM    8  C   UNL     1      -7.130  15.440  69.538  1.00  0.00    -0.200 A  
HETATM    9  C   UNL     1      -9.292  18.345  68.262  1.00  0.00    -0.342 A  
HETATM   10  O   UNL     1      -9.727  15.099  65.403  1.00  0.00    -0.316 OA 
HETATM   11  C   UNL     1      -5.724  15.588  69.700  1.00  0.00    -0.119 A  
HETATM   12  C   UNL     1     -10.180  19.427  68.000  1.00  0.00    -0.531 A  
HETATM   13  S   UNL     1     -11.142  17.398  66.778  1.00  0.00     0.568 SA 
HETATM   14  C   UNL     1     -11.220  19.050  67.186  1.00  0.00     0.172 A  
HETATM   15  S   UNL     1      -6.268  16.501  67.366  1.00  0.00    -0.174 SA 
ENDROOT
BRANCH   6  16
HETATM   16  O   UNL     1      -8.013  14.008  66.384  1.00  0.00     0.679 OA 
BRANCH  16  17
HETATM   17  C   UNL     1      -8.076  13.018  67.425  1.00  0.00    -0.180 C  
HETATM   18  N   UNL     1      -9.579  10.936  67.339  1.00  0.00    -0.163 N  
HETATM   19  C   UNL     1      -9.505  12.473  67.685  1.00  0.00    -0.188 C  
HETATM   20  C   UNL     1      -8.546  10.209  68.216  1.00  0.00    -0.116 C  
HETATM   21  C   UNL     1      -9.192  10.784  65.862  1.00  0.00    -0.190 C  
HETATM   22  C   UNL     1      -7.159  10.808  68.047  1.00  0.00    -0.081 C  
HETATM   23  C   UNL     1      -7.746  11.247  65.672  1.00  0.00     0.302 C  
HETATM   24  C   UNL     1      -7.171  11.869  66.959  1.00  0.00    -0.118 C  
BRANCH  18  25
HETATM   25  C   UNL     1     -11.047  10.486  67.597  1.00  0.00    -0.309 C  
BRANCH  25  26
HETATM   26  C   UNL     1     -12.115  11.580  67.761  1.00  0.00     0.113 C  
BRANCH  26  27
HETATM   27  C   UNL     1     -12.219  12.143  69.171  1.00  0.00    -0.032 C  
BRANCH  27  28
HETATM   28  O   UNL     1     -12.069  13.556  69.202  1.00  0.00    -0.329 OA 
BRANCH  28  29
HETATM   29  C   UNL     1     -12.350  14.120  70.427  1.00  0.00    -0.359 A  
HETATM   30  C   UNL     1     -12.921  13.251  71.350  1.00  0.00    -0.398 A  
HETATM   31  C   UNL     1     -13.292  13.704  72.619  1.00  0.00    -0.587 A  
HETATM   32  C   UNL     1     -13.070  15.031  72.981  1.00  0.00    -0.604 A  
HETATM   33  C   UNL     1     -12.467  15.900  72.082  1.00  0.00    -0.540 A  
HETATM   34  C   UNL     1     -12.102  15.446  70.811  1.00  0.00    -0.413 A  
ENDBRANCH  28  29
ENDBRANCH  27  28
ENDBRANCH  26  27
ENDBRANCH  25  26
ENDBRANCH  18  25
ENDBRANCH  16  17
ENDBRANCH   6  16
TORSDOF 7
ENDMDL
MODEL      192
REMARK 921   NORMALIZED FREE ENERGY PREDICTED BY IDOCK:   -2.23 KCAL/MOL
REMARK 922        TOTAL FREE ENERGY PREDICTED BY IDOCK:   -4.79 KCAL/MOL
REMARK 923 INTER-LIGAND FREE ENERGY PREDICTED BY IDOCK:   -4.08 KCAL/MOL
REMARK 924 INTRA-LIGAND FREE ENERGY PREDICTED BY IDOCK:   -0.72 KCAL/MOL
REMARK 927      BINDING AFFINITY PREDICTED BY RF-SCORE:    0.00 PKD
ROOT
HETATM    1  O   UNL     1      -7.254   5.392  68.852  1.00  0.00    -0.063 OA 
HETATM    2  C   UNL     1      -8.239   4.348  68.812  1.00  0.00    -0.080 C  
HETATM    3  H   UNL     1      -6.414   5.013  68.619  1.00  0.00     0.000 HD 
HETATM    4  C   UNL     1      -7.827   3.332  69.885  1.00  0.00    -0.046 A  
HETATM    5  C   UNL     1      -8.175   3.773  67.399  1.00  0.00    -0.090 A  
HETATM    6  C   UNL     1      -9.631   4.975  69.199  1.00  0.00    -0.154 C  
HETATM    7  C   UNL     1      -7.799   1.474  71.528  1.00  0.00    -0.040 A  
HETATM    8  C   UNL     1      -6.667   3.297  70.644  1.00  0.00    -0.033 A  
HETATM    9  C   UNL     1      -7.510   2.637  66.956  1.00  0.00    -0.069 A  
HETATM   10  O   UNL     1     -10.494   5.423  68.453  1.00  0.00    -0.178 OA 
HETATM   11  C   UNL     1      -6.657   2.238  71.594  1.00  0.00    -0.019 A  
HETATM   12  C   UNL     1      -7.603   2.440  65.550  1.00  0.00    -0.072 A  
HETATM   13  S   UNL     1      -8.830   4.627  66.050  1.00  0.00    -0.125 SA 
HETATM   14  C   UNL     1      -8.316   3.443  64.938  1.00  0.00    -0.094 A  
HETATM   15  S   UNL     1      -8.854   2.001  70.293  1.00  0.00    -0.079 SA 
ENDROOT
BRANCH   6  16
HETATM   16  O   UNL     1      -9.782   5.049  70.562  1.00  0.00    -0.173 OA 
BRANCH  16  17
HETATM   17  C   UNL     1      -9.357   6.253  71.221  1.00  0.00    -0.156 C  
HETATM   18  N   UNL     1      -9.969   8.619  70.428  1.00  0.00    -0.182 N  
HETATM   19  C   UNL     1      -8.982   7.402  70.249  1.00  0.00    -0.147 C  
HETATM   20  C   UNL     1      -9.874   9.086  71.890  1.00  0.00    -0.213 C  
HETATM   21  C   UNL     1     -11.385   8.100  70.148  1.00  0.00    -0.071 C  
HETATM   22  C   UNL     1     -10.135   7.940  72.853  1.00  0.00    -0.376 C  
HETATM   23  C   UNL     1     -11.744   7.037  71.189  1.00  0.00    -0.366 C  
HETATM   24  C   UNL     1     -10.544   6.691  72.090  1.00  0.00    -0.238 C  
BRANCH  18  25
HETATM   25  C   UNL     1      -9.541   9.703  69.395  1.00  0.00    -0.191 C  
BRANCH  25  26
HETATM   26  C   UNL     1      -9.527   9.312  67.909  1.00  0.00    -0.154 C  
BRANCH  26  27
HETATM   27  C   UNL     1      -8.419   9.972  67.100  1.00  0.00    -0.125 C  
BRANCH  27  28
HETATM   28  O   UNL     1      -7.250   9.168  67.027  1.00  0.00    -0.088 OA 
BRANCH  28  29
HETATM   29  C   UNL     1      -7.107   8.500  65.831  1.00  0.00    -0.076 A  
HETATM   30  C   UNL     1      -5.811   8.080  65.552  1.00  0.00    -0.037 A  
HETATM   31  C   UNL     1      -5.519   7.424  64.352  1.00  0.00    -0.033 A  
HETATM   32  C   UNL     1      -6.532   7.163  63.431  1.00  0.00    -0.045 A  
HETATM   33  C   UNL     1      -7.836   7.544  63.716  1.00  0.00    -0.112 A  
HETATM   34  C   UNL     1      -8.126   8.205  64.913  1.00  0.00    -0.153 A  
ENDBRANCH  28  29
ENDBRANCH  27  28
ENDBRANCH  26  27
ENDBRANCH  25  26
ENDBRANCH  18  25
ENDBRANCH  16  17
ENDBRANCH   6  16
TORSDOF 7
ENDMDL
MODEL      193
REMARK 921   NORMALIZED FREE ENERGY PREDICTED BY IDOCK:   -2.20 KCAL/MOL
REMARK 922        TOTAL FREE ENERGY PREDICTED BY IDOCK:   -4.75 KCAL/MOL
REMARK 923 INTER-LIGAND FREE ENERGY PREDICTED BY IDOCK:   -5.31 KCAL/MOL
REMARK 924 INTRA-LIGAND FREE ENERGY PREDICTED BY IDOCK:    0.56 KCAL/MOL
REMARK 927      BINDING AFFINITY PREDICTED BY RF-SCORE:    0.00 PKD
ROOT
HETATM    1  O   UNL     1     -10.539  12.960  70.449  1.00  0.00     1.046 OA 
HETATM    2  C   UNL     1     -11.965  13.029  70.299  1.00  0.00    -0.285 C  
HETATM    3  H   UNL     1     -10.347  12.785  71.363  1.00  0.00     0.000 HD 
HETATM    4  C   UNL     1     -12.426  14.219  71.149  1.00  0.00    -0.362 A  
HETATM    5  C   UNL     1     -12.500  11.694  70.813  1.00  0.00    -0.330 A  
HETATM    6  C   UNL     1     -12.283  13.319  68.784  1.00  0.00    -0.089 C  
HETATM    7  C   UNL     1     -13.737  16.070  72.155  1.00  0.00     0.019 A  
HETATM    8  C   UNL     1     -11.685  14.994  72.029  1.00  0.00    -0.447 A  
HETATM    9  C   UNL     1     -13.030  11.398  72.062  1.00  0.00    -0.378 A  
HETATM   10  O   UNL     1     -12.517  12.514  67.891  1.00  0.00    -0.068 OA 
HETATM   11  C   UNL     1     -12.434  16.062  72.596  1.00  0.00    -0.572 A  
HETATM   12  C   UNL     1     -13.361  10.023  72.223  1.00  0.00    -0.387 A  
HETATM   13  S   UNL     1     -12.338  10.245  69.891  1.00  0.00     0.075 SA 
HETATM   14  C   UNL     1     -13.054   9.287  71.104  1.00  0.00    -0.190 A  
HETATM   15  S   UNL     1     -14.067  14.767  71.102  1.00  0.00    -0.146 SA 
ENDROOT
BRANCH   6  16
HETATM   16  O   UNL     1     -12.202  14.662  68.507  1.00  0.00    -0.230 OA 
BRANCH  16  17
HETATM   17  C   UNL     1     -10.913  15.200  68.166  1.00  0.00    -0.287 C  
HETATM   18  N   UNL     1      -9.094  13.891  66.910  1.00  0.00    -0.248 N  
HETATM   19  C   UNL     1      -9.750  14.186  68.313  1.00  0.00    -0.227 C  
HETATM   20  C   UNL     1      -8.588  15.226  66.340  1.00  0.00    -0.162 C  
HETATM   21  C   UNL     1     -10.199  13.334  66.001  1.00  0.00    -0.291 C  
HETATM   22  C   UNL     1      -9.699  16.262  66.291  1.00  0.00    -0.329 C  
HETATM   23  C   UNL     1     -11.277  14.403  65.810  1.00  0.00    -0.326 C  
HETATM   24  C   UNL     1     -11.023  15.636  66.698  1.00  0.00    -0.212 C  
BRANCH  18  25
HETATM   25  C   UNL     1      -7.966  12.844  67.149  1.00  0.00    -0.099 C  
BRANCH  25  26
HETATM   26  C   UNL     1      -8.033  11.525  66.361  1.00  0.00    -0.046 C  
BRANCH  26  27
HETATM   27  C   UNL     1      -7.490  10.320  67.115  1.00  0.00    -0.092 C  
BRANCH  27  28
HETATM   28  O   UNL     1      -8.459   9.739  67.976  1.00  0.00    -0.117 OA 
BRANCH  28  29
HETATM   29  C   UNL     1      -7.923   9.135  69.092  1.00  0.00    -0.097 A  
HETATM   30  C   UNL     1      -8.529   9.490  70.292  1.00  0.00    -0.237 A  
HETATM   31  C   UNL     1      -8.057   8.980  71.506  1.00  0.00    -0.047 A  
HETATM   32  C   UNL     1      -6.985   8.090  71.522  1.00  0.00    -0.060 A  
HETATM   33  C   UNL     1      -6.395   7.699  70.328  1.00  0.00    -0.034 A  
HETATM   34  C   UNL     1      -6.865   8.214  69.116  1.00  0.00    -0.055 A  
ENDBRANCH  28  29
ENDBRANCH  27  28
ENDBRANCH  26  27
ENDBRANCH  25  26
ENDBRANCH  18  25
ENDBRANCH  16  17
ENDBRANCH   6  16
TORSDOF 7
ENDMDL
MODEL      194
REMARK 921   NORMALIZED FREE ENERGY PREDICTED BY IDOCK:   -2.18 KCAL/MOL
REMARK 922        TOTAL FREE ENERGY PREDICTED BY IDOCK:   -4.73 KCAL/MOL
REMARK 923 INTER-LIGAND FREE ENERGY PREDICTED BY IDOCK:   -4.90 KCAL/MOL
REMARK 924 INTRA-LIGAND FREE ENERGY PREDICTED BY IDOCK:    0.18 KCAL/MOL
REMARK 927      BINDING AFFINITY PREDICTED BY RF-SCORE:    0.00 PKD
ROOT
HETATM    1  O   UNL     1      -9.430  17.380  68.759  1.00  0.00    -0.278 OA 
HETATM    2  C   UNL     1      -8.678  17.703  67.580  1.00  0.00    -0.234 C  
HETATM    3  H   UNL     1      -9.658  18.193  69.195  1.00  0.00     0.000 HD 
HETATM    4  C   UNL     1      -7.398  18.394  68.065  1.00  0.00    -0.247 A  
HETATM    5  C   UNL     1      -9.574  18.627  66.759  1.00  0.00    -0.318 A  
HETATM    6  C   UNL     1      -8.298  16.355  66.859  1.00  0.00    -0.228 C  
HETATM    7  C   UNL     1      -5.126  19.376  68.217  1.00  0.00    -0.176 A  
HETATM    8  C   UNL     1      -7.066  18.797  69.350  1.00  0.00    -0.139 A  
HETATM    9  C   UNL     1      -9.552  20.015  66.688  1.00  0.00    -0.548 A  
HETATM   10  O   UNL     1      -8.905  15.776  65.965  1.00  0.00    -0.327 OA 
HETATM   11  C   UNL     1      -5.758  19.349  69.438  1.00  0.00    -0.260 A  
HETATM   12  C   UNL     1     -10.588  20.556  65.876  1.00  0.00     0.191 A  
HETATM   13  S   UNL     1     -10.936  18.023  65.890  1.00  0.00     0.494 SA 
HETATM   14  C   UNL     1     -11.401  19.575  65.362  1.00  0.00     0.943 A  
HETATM   15  S   UNL     1      -6.123  18.784  66.963  1.00  0.00    -0.165 SA 
ENDROOT
BRANCH   6  16
HETATM   16  O   UNL     1      -7.171  15.797  67.409  1.00  0.00    -0.165 OA 
BRANCH  16  17
HETATM   17  C   UNL     1      -7.341  14.873  68.497  1.00  0.00    -0.119 C  
HETATM   18  N   UNL     1      -7.274  12.317  68.238  1.00  0.00    -0.093 N  
HETATM   19  C   UNL     1      -8.166  13.613  68.128  1.00  0.00    -0.158 C  
HETATM   20  C   UNL     1      -6.755  12.228  69.683  1.00  0.00     0.052 C  
HETATM   21  C   UNL     1      -6.088  12.501  67.281  1.00  0.00    -0.117 C  
HETATM   22  C   UNL     1      -6.036  13.504  70.091  1.00  0.00    -0.123 C  
HETATM   23  C   UNL     1      -5.253  13.697  67.740  1.00  0.00    -0.033 C  
HETATM   24  C   UNL     1      -5.923  14.449  68.906  1.00  0.00    -0.086 C  
BRANCH  18  25
HETATM   25  C   UNL     1      -8.169  11.115  67.818  1.00  0.00    -0.119 C  
BRANCH  25  26
HETATM   26  C   UNL     1      -9.287  11.375  66.796  1.00  0.00    -0.192 C  
BRANCH  26  27
HETATM   27  C   UNL     1     -10.159  12.581  67.118  1.00  0.00    -0.214 C  
BRANCH  27  28
HETATM   28  O   UNL     1     -11.503  12.218  67.398  1.00  0.00    -0.308 OA 
BRANCH  28  29
HETATM   29  C   UNL     1     -11.929  12.582  68.656  1.00  0.00    -0.224 A  
HETATM   30  C   UNL     1     -12.259  11.519  69.489  1.00  0.00    -0.287 A  
HETATM   31  C   UNL     1     -12.742  11.750  70.780  1.00  0.00    -0.256 A  
HETATM   32  C   UNL     1     -12.878  13.053  71.255  1.00  0.00    -0.370 A  
HETATM   33  C   UNL     1     -12.517  14.122  70.447  1.00  0.00    -0.424 A  
HETATM   34  C   UNL     1     -12.039  13.889  69.154  1.00  0.00    -0.377 A  
ENDBRANCH  28  29
ENDBRANCH  27  28
ENDBRANCH  26  27
ENDBRANCH  25  26
ENDBRANCH  18  25
ENDBRANCH  16  17
ENDBRANCH   6  16
TORSDOF 7
ENDMDL
MODEL      195
REMARK 921   NORMALIZED FREE ENERGY PREDICTED BY IDOCK:   -2.18 KCAL/MOL
REMARK 922        TOTAL FREE ENERGY PREDICTED BY IDOCK:   -4.72 KCAL/MOL
REMARK 923 INTER-LIGAND FREE ENERGY PREDICTED BY IDOCK:   -3.81 KCAL/MOL
REMARK 924 INTRA-LIGAND FREE ENERGY PREDICTED BY IDOCK:   -0.91 KCAL/MOL
REMARK 927      BINDING AFFINITY PREDICTED BY RF-SCORE:    0.00 PKD
ROOT
HETATM    1  O   UNL     1      -9.410  17.384  68.764  1.00  0.00    -0.277 OA 
HETATM    2  C   UNL     1      -8.648  17.674  67.582  1.00  0.00    -0.224 C  
HETATM    3  H   UNL     1      -9.658  18.209  69.165  1.00  0.00     0.000 HD 
HETATM    4  C   UNL     1      -7.387  18.406  68.057  1.00  0.00    -0.247 A  
HETATM    5  C   UNL     1      -9.549  18.552  66.716  1.00  0.00    -0.321 A  
HETATM    6  C   UNL     1      -8.237  16.307  66.919  1.00  0.00    -0.226 C  
HETATM    7  C   UNL     1      -5.133  19.432  68.199  1.00  0.00    -0.175 A  
HETATM    8  C   UNL     1      -7.079  18.863  69.329  1.00  0.00    -0.243 A  
HETATM    9  C   UNL     1      -9.549  19.935  66.593  1.00  0.00    -0.527 A  
HETATM   10  O   UNL     1      -8.821  15.684  66.040  1.00  0.00    -0.318 OA 
HETATM   11  C   UNL     1      -5.781  19.441  69.413  1.00  0.00    -0.260 A  
HETATM   12  C   UNL     1     -10.584  20.427  65.748  1.00  0.00    -0.051 A  
HETATM   13  S   UNL     1     -10.890  17.891  65.853  1.00  0.00     0.249 SA 
HETATM   14  C   UNL     1     -11.373  19.413  65.261  1.00  0.00     1.194 A  
HETATM   15  S   UNL     1      -6.104  18.776  66.957  1.00  0.00    -0.165 SA 
ENDROOT
BRANCH   6  16
HETATM   16  O   UNL     1      -7.107  15.790  67.504  1.00  0.00    -0.150 OA 
BRANCH  16  17
HETATM   17  C   UNL     1      -7.275  14.923  68.638  1.00  0.00    -0.117 C  
HETATM   18  N   UNL     1      -7.132  12.360  68.524  1.00  0.00    -0.094 N  
HETATM   19  C   UNL     1      -8.057  13.621  68.323  1.00  0.00    -0.155 C  
HETATM   20  C   UNL     1      -6.642  12.367  69.981  1.00  0.00     0.205 C  
HETATM   21  C   UNL     1      -5.932  12.524  67.581  1.00  0.00    -0.136 C  
HETATM   22  C   UNL     1      -5.967  13.683  70.331  1.00  0.00    -0.148 C  
HETATM   23  C   UNL     1      -5.139  13.768  67.990  1.00  0.00    -0.101 C  
HETATM   24  C   UNL     1      -5.855  14.563  69.098  1.00  0.00    -0.092 C  
BRANCH  18  25
HETATM   25  C   UNL     1      -7.985  11.111  68.155  1.00  0.00    -0.125 C  
BRANCH  25  26
HETATM   26  C   UNL     1      -9.272  11.335  67.344  1.00  0.00    -0.164 C  
BRANCH  26  27
HETATM   27  C   UNL     1      -9.864  10.065  66.750  1.00  0.00    -0.198 C  
BRANCH  27  28
HETATM   28  O   UNL     1      -9.342   9.776  65.461  1.00  0.00    -0.201 OA 
BRANCH  28  29
HETATM   29  C   UNL     1      -8.691   8.564  65.382  1.00  0.00    -0.159 A  
HETATM   30  C   UNL     1      -8.915   7.713  66.458  1.00  0.00    -0.187 A  
HETATM   31  C   UNL     1      -8.284   6.467  66.523  1.00  0.00    -0.113 A  
HETATM   32  C   UNL     1      -7.439   6.055  65.493  1.00  0.00    -0.082 A  
HETATM   33  C   UNL     1      -7.237   6.881  64.396  1.00  0.00    -0.067 A  
HETATM   34  C   UNL     1      -7.864   8.129  64.336  1.00  0.00    -0.136 A  
ENDBRANCH  28  29
ENDBRANCH  27  28
ENDBRANCH  26  27
ENDBRANCH  25  26
ENDBRANCH  18  25
ENDBRANCH  16  17
ENDBRANCH   6  16
TORSDOF 7
ENDMDL
MODEL      196
REMARK 921   NORMALIZED FREE ENERGY PREDICTED BY IDOCK:   -2.15 KCAL/MOL
REMARK 922        TOTAL FREE ENERGY PREDICTED BY IDOCK:   -4.68 KCAL/MOL
REMARK 923 INTER-LIGAND FREE ENERGY PREDICTED BY IDOCK:   -4.55 KCAL/MOL
REMARK 924 INTRA-LIGAND FREE ENERGY PREDICTED BY IDOCK:   -0.13 KCAL/MOL
REMARK 927      BINDING AFFINITY PREDICTED BY RF-SCORE:    0.00 PKD
ROOT
HETATM    1  O   UNL     1      -8.842   8.347  72.935  1.00  0.00    -0.235 OA 
HETATM    2  C   UNL     1      -9.492   7.514  71.963  1.00  0.00    -0.140 C  
HETATM    3  H   UNL     1      -9.379   8.361  73.718  1.00  0.00     0.000 HD 
HETATM    4  C   UNL     1     -10.830   8.193  71.646  1.00  0.00    -0.249 A  
HETATM    5  C   UNL     1      -9.663   6.154  72.634  1.00  0.00    -0.156 A  
HETATM    6  C   UNL     1      -8.601   7.493  70.664  1.00  0.00    -0.137 C  
HETATM    7  C   UNL     1     -12.976   8.869  70.602  1.00  0.00     0.446 A  
HETATM    8  C   UNL     1     -11.412   9.290  72.264  1.00  0.00     0.053 A  
HETATM    9  C   UNL     1     -10.787   5.636  73.265  1.00  0.00    -0.321 A  
HETATM   10  O   UNL     1      -7.734   6.685  70.353  1.00  0.00    -0.094 OA 
HETATM   11  C   UNL     1     -12.636   9.685  71.657  1.00  0.00    -0.493 A  
HETATM   12  C   UNL     1     -10.568   4.357  73.851  1.00  0.00    -0.326 A  
HETATM   13  S   UNL     1      -8.328   5.084  72.856  1.00  0.00    -0.108 SA 
HETATM   14  C   UNL     1      -9.273   3.931  73.681  1.00  0.00    -0.096 A  
HETATM   15  S   UNL     1     -11.849   7.606  70.378  1.00  0.00     0.103 SA 
ENDROOT
BRANCH   6  16
HETATM   16  O   UNL     1      -8.849   8.588  69.873  1.00  0.00    -0.133 OA 
BRANCH  16  17
HETATM   17  C   UNL     1      -8.148   8.684  68.621  1.00  0.00    -0.117 C  
HETATM   18  N   UNL     1      -8.837  10.249  66.704  1.00  0.00    -0.136 N  
HETATM   19  C   UNL     1      -9.079   8.851  67.392  1.00  0.00    -0.132 C  
HETATM   20  C   UNL     1      -7.359  10.315  66.285  1.00  0.00    -0.118 C  
HETATM   21  C   UNL     1      -9.117  11.328  67.759  1.00  0.00    -0.152 C  
HETATM   22  C   UNL     1      -6.439  10.045  67.464  1.00  0.00    -0.067 C  
HETATM   23  C   UNL     1      -8.115  11.181  68.906  1.00  0.00    -0.115 C  
HETATM   24  C   UNL     1      -7.245   9.919  68.746  1.00  0.00    -0.076 C  
BRANCH  18  25
HETATM   25  C   UNL     1      -9.831  10.343  65.510  1.00  0.00    -0.269 C  
BRANCH  25  26
HETATM   26  C   UNL     1      -9.975  11.700  64.801  1.00  0.00    -0.292 C  
BRANCH  26  27
HETATM   27  C   UNL     1     -10.119  12.885  65.746  1.00  0.00    -0.287 C  
BRANCH  27  28
HETATM   28  O   UNL     1      -9.048  13.809  65.621  1.00  0.00     0.287 OA 
BRANCH  28  29
HETATM   29  C   UNL     1      -9.437  15.128  65.709  1.00  0.00    -0.250 A  
HETATM   30  C   UNL     1     -10.753  15.372  65.336  1.00  0.00    -0.416 A  
HETATM   31  C   UNL     1     -11.265  16.673  65.341  1.00  0.00     0.162 A  
HETATM   32  C   UNL     1     -10.463  17.739  65.744  1.00  0.00    -0.199 A  
HETATM   33  C   UNL     1      -9.158  17.504  66.154  1.00  0.00    -0.157 A  
HETATM   34  C   UNL     1      -8.647  16.203  66.143  1.00  0.00    -0.331 A  
ENDBRANCH  28  29
ENDBRANCH  27  28
ENDBRANCH  26  27
ENDBRANCH  25  26
ENDBRANCH  18  25
ENDBRANCH  16  17
ENDBRANCH   6  16
TORSDOF 7
ENDMDL
MODEL      197
REMARK 921   NORMALIZED FREE ENERGY PREDICTED BY IDOCK:   -2.03 KCAL/MOL
REMARK 922        TOTAL FREE ENERGY PREDICTED BY IDOCK:   -4.50 KCAL/MOL
REMARK 923 INTER-LIGAND FREE ENERGY PREDICTED BY IDOCK:   -4.70 KCAL/MOL
REMARK 924 INTRA-LIGAND FREE ENERGY PREDICTED BY IDOCK:    0.19 KCAL/MOL
REMARK 927      BINDING AFFINITY PREDICTED BY RF-SCORE:    0.00 PKD
ROOT
HETATM    1  O   UNL     1      -8.301  11.043  66.919  1.00  0.00    -0.129 OA 
HETATM    2  C   UNL     1      -8.200  11.406  68.304  1.00  0.00    -0.150 C  
HETATM    3  H   UNL     1      -7.439  10.777  66.620  1.00  0.00     0.000 HD 
HETATM    4  C   UNL     1      -7.252  12.609  68.362  1.00  0.00    -0.111 A  
HETATM    5  C   UNL     1      -7.637  10.175  69.013  1.00  0.00    -0.096 A  
HETATM    6  C   UNL     1      -9.629  11.846  68.798  1.00  0.00    -0.012 C  
HETATM    7  C   UNL     1      -5.986  14.619  69.076  1.00  0.00    -0.089 A  
HETATM    8  C   UNL     1      -6.494  13.164  67.341  1.00  0.00    -0.079 A  
HETATM    9  C   UNL     1      -6.323   9.915  69.381  1.00  0.00    -0.045 A  
HETATM   10  O   UNL     1     -10.489  11.161  69.338  1.00  0.00    -0.191 OA 
HETATM   11  C   UNL     1      -5.777  14.324  67.749  1.00  0.00    -0.069 A  
HETATM   12  C   UNL     1      -6.144   8.627  69.961  1.00  0.00    -0.030 A  
HETATM   13  S   UNL     1      -8.611   8.782  69.309  1.00  0.00    -0.132 SA 
HETATM   14  C   UNL     1      -7.318   7.915  70.001  1.00  0.00    -0.070 A  
HETATM   15  S   UNL     1      -7.000  13.476  69.838  1.00  0.00     0.508 SA 
ENDROOT
BRANCH   6  16
HETATM   16  O   UNL     1      -9.880  13.159  68.486  1.00  0.00    -0.218 OA 
BRANCH  16  17
HETATM   17  C   UNL     1      -9.888  14.115  69.560  1.00  0.00     0.448 C  
HETATM   18  N   UNL     1     -10.790  16.511  69.346  1.00  0.00    -0.316 N  
HETATM   19  C   UNL     1      -9.552  15.562  69.114  1.00  0.00    -0.253 C  
HETATM   20  C   UNL     1     -11.140  16.466  70.842  1.00  0.00    -0.039 C  
HETATM   21  C   UNL     1     -11.958  15.941  68.531  1.00  0.00    -0.039 C  
HETATM   22  C   UNL     1     -11.367  15.039  71.313  1.00  0.00    -0.315 C  
HETATM   23  C   UNL     1     -12.313  14.552  69.067  1.00  0.00    -0.122 C  
HETATM   24  C   UNL     1     -11.310  14.079  70.136  1.00  0.00    -0.109 C  
BRANCH  18  25
HETATM   25  C   UNL     1     -10.375  17.925  68.842  1.00  0.00    -0.268 C  
BRANCH  25  26
HETATM   26  C   UNL     1      -9.700  18.027  67.465  1.00  0.00    -0.289 C  
BRANCH  26  27
HETATM   27  C   UNL     1     -10.576  17.573  66.306  1.00  0.00    -0.198 C  
BRANCH  27  28
HETATM   28  O   UNL     1      -9.868  16.764  65.377  1.00  0.00    -0.547 OA 
BRANCH  28  29
HETATM   29  C   UNL     1     -10.446  15.532  65.157  1.00  0.00    -0.403 A  
HETATM   30  C   UNL     1     -11.430  15.519  64.174  1.00  0.00    -0.063 A  
HETATM   31  C   UNL     1     -12.124  14.342  63.878  1.00  0.00    -0.190 A  
HETATM   32  C   UNL     1     -11.819  13.161  64.552  1.00  0.00    -0.427 A  
HETATM   33  C   UNL     1     -10.813  13.153  65.509  1.00  0.00    -0.299 A  
HETATM   34  C   UNL     1     -10.124  14.332  65.807  1.00  0.00    -0.356 A  
ENDBRANCH  28  29
ENDBRANCH  27  28
ENDBRANCH  26  27
ENDBRANCH  25  26
ENDBRANCH  18  25
ENDBRANCH  16  17
ENDBRANCH   6  16
TORSDOF 7
ENDMDL
MODEL      198
REMARK 921   NORMALIZED FREE ENERGY PREDICTED BY IDOCK:   -1.92 KCAL/MOL
REMARK 922        TOTAL FREE ENERGY PREDICTED BY IDOCK:   -4.36 KCAL/MOL
REMARK 923 INTER-LIGAND FREE ENERGY PREDICTED BY IDOCK:   -3.57 KCAL/MOL
REMARK 924 INTRA-LIGAND FREE ENERGY PREDICTED BY IDOCK:   -0.79 KCAL/MOL
REMARK 927      BINDING AFFINITY PREDICTED BY RF-SCORE:    0.00 PKD
ROOT
HETATM    1  O   UNL     1      -6.929   5.503  68.808  1.00  0.00    -0.057 OA 
HETATM    2  C   UNL     1      -7.939   5.390  67.793  1.00  0.00    -0.100 C  
HETATM    3  H   UNL     1      -6.125   5.129  68.465  1.00  0.00     0.000 HD 
HETATM    4  C   UNL     1      -8.139   3.889  67.556  1.00  0.00    -0.090 A  
HETATM    5  C   UNL     1      -7.378   6.112  66.570  1.00  0.00    -0.081 A  
HETATM    6  C   UNL     1      -9.271   6.008  68.361  1.00  0.00    -0.114 C  
HETATM    7  C   UNL     1      -9.030   1.678  66.867  1.00  0.00    -0.109 A  
HETATM    8  C   UNL     1      -7.407   2.826  68.065  1.00  0.00    -0.052 A  
HETATM    9  C   UNL     1      -6.745   5.569  65.460  1.00  0.00    -0.041 A  
HETATM   10  O   UNL     1      -9.687   7.155  68.241  1.00  0.00    -0.142 OA 
HETATM   11  C   UNL     1      -7.926   1.559  67.679  1.00  0.00    -0.059 A  
HETATM   12  C   UNL     1      -6.279   6.549  64.539  1.00  0.00    -0.037 A  
HETATM   13  S   UNL     1      -7.304   7.835  66.497  1.00  0.00    -0.089 SA 
HETATM   14  C   UNL     1      -6.540   7.826  64.974  1.00  0.00    -0.047 A  
HETATM   15  S   UNL     1      -9.408   3.309  66.532  1.00  0.00    -0.078 SA 
ENDROOT
BRANCH   6  16
HETATM   16  O   UNL     1      -9.956   5.096  69.126  1.00  0.00    -0.173 OA 
BRANCH  16  17
HETATM   17  C   UNL     1      -9.639   5.021  70.526  1.00  0.00    -0.185 C  
HETATM   18  N   UNL     1      -9.552   7.056  72.092  1.00  0.00    -0.147 N  
HETATM   19  C   UNL     1      -8.761   6.194  71.035  1.00  0.00    -0.132 C  
HETATM   20  C   UNL     1      -9.949   6.126  73.251  1.00  0.00    -0.181 C  
HETATM   21  C   UNL     1     -10.818   7.576  71.398  1.00  0.00    -0.229 C  
HETATM   22  C   UNL     1     -10.719   4.916  72.748  1.00  0.00    -0.289 C  
HETATM   23  C   UNL     1     -11.695   6.387  70.999  1.00  0.00    -0.358 C  
HETATM   24  C   UNL     1     -10.988   5.043  71.258  1.00  0.00     0.120 C  
BRANCH  18  25
HETATM   25  C   UNL     1      -8.612   8.222  72.519  1.00  0.00    -0.208 C  
BRANCH  25  26
HETATM   26  C   UNL     1      -7.168   8.209  71.991  1.00  0.00    -0.099 C  
BRANCH  26  27
HETATM   27  C   UNL     1      -6.560   9.592  71.805  1.00  0.00     0.300 C  
BRANCH  27  28
HETATM   28  O   UNL     1      -6.065   9.792  70.488  1.00  0.00    -0.059 OA 
BRANCH  28  29
HETATM   29  C   UNL     1      -6.719  10.786  69.792  1.00  0.00    -0.139 A  
HETATM   30  C   UNL     1      -7.970  10.426  69.304  1.00  0.00    -0.157 A  
HETATM   31  C   UNL     1      -8.724  11.327  68.546  1.00  0.00    -0.156 A  
HETATM   32  C   UNL     1      -8.237  12.608  68.292  1.00  0.00    -0.164 A  
HETATM   33  C   UNL     1      -7.006  12.992  68.806  1.00  0.00    -0.103 A  
HETATM   34  C   UNL     1      -6.251  12.087  69.558  1.00  0.00    -0.117 A  
ENDBRANCH  28  29
ENDBRANCH  27  28
ENDBRANCH  26  27
ENDBRANCH  25  26
ENDBRANCH  18  25
ENDBRANCH  16  17
ENDBRANCH   6  16
TORSDOF 7
ENDMDL
MODEL      199
REMARK 921   NORMALIZED FREE ENERGY PREDICTED BY IDOCK:   -1.91 KCAL/MOL
REMARK 922        TOTAL FREE ENERGY PREDICTED BY IDOCK:   -4.35 KCAL/MOL
REMARK 923 INTER-LIGAND FREE ENERGY PREDICTED BY IDOCK:   -3.26 KCAL/MOL
REMARK 924 INTRA-LIGAND FREE ENERGY PREDICTED BY IDOCK:   -1.09 KCAL/MOL
REMARK 927      BINDING AFFINITY PREDICTED BY RF-SCORE:    0.00 PKD
ROOT
HETATM    1  O   UNL     1      -7.364  11.209  65.298  1.00  0.00    -0.332 OA 
HETATM    2  C   UNL     1      -7.359  10.944  66.709  1.00  0.00    -0.134 C  
HETATM    3  H   UNL     1      -7.885  11.989  65.146  1.00  0.00     0.000 HD 
HETATM    4  C   UNL     1      -8.816  10.661  67.094  1.00  0.00    -0.137 A  
HETATM    5  C   UNL     1      -6.809  12.208  67.364  1.00  0.00    -0.147 A  
HETATM    6  C   UNL     1      -6.496   9.651  66.959  1.00  0.00    -0.066 C  
HETATM    7  C   UNL     1     -10.879   9.955  68.277  1.00  0.00    -0.230 A  
HETATM    8  C   UNL     1      -9.958  10.787  66.317  1.00  0.00    -0.272 A  
HETATM    9  C   UNL     1      -7.511  13.254  67.952  1.00  0.00    -0.143 A  
HETATM   10  O   UNL     1      -5.304   9.577  67.233  1.00  0.00    -0.036 OA 
HETATM   11  C   UNL     1     -11.139  10.370  66.992  1.00  0.00    -0.141 A  
HETATM   12  C   UNL     1      -6.674  14.315  68.399  1.00  0.00    -0.104 A  
HETATM   13  S   UNL     1      -5.130  12.601  67.296  1.00  0.00     0.107 SA 
HETATM   14  C   UNL     1      -5.350  14.075  68.122  1.00  0.00    -0.120 A  
HETATM   15  S   UNL     1      -9.228  10.113  68.683  1.00  0.00    -0.165 SA 
ENDROOT
BRANCH   6  16
HETATM   16  O   UNL     1      -7.237   8.512  66.761  1.00  0.00    -0.073 OA 
BRANCH  16  17
HETATM   17  C   UNL     1      -6.599   7.401  66.108  1.00  0.00    -0.049 C  
HETATM   18  N   UNL     1      -6.314   5.079  67.171  1.00  0.00    -0.035 N  
HETATM   19  C   UNL     1      -5.723   6.537  67.053  1.00  0.00    -0.013 C  
HETATM   20  C   UNL     1      -6.356   4.476  65.758  1.00  0.00    -0.036 C  
HETATM   21  C   UNL     1      -7.744   5.212  67.712  1.00  0.00    -0.088 C  
HETATM   22  C   UNL     1      -7.123   5.370  64.798  1.00  0.00    -0.054 C  
HETATM   23  C   UNL     1      -8.592   5.990  66.704  1.00  0.00    -0.113 C  
HETATM   24  C   UNL     1      -7.739   6.541  65.545  1.00  0.00    -0.097 C  
BRANCH  18  25
HETATM   25  C   UNL     1      -5.397   4.299  68.158  1.00  0.00    -0.012 C  
BRANCH  25  26
HETATM   26  C   UNL     1      -5.734   2.826  68.439  1.00  0.00    -0.023 C  
BRANCH  26  27
HETATM   27  C   UNL     1      -6.619   2.610  69.659  1.00  0.00    -0.033 C  
BRANCH  27  28
HETATM   28  O   UNL     1      -6.270   3.465  70.738  1.00  0.00    -0.018 OA 
BRANCH  28  29
HETATM   29  C   UNL     1      -7.326   4.202  71.230  1.00  0.00    -0.044 A  
HETATM   30  C   UNL     1      -7.051   5.551  71.428  1.00  0.00    -0.071 A  
HETATM   31  C   UNL     1      -8.023   6.404  71.959  1.00  0.00    -0.108 A  
HETATM   32  C   UNL     1      -9.288   5.914  72.276  1.00  0.00    -0.152 A  
HETATM   33  C   UNL     1      -9.586   4.577  72.049  1.00  0.00    -0.209 A  
HETATM   34  C   UNL     1      -8.612   3.724  71.523  1.00  0.00    -0.112 A  
ENDBRANCH  28  29
ENDBRANCH  27  28
ENDBRANCH  26  27
ENDBRANCH  25  26
ENDBRANCH  18  25
ENDBRANCH  16  17
ENDBRANCH   6  16
TORSDOF 7
ENDMDL
MODEL      200
REMARK 921   NORMALIZED FREE ENERGY PREDICTED BY IDOCK:   -1.61 KCAL/MOL
REMARK 922        TOTAL FREE ENERGY PREDICTED BY IDOCK:   -3.92 KCAL/MOL
REMARK 923 INTER-LIGAND FREE ENERGY PREDICTED BY IDOCK:   -2.82 KCAL/MOL
REMARK 924 INTRA-LIGAND FREE ENERGY PREDICTED BY IDOCK:   -1.10 KCAL/MOL
REMARK 927      BINDING AFFINITY PREDICTED BY RF-SCORE:    0.00 PKD
ROOT
HETATM    1  O   UNL     1     -11.569   8.267  67.173  1.00  0.00     0.765 OA 
HETATM    2  C   UNL     1     -10.614   9.086  67.866  1.00  0.00    -0.196 C  
HETATM    3  H   UNL     1     -12.437   8.601  67.365  1.00  0.00     0.000 HD 
HETATM    4  C   UNL     1     -10.906   8.909  69.360  1.00  0.00    -0.119 A  
HETATM    5  C   UNL     1     -10.864  10.512  67.379  1.00  0.00    -0.291 A  
HETATM    6  C   UNL     1      -9.175   8.531  67.548  1.00  0.00    -0.133 C  
HETATM    7  C   UNL     1     -10.760   8.899  71.837  1.00  0.00    -0.356 A  
HETATM    8  C   UNL     1     -11.962   8.243  69.963  1.00  0.00     0.571 A  
HETATM    9  C   UNL     1     -11.598  11.518  67.993  1.00  0.00    -0.370 A  
HETATM   10  O   UNL     1      -8.404   8.885  66.664  1.00  0.00    -0.109 OA 
HETATM   11  C   UNL     1     -11.872   8.228  71.384  1.00  0.00    -0.330 A  
HETATM   12  C   UNL     1     -11.685  12.708  67.216  1.00  0.00    -0.435 A  
HETATM   13  S   UNL     1     -10.369  11.028  65.809  1.00  0.00    -0.242 SA 
HETATM   14  C   UNL     1     -11.038  12.582  66.011  1.00  0.00    -0.294 A  
HETATM   15  S   UNL     1      -9.858   9.586  70.559  1.00  0.00    -0.241 SA 
ENDROOT
BRANCH   6  16
HETATM   16  O   UNL     1      -8.853   7.481  68.373  1.00  0.00    -0.127 OA 
BRANCH  16  17
HETATM   17  C   UNL     1      -7.462   7.161  68.540  1.00  0.00    -0.106 C  
HETATM   18  N   UNL     1      -6.078   7.796  70.609  1.00  0.00    -0.034 N  
HETATM   19  C   UNL     1      -6.635   8.285  69.218  1.00  0.00    -0.039 C  
HETATM   20  C   UNL     1      -5.208   6.554  70.354  1.00  0.00    -0.014 C  
HETATM   21  C   UNL     1      -7.287   7.405  71.470  1.00  0.00    -0.079 C  
HETATM   22  C   UNL     1      -5.979   5.486  69.595  1.00  0.00    -0.017 C  
HETATM   23  C   UNL     1      -8.015   6.233  70.809  1.00  0.00    -0.112 C  
HETATM   24  C   UNL     1      -7.430   5.905  69.422  1.00  0.00    -0.087 C  
BRANCH  18  25
HETATM   25  C   UNL     1      -5.296   8.992  71.228  1.00  0.00    -0.040 C  
BRANCH  25  26
HETATM   26  C   UNL     1      -5.745  10.414  70.852  1.00  0.00    -0.082 C  
BRANCH  26  27
HETATM   27  C   UNL     1      -5.229  11.498  71.787  1.00  0.00     0.148 C  
BRANCH  27  28
HETATM   28  O   UNL     1      -5.832  12.760  71.537  1.00  0.00    -0.315 OA 
BRANCH  28  29
HETATM   29  C   UNL     1      -6.099  12.996  70.206  1.00  0.00    -0.071 A  
HETATM   30  C   UNL     1      -5.138  13.752  69.546  1.00  0.00    -0.083 A  
HETATM   31  C   UNL     1      -5.304  14.098  68.201  1.00  0.00    -0.120 A  
HETATM   32  C   UNL     1      -6.430  13.666  67.501  1.00  0.00    -0.100 A  
HETATM   33  C   UNL     1      -7.379  12.879  68.139  1.00  0.00    -0.119 A  
HETATM   34  C   UNL     1      -7.213  12.540  69.485  1.00  0.00     0.359 A  
ENDBRANCH  28  29
ENDBRANCH  27  28
ENDBRANCH  26  27
ENDBRANCH  25  26
ENDBRANCH  18  25
ENDBRANCH  16  17
ENDBRANCH   6  16
TORSDOF 7
ENDMDL
MODEL      201
REMARK 921   NORMALIZED FREE ENERGY PREDICTED BY IDOCK:   -1.27 KCAL/MOL
REMARK 922        TOTAL FREE ENERGY PREDICTED BY IDOCK:   -3.44 KCAL/MOL
REMARK 923 INTER-LIGAND FREE ENERGY PREDICTED BY IDOCK:   -3.81 KCAL/MOL
REMARK 924 INTRA-LIGAND FREE ENERGY PREDICTED BY IDOCK:    0.38 KCAL/MOL
REMARK 927      BINDING AFFINITY PREDICTED BY RF-SCORE:    0.00 PKD
ROOT
HETATM    1  O   UNL     1      -7.469   6.031  68.470  1.00  0.00    -0.083 OA 
HETATM    2  C   UNL     1      -8.519   5.146  68.889  1.00  0.00    -0.090 C  
HETATM    3  H   UNL     1      -7.035   5.640  67.721  1.00  0.00     0.000 HD 
HETATM    4  C   UNL     1      -7.832   3.846  69.324  1.00  0.00    -0.052 A  
HETATM    5  C   UNL     1      -9.414   4.960  67.666  1.00  0.00    -0.141 A  
HETATM    6  C   UNL     1      -9.238   5.795  70.130  1.00  0.00    -0.151 C  
HETATM    7  C   UNL     1      -7.327   1.629  70.316  1.00  0.00    -0.033 A  
HETATM    8  C   UNL     1      -6.498   3.489  69.202  1.00  0.00    -0.033 A  
HETATM    9  C   UNL     1      -9.421   3.916  66.750  1.00  0.00    -0.223 A  
HETATM   10  O   UNL     1     -10.231   6.513  70.142  1.00  0.00    -0.185 OA 
HETATM   11  C   UNL     1      -6.207   2.222  69.782  1.00  0.00    -0.025 A  
HETATM   12  C   UNL     1     -10.344   4.107  65.682  1.00  0.00    -0.120 A  
HETATM   13  S   UNL     1     -10.489   6.204  67.139  1.00  0.00    -0.303 SA 
HETATM   14  C   UNL     1     -11.007   5.306  65.787  1.00  0.00     0.257 A  
HETATM   15  S   UNL     1      -8.730   2.572  70.075  1.00  0.00    -0.078 SA 
ENDROOT
BRANCH   6  16
HETATM   16  O   UNL     1      -8.563   5.523  71.295  1.00  0.00    -0.124 OA 
BRANCH  16  17
HETATM   17  C   UNL     1      -7.251   6.089  71.458  1.00  0.00    -0.083 C  
HETATM   18  N   UNL     1      -6.785   8.607  71.654  1.00  0.00    -0.078 N  
HETATM   19  C   UNL     1      -7.031   7.404  70.666  1.00  0.00    -0.052 C  
HETATM   20  C   UNL     1      -5.551   8.268  72.506  1.00  0.00    -0.044 C  
HETATM   21  C   UNL     1      -8.019   8.710  72.561  1.00  0.00     0.041 C  
HETATM   22  C   UNL     1      -5.713   6.927  73.203  1.00  0.00    -0.046 C  
HETATM   23  C   UNL     1      -8.140   7.428  73.389  1.00  0.00    -0.140 C  
HETATM   24  C   UNL     1      -7.106   6.370  72.960  1.00  0.00    -0.082 C  
BRANCH  18  25
HETATM   25  C   UNL     1      -6.610   9.883  70.778  1.00  0.00    -0.066 C  
BRANCH  25  26
HETATM   26  C   UNL     1      -7.714  10.210  69.758  1.00  0.00    -0.176 C  
BRANCH  26  27
HETATM   27  C   UNL     1      -7.455  11.467  68.941  1.00  0.00    -0.106 C  
BRANCH  27  28
HETATM   28  O   UNL     1      -7.531  11.228  67.543  1.00  0.00    -0.097 OA 
BRANCH  28  29
HETATM   29  C   UNL     1      -8.800  11.364  67.022  1.00  0.00    -0.168 A  
HETATM   30  C   UNL     1      -8.965  10.832  65.748  1.00  0.00    -0.203 A  
HETATM   31  C   UNL     1     -10.193  10.937  65.087  1.00  0.00    -0.360 A  
HETATM   32  C   UNL     1     -11.273  11.558  65.711  1.00  0.00    -0.228 A  
HETATM   33  C   UNL     1     -11.131  12.061  66.997  1.00  0.00    -0.351 A  
HETATM   34  C   UNL     1      -9.901  11.960  67.654  1.00  0.00    -0.192 A  
ENDBRANCH  28  29
ENDBRANCH  27  28
ENDBRANCH  26  27
ENDBRANCH  25  26
ENDBRANCH  18  25
ENDBRANCH  16  17
ENDBRANCH   6  16
TORSDOF 7
ENDMDL
MODEL      202
REMARK 921   NORMALIZED FREE ENERGY PREDICTED BY IDOCK:   -1.19 KCAL/MOL
REMARK 922        TOTAL FREE ENERGY PREDICTED BY IDOCK:   -3.33 KCAL/MOL
REMARK 923 INTER-LIGAND FREE ENERGY PREDICTED BY IDOCK:   -2.74 KCAL/MOL
REMARK 924 INTRA-LIGAND FREE ENERGY PREDICTED BY IDOCK:   -0.59 KCAL/MOL
REMARK 927      BINDING AFFINITY PREDICTED BY RF-SCORE:    0.00 PKD
ROOT
HETATM    1  O   UNL     1      -9.586  15.073  68.729  1.00  0.00    -0.206 OA 
HETATM    2  C   UNL     1      -8.752  15.876  67.879  1.00  0.00    -0.168 C  
HETATM    3  H   UNL     1      -9.782  15.577  69.510  1.00  0.00     0.000 HD 
HETATM    4  C   UNL     1      -7.457  16.121  68.662  1.00  0.00    -0.179 A  
HETATM    5  C   UNL     1      -9.539  17.159  67.622  1.00  0.00    -0.254 A  
HETATM    6  C   UNL     1      -8.426  15.041  66.585  1.00  0.00    -0.157 C  
HETATM    7  C   UNL     1      -5.134  16.699  69.314  1.00  0.00    -0.129 A  
HETATM    8  C   UNL     1      -7.167  15.800  69.980  1.00  0.00     0.231 A  
HETATM    9  C   UNL     1      -9.419  18.389  68.257  1.00  0.00    -0.342 A  
HETATM   10  O   UNL     1      -9.021  15.039  65.514  1.00  0.00     0.264 OA 
HETATM   11  C   UNL     1      -5.831  16.121  70.350  1.00  0.00    -0.059 A  
HETATM   12  C   UNL     1     -10.372  19.349  67.813  1.00  0.00    -0.547 A  
HETATM   13  S   UNL     1     -10.890  17.188  66.550  1.00  0.00     0.171 SA 
HETATM   14  C   UNL     1     -11.220  18.829  66.866  1.00  0.00     0.390 A  
HETATM   15  S   UNL     1      -6.101  16.899  67.921  1.00  0.00    -0.141 SA 
ENDROOT
BRANCH   6  16
HETATM   16  O   UNL     1      -7.370  14.189  66.795  1.00  0.00     0.287 OA 
BRANCH  16  17
HETATM   17  C   UNL     1      -7.569  13.080  67.688  1.00  0.00    -0.160 C  
HETATM   18  N   UNL     1      -7.484  10.617  66.961  1.00  0.00    -0.102 N  
HETATM   19  C   UNL     1      -8.378  11.911  67.066  1.00  0.00    -0.178 C  
HETATM   20  C   UNL     1      -7.009  10.260  68.379  1.00  0.00    -0.069 C  
HETATM   21  C   UNL     1      -6.271  10.972  66.090  1.00  0.00    -0.104 C  
HETATM   22  C   UNL     1      -6.307  11.437  69.038  1.00  0.00    -0.063 C  
HETATM   23  C   UNL     1      -5.454  12.061  66.788  1.00  0.00     0.009 C  
HETATM   24  C   UNL     1      -6.162  12.585  68.053  1.00  0.00    -0.088 C  
BRANCH  18  25
HETATM   25  C   UNL     1      -8.362   9.514  66.299  1.00  0.00    -0.115 C  
BRANCH  25  26
HETATM   26  C   UNL     1      -8.603   8.218  67.090  1.00  0.00    -0.123 C  
BRANCH  26  27
HETATM   27  C   UNL     1      -7.562   7.135  66.845  1.00  0.00    -0.101 C  
BRANCH  27  28
HETATM   28  O   UNL     1      -8.126   5.960  66.281  1.00  0.00    -0.101 OA 
BRANCH  28  29
HETATM   29  C   UNL     1      -8.234   4.911  67.168  1.00  0.00    -0.106 A  
HETATM   30  C   UNL     1      -7.053   4.211  67.386  1.00  0.00    -0.067 A  
HETATM   31  C   UNL     1      -7.031   3.100  68.234  1.00  0.00    -0.049 A  
HETATM   32  C   UNL     1      -8.192   2.695  68.889  1.00  0.00    -0.074 A  
HETATM   33  C   UNL     1      -9.369   3.408  68.709  1.00  0.00    -0.234 A  
HETATM   34  C   UNL     1      -9.391   4.516  67.856  1.00  0.00    -0.178 A  
ENDBRANCH  28  29
ENDBRANCH  27  28
ENDBRANCH  26  27
ENDBRANCH  25  26
ENDBRANCH  18  25
ENDBRANCH  16  17
ENDBRANCH   6  16
TORSDOF 7
ENDMDL
MODEL      203
REMARK 921   NORMALIZED FREE ENERGY PREDICTED BY IDOCK:   -1.06 KCAL/MOL
REMARK 922        TOTAL FREE ENERGY PREDICTED BY IDOCK:   -3.14 KCAL/MOL
REMARK 923 INTER-LIGAND FREE ENERGY PREDICTED BY IDOCK:   -2.82 KCAL/MOL
REMARK 924 INTRA-LIGAND FREE ENERGY PREDICTED BY IDOCK:   -0.32 KCAL/MOL
REMARK 927      BINDING AFFINITY PREDICTED BY RF-SCORE:    0.00 PKD
ROOT
HETATM    1  O   UNL     1     -10.060   8.103  65.647  1.00  0.00    -0.076 OA 
HETATM    2  C   UNL     1      -9.683   9.394  66.149  1.00  0.00    -0.265 C  
HETATM    3  H   UNL     1     -11.004   8.092  65.542  1.00  0.00     0.000 HD 
HETATM    4  C   UNL     1     -10.345   9.526  67.525  1.00  0.00    -0.248 A  
HETATM    5  C   UNL     1     -10.218  10.404  65.136  1.00  0.00    -0.256 A  
HETATM    6  C   UNL     1      -8.117   9.412  66.322  1.00  0.00    -0.111 C  
HETATM    7  C   UNL     1     -10.971  10.248  69.814  1.00  0.00    -0.289 A  
HETATM    8  C   UNL     1     -11.260   8.678  68.131  1.00  0.00     0.508 A  
HETATM    9  C   UNL     1     -11.390  11.148  65.194  1.00  0.00     0.117 A  
HETATM   10  O   UNL     1      -7.271   9.795  65.523  1.00  0.00    -0.098 OA 
HETATM   11  C   UNL     1     -11.610   9.087  69.448  1.00  0.00     0.515 A  
HETATM   12  C   UNL     1     -11.614  11.939  64.032  1.00  0.00    -0.476 A  
HETATM   13  S   UNL     1      -9.461  10.630  63.602  1.00  0.00    -0.325 SA 
HETATM   14  C   UNL     1     -10.624  11.766  63.095  1.00  0.00    -0.280 A  
HETATM   15  S   UNL     1      -9.994  10.869  68.559  1.00  0.00    -0.188 SA 
ENDROOT
BRANCH   6  16
HETATM   16  O   UNL     1      -7.743   8.851  67.518  1.00  0.00    -0.098 OA 
BRANCH  16  17
HETATM   17  C   UNL     1      -6.522   9.311  68.122  1.00  0.00    -0.058 C  
HETATM   18  N   UNL     1      -6.402  11.181  69.880  1.00  0.00    -0.129 N  
HETATM   19  C   UNL     1      -6.469  10.846  68.341  1.00  0.00    -0.057 C  
HETATM   20  C   UNL     1      -5.147  10.502  70.452  1.00  0.00    -0.046 C  
HETATM   21  C   UNL     1      -7.653  10.574  70.531  1.00  0.00     0.879 C  
HETATM   22  C   UNL     1      -5.138   9.013  70.150  1.00  0.00    -0.028 C  
HETATM   23  C   UNL     1      -7.613   9.053  70.371  1.00  0.00    -0.100 C  
HETATM   24  C   UNL     1      -6.440   8.602  69.481  1.00  0.00    -0.040 C  
BRANCH  18  25
HETATM   25  C   UNL     1      -6.387  12.733  70.004  1.00  0.00     0.013 C  
BRANCH  25  26
HETATM   26  C   UNL     1      -7.368  13.532  69.131  1.00  0.00     0.074 C  
BRANCH  26  27
HETATM   27  C   UNL     1      -6.747  14.734  68.433  1.00  0.00    -0.102 C  
BRANCH  27  28
HETATM   28  O   UNL     1      -7.721  15.674  68.004  1.00  0.00    -0.120 OA 
BRANCH  28  29
HETATM   29  C   UNL     1      -7.358  16.987  68.209  1.00  0.00    -0.203 A  
HETATM   30  C   UNL     1      -6.522  17.194  69.301  1.00  0.00    -0.235 A  
HETATM   31  C   UNL     1      -6.110  18.485  69.646  1.00  0.00    -0.269 A  
HETATM   32  C   UNL     1      -6.515  19.577  68.882  1.00  0.00    -0.326 A  
HETATM   33  C   UNL     1      -7.320  19.380  67.768  1.00  0.00    -0.288 A  
HETATM   34  C   UNL     1      -7.736  18.089  67.428  1.00  0.00    -0.216 A  
ENDBRANCH  28  29
ENDBRANCH  27  28
ENDBRANCH  26  27
ENDBRANCH  25  26
ENDBRANCH  18  25
ENDBRANCH  16  17
ENDBRANCH   6  16
TORSDOF 7
ENDMDL
MODEL      204
REMARK 921   NORMALIZED FREE ENERGY PREDICTED BY IDOCK:   -0.88 KCAL/MOL
REMARK 922        TOTAL FREE ENERGY PREDICTED BY IDOCK:   -2.89 KCAL/MOL
REMARK 923 INTER-LIGAND FREE ENERGY PREDICTED BY IDOCK:   -3.63 KCAL/MOL
REMARK 924 INTRA-LIGAND FREE ENERGY PREDICTED BY IDOCK:    0.74 KCAL/MOL
REMARK 927      BINDING AFFINITY PREDICTED BY RF-SCORE:    0.00 PKD
ROOT
HETATM    1  O   UNL     1      -9.118   7.447  65.060  1.00  0.00    -0.244 OA 
HETATM    2  C   UNL     1      -9.137   8.535  65.997  1.00  0.00    -0.194 C  
HETATM    3  H   UNL     1     -10.010   7.287  64.775  1.00  0.00     0.000 HD 
HETATM    4  C   UNL     1      -9.971   8.055  67.190  1.00  0.00    -0.235 A  
HETATM    5  C   UNL     1      -9.783   9.704  65.257  1.00  0.00    -0.260 A  
HETATM    6  C   UNL     1      -7.658   8.799  66.469  1.00  0.00    -0.095 C  
HETATM    7  C   UNL     1     -11.026   7.811  69.422  1.00  0.00    -0.035 A  
HETATM    8  C   UNL     1     -10.711   6.889  67.316  1.00  0.00    -0.421 A  
HETATM    9  C   UNL     1     -11.101  10.139  65.310  1.00  0.00     1.243 A  
HETATM   10  O   UNL     1      -6.845   9.590  66.007  1.00  0.00    -0.086 OA 
HETATM   11  C   UNL     1     -11.306   6.744  68.601  1.00  0.00    -0.076 A  
HETATM   12  C   UNL     1     -11.376  11.220  64.425  1.00  0.00    -0.109 A  
HETATM   13  S   UNL     1      -8.928  10.586  64.045  1.00  0.00    -0.223 SA 
HETATM   14  C   UNL     1     -10.269  11.576  63.693  1.00  0.00    -0.405 A  
HETATM   15  S   UNL     1     -10.093   9.003  68.632  1.00  0.00    -0.194 SA 
ENDROOT
BRANCH   6  16
HETATM   16  O   UNL     1      -7.301   7.947  67.485  1.00  0.00    -0.088 OA 
BRANCH  16  17
HETATM   17  C   UNL     1      -6.172   8.309  68.299  1.00  0.00    -0.050 C  
HETATM   18  N   UNL     1      -6.108  10.367  69.835  1.00  0.00    -0.058 N  
HETATM   19  C   UNL     1      -5.910   9.836  68.364  1.00  0.00    -0.043 C  
HETATM   20  C   UNL     1      -5.131   9.604  70.744  1.00  0.00    -0.039 C  
HETATM   21  C   UNL     1      -7.550  10.038  70.245  1.00  0.00    -0.106 C  
HETATM   22  C   UNL     1      -5.310   8.101  70.607  1.00  0.00    -0.025 C  
HETATM   23  C   UNL     1      -7.734   8.519  70.257  1.00  0.00    -0.077 C  
HETATM   24  C   UNL     1      -6.494   7.789  69.707  1.00  0.00    -0.034 C  
BRANCH  18  25
HETATM   25  C   UNL     1      -5.859  11.904  69.798  1.00  0.00    -0.120 C  
BRANCH  25  26
HETATM   26  C   UNL     1      -6.929  12.789  69.138  1.00  0.00    -0.015 C  
BRANCH  26  27
HETATM   27  C   UNL     1      -6.730  14.281  69.362  1.00  0.00    -0.130 C  
BRANCH  27  28
HETATM   28  O   UNL     1      -7.916  14.924  69.808  1.00  0.00    -0.103 OA 
BRANCH  28  29
HETATM   29  C   UNL     1      -8.826  15.173  68.804  1.00  0.00    -0.196 A  
HETATM   30  C   UNL     1      -9.743  14.152  68.584  1.00  0.00    -0.196 A  
HETATM   31  C   UNL     1     -10.698  14.259  67.568  1.00  0.00    -0.270 A  
HETATM   32  C   UNL     1     -10.753  15.405  66.777  1.00  0.00    -0.310 A  
HETATM   33  C   UNL     1      -9.866  16.447  67.010  1.00  0.00    -0.253 A  
HETATM   34  C   UNL     1      -8.909  16.336  68.023  1.00  0.00    -0.182 A  
ENDBRANCH  28  29
ENDBRANCH  27  28
ENDBRANCH  26  27
ENDBRANCH  25  26
ENDBRANCH  18  25
ENDBRANCH  16  17
ENDBRANCH   6  16
TORSDOF 7
ENDMDL
MODEL      205
REMARK 921   NORMALIZED FREE ENERGY PREDICTED BY IDOCK:   -0.63 KCAL/MOL
REMARK 922        TOTAL FREE ENERGY PREDICTED BY IDOCK:   -2.54 KCAL/MOL
REMARK 923 INTER-LIGAND FREE ENERGY PREDICTED BY IDOCK:   -3.25 KCAL/MOL
REMARK 924 INTRA-LIGAND FREE ENERGY PREDICTED BY IDOCK:    0.71 KCAL/MOL
REMARK 927      BINDING AFFINITY PREDICTED BY RF-SCORE:    0.00 PKD
ROOT
HETATM    1  O   UNL     1      -6.586   5.101  71.884  1.00  0.00    -0.037 OA 
HETATM    2  C   UNL     1      -7.642   5.876  71.296  1.00  0.00    -0.104 C  
HETATM    3  H   UNL     1      -6.481   5.382  72.786  1.00  0.00     0.000 HD 
HETATM    4  C   UNL     1      -7.164   7.333  71.318  1.00  0.00    -0.072 A  
HETATM    5  C   UNL     1      -8.866   5.642  72.179  1.00  0.00    -0.137 A  
HETATM    6  C   UNL     1      -7.816   5.409  69.803  1.00  0.00    -0.081 C  
HETATM    7  C   UNL     1      -6.899   9.765  70.910  1.00  0.00    -0.004 A  
HETATM    8  C   UNL     1      -6.033   7.864  71.920  1.00  0.00    -0.036 A  
HETATM    9  C   UNL     1      -9.364   6.445  73.198  1.00  0.00    -0.142 A  
HETATM   10  O   UNL     1      -8.581   4.562  69.357  1.00  0.00    -0.080 OA 
HETATM   11  C   UNL     1      -5.875   9.257  71.674  1.00  0.00    -0.070 A  
HETATM   12  C   UNL     1     -10.486   5.878  73.865  1.00  0.00    -0.288 A  
HETATM   13  S   UNL     1      -9.744   4.158  72.126  1.00  0.00    -0.170 SA 
HETATM   14  C   UNL     1     -10.811   4.642  73.363  1.00  0.00    -0.276 A  
HETATM   15  S   UNL     1      -8.069   8.580  70.531  1.00  0.00    -0.123 SA 
ENDROOT
BRANCH   6  16
HETATM   16  O   UNL     1      -6.914   6.035  68.977  1.00  0.00    -0.063 OA 
BRANCH  16  17
HETATM   17  C   UNL     1      -6.954   5.717  67.576  1.00  0.00    -0.069 C  
HETATM   18  N   UNL     1      -9.033   6.001  66.095  1.00  0.00    -0.150 N  
HETATM   19  C   UNL     1      -8.283   5.064  67.117  1.00  0.00    -0.107 C  
HETATM   20  C   UNL     1      -8.096   6.233  64.898  1.00  0.00    -0.130 C  
HETATM   21  C   UNL     1      -9.292   7.336  66.807  1.00  0.00    -0.163 C  
HETATM   22  C   UNL     1      -6.749   6.774  65.350  1.00  0.00    -0.051 C  
HETATM   23  C   UNL     1      -7.951   7.986  67.156  1.00  0.00    -0.113 C  
HETATM   24  C   UNL     1      -6.765   7.053  66.843  1.00  0.00    -0.056 C  
BRANCH  18  25
HETATM   25  C   UNL     1     -10.364   5.285  65.718  1.00  0.00     0.035 C  
BRANCH  25  26
HETATM   26  C   UNL     1     -10.277   3.853  65.167  1.00  0.00    -0.115 C  
BRANCH  26  27
HETATM   27  C   UNL     1     -10.380   3.760  63.651  1.00  0.00    -0.226 C  
BRANCH  27  28
HETATM   28  O   UNL     1      -9.275   3.080  63.074  1.00  0.00    -0.094 OA 
BRANCH  28  29
HETATM   29  C   UNL     1      -8.327   2.680  63.990  1.00  0.00    -0.083 A  
HETATM   30  C   UNL     1      -7.056   3.204  63.779  1.00  0.00    -0.049 A  
HETATM   31  C   UNL     1      -5.992   2.847  64.613  1.00  0.00    -0.018 A  
HETATM   32  C   UNL     1      -6.200   1.978  65.681  1.00  0.00    -0.023 A  
HETATM   33  C   UNL     1      -7.472   1.477  65.925  1.00  0.00    -0.061 A  
HETATM   34  C   UNL     1      -8.533   1.830  65.087  1.00  0.00    -0.093 A  
ENDBRANCH  28  29
ENDBRANCH  27  28
ENDBRANCH  26  27
ENDBRANCH  25  26
ENDBRANCH  18  25
ENDBRANCH  16  17
ENDBRANCH   6  16
TORSDOF 7
ENDMDL
MODEL      206
REMARK 921   NORMALIZED FREE ENERGY PREDICTED BY IDOCK:   -0.55 KCAL/MOL
REMARK 922        TOTAL FREE ENERGY PREDICTED BY IDOCK:   -2.42 KCAL/MOL
REMARK 923 INTER-LIGAND FREE ENERGY PREDICTED BY IDOCK:   -0.83 KCAL/MOL
REMARK 924 INTRA-LIGAND FREE ENERGY PREDICTED BY IDOCK:   -1.58 KCAL/MOL
REMARK 927      BINDING AFFINITY PREDICTED BY RF-SCORE:    0.00 PKD
ROOT
HETATM    1  O   UNL     1     -11.162   6.485  69.471  1.00  0.00    -0.345 OA 
HETATM    2  C   UNL     1     -10.102   6.738  68.536  1.00  0.00    -0.162 C  
HETATM    3  H   UNL     1     -11.979   6.449  68.987  1.00  0.00     0.000 HD 
HETATM    4  C   UNL     1     -10.390   8.116  67.928  1.00  0.00    -0.220 A  
HETATM    5  C   UNL     1     -10.179   5.611  67.509  1.00  0.00    -0.202 A  
HETATM    6  C   UNL     1      -8.748   6.798  69.339  1.00  0.00    -0.136 C  
HETATM    7  C   UNL     1     -10.208  10.290  66.749  1.00  0.00    -0.228 A  
HETATM    8  C   UNL     1     -11.512   8.915  68.088  1.00  0.00     1.017 A  
HETATM    9  C   UNL     1     -10.773   5.625  66.253  1.00  0.00    -0.142 A  
HETATM   10  O   UNL     1      -7.953   5.890  69.552  1.00  0.00    -0.101 OA 
HETATM   11  C   UNL     1     -11.402  10.167  67.421  1.00  0.00     0.132 A  
HETATM   12  C   UNL     1     -10.722   4.365  65.591  1.00  0.00    -0.083 A  
HETATM   13  S   UNL     1      -9.648   4.012  67.884  1.00  0.00    -0.101 SA 
HETATM   14  C   UNL     1     -10.114   3.405  66.362  1.00  0.00     0.633 A  
HETATM   15  S   UNL     1      -9.248   8.885  66.880  1.00  0.00    -0.156 SA 
ENDROOT
BRANCH   6  16
HETATM   16  O   UNL     1      -8.547   8.042  69.884  1.00  0.00    -0.132 OA 
BRANCH  16  17
HETATM   17  C   UNL     1      -7.191   8.478  70.080  1.00  0.00    -0.051 C  
HETATM   18  N   UNL     1      -5.955  10.086  68.504  1.00  0.00    -0.042 N  
HETATM   19  C   UNL     1      -6.371   8.588  68.769  1.00  0.00    -0.049 C  
HETATM   20  C   UNL     1      -5.128  10.562  69.709  1.00  0.00    -0.038 C  
HETATM   21  C   UNL     1      -7.248  10.908  68.416  1.00  0.00    -0.087 C  
HETATM   22  C   UNL     1      -5.883  10.358  71.012  1.00  0.00    -0.027 C  
HETATM   23  C   UNL     1      -7.975  10.844  69.761  1.00  0.00     0.301 C  
HETATM   24  C   UNL     1      -7.293   9.863  70.734  1.00  0.00     0.115 C  
BRANCH  18  25
HETATM   25  C   UNL     1      -5.171  10.106  67.159  1.00  0.00    -0.041 C  
BRANCH  25  26
HETATM   26  C   UNL     1      -5.802  10.850  65.971  1.00  0.00    -0.143 C  
BRANCH  26  27
HETATM   27  C   UNL     1      -5.770  10.075  64.661  1.00  0.00    -0.110 C  
BRANCH  27  28
HETATM   28  O   UNL     1      -5.229   8.771  64.818  1.00  0.00    -0.038 OA 
BRANCH  28  29
HETATM   29  C   UNL     1      -6.061   7.766  64.375  1.00  0.00    -0.048 A  
HETATM   30  C   UNL     1      -6.232   7.719  62.996  1.00  0.00    -0.067 A  
HETATM   31  C   UNL     1      -7.082   6.771  62.417  1.00  0.00    -0.049 A  
HETATM   32  C   UNL     1      -7.750   5.847  63.217  1.00  0.00    -0.094 A  
HETATM   33  C   UNL     1      -7.559   5.860  64.592  1.00  0.00    -0.089 A  
HETATM   34  C   UNL     1      -6.713   6.812  65.170  1.00  0.00    -0.050 A  
ENDBRANCH  28  29
ENDBRANCH  27  28
ENDBRANCH  26  27
ENDBRANCH  25  26
ENDBRANCH  18  25
ENDBRANCH  16  17
ENDBRANCH   6  16
TORSDOF 7
ENDMDL
MODEL      207
REMARK 921   NORMALIZED FREE ENERGY PREDICTED BY IDOCK:   -0.48 KCAL/MOL
REMARK 922        TOTAL FREE ENERGY PREDICTED BY IDOCK:   -2.32 KCAL/MOL
REMARK 923 INTER-LIGAND FREE ENERGY PREDICTED BY IDOCK:   -1.31 KCAL/MOL
REMARK 924 INTRA-LIGAND FREE ENERGY PREDICTED BY IDOCK:   -1.01 KCAL/MOL
REMARK 927      BINDING AFFINITY PREDICTED BY RF-SCORE:    0.00 PKD
ROOT
HETATM    1  O   UNL     1      -9.712  17.244  68.310  1.00  0.00    -0.271 OA 
HETATM    2  C   UNL     1      -8.906  17.628  67.186  1.00  0.00    -0.244 C  
HETATM    3  H   UNL     1      -9.876  18.019  68.834  1.00  0.00     0.000 HD 
HETATM    4  C   UNL     1      -7.580  18.136  67.766  1.00  0.00    -0.222 A  
HETATM    5  C   UNL     1      -9.694  18.721  66.467  1.00  0.00    -0.354 A  
HETATM    6  C   UNL     1      -8.634  16.342  66.318  1.00  0.00    -0.339 C  
HETATM    7  C   UNL     1      -5.232  18.877  68.061  1.00  0.00    -0.173 A  
HETATM    8  C   UNL     1      -7.244  18.356  69.093  1.00  0.00    -0.193 A  
HETATM    9  C   UNL     1      -9.543  20.098  66.558  1.00  0.00    -0.529 A  
HETATM   10  O   UNL     1      -9.269  15.929  65.355  1.00  0.00    -0.271 OA 
HETATM   11  C   UNL     1      -5.893  18.770  69.262  1.00  0.00    -0.237 A  
HETATM   12  C   UNL     1     -10.506  20.824  65.801  1.00  0.00     0.804 A  
HETATM   13  S   UNL     1     -11.084  18.350  65.515  1.00  0.00     1.055 SA 
HETATM   14  C   UNL     1     -11.392  19.989  65.165  1.00  0.00     1.047 A  
HETATM   15  S   UNL     1      -6.248  18.529  66.734  1.00  0.00    -0.173 SA 
ENDROOT
BRANCH   6  16
HETATM   16  O   UNL     1      -7.575  15.622  66.815  1.00  0.00    -0.204 OA 
BRANCH  16  17
HETATM   17  C   UNL     1      -7.831  14.714  67.900  1.00  0.00    -0.136 C  
HETATM   18  N   UNL     1      -7.167  12.232  67.886  1.00  0.00    -0.095 N  
HETATM   19  C   UNL     1      -8.248  13.292  67.444  1.00  0.00    -0.183 C  
HETATM   20  C   UNL     1      -7.042  12.302  69.416  1.00  0.00     0.133 C  
HETATM   21  C   UNL     1      -5.836  12.648  67.245  1.00  0.00    -0.061 C  
HETATM   22  C   UNL     1      -6.738  13.717  69.881  1.00  0.00     0.113 C  
HETATM   23  C   UNL     1      -5.419  14.013  67.796  1.00  0.00    -0.032 C  
HETATM   24  C   UNL     1      -6.515  14.629  68.687  1.00  0.00    -0.085 C  
BRANCH  18  25
HETATM   25  C   UNL     1      -7.650  10.848  67.359  1.00  0.00    -0.100 C  
BRANCH  25  26
HETATM   26  C   UNL     1      -8.708  10.096  68.183  1.00  0.00    -0.122 C  
BRANCH  26  27
HETATM   27  C   UNL     1      -8.606   8.580  68.094  1.00  0.00    -0.138 C  
BRANCH  27  28
HETATM   28  O   UNL     1      -7.316   8.148  67.685  1.00  0.00    -0.089 OA 
BRANCH  28  29
HETATM   29  C   UNL     1      -6.707   7.292  68.576  1.00  0.00    -0.057 A  
HETATM   30  C   UNL     1      -6.815   5.944  68.253  1.00  0.00    -0.067 A  
HETATM   31  C   UNL     1      -6.275   4.965  69.093  1.00  0.00    -0.030 A  
HETATM   32  C   UNL     1      -5.600   5.334  70.254  1.00  0.00    -0.012 A  
HETATM   33  C   UNL     1      -5.452   6.678  70.569  1.00  0.00    -0.022 A  
HETATM   34  C   UNL     1      -5.998   7.655  69.731  1.00  0.00    -0.023 A  
ENDBRANCH  28  29
ENDBRANCH  27  28
ENDBRANCH  26  27
ENDBRANCH  25  26
ENDBRANCH  18  25
ENDBRANCH  16  17
ENDBRANCH   6  16
TORSDOF 7
ENDMDL
MODEL      208
REMARK 921   NORMALIZED FREE ENERGY PREDICTED BY IDOCK:   -0.18 KCAL/MOL
REMARK 922        TOTAL FREE ENERGY PREDICTED BY IDOCK:   -1.90 KCAL/MOL
REMARK 923 INTER-LIGAND FREE ENERGY PREDICTED BY IDOCK:   -4.01 KCAL/MOL
REMARK 924 INTRA-LIGAND FREE ENERGY PREDICTED BY IDOCK:    2.11 KCAL/MOL
REMARK 927      BINDING AFFINITY PREDICTED BY RF-SCORE:    0.00 PKD
ROOT
HETATM    1  O   UNL     1      -7.911  10.612  66.763  1.00  0.00    -0.123 OA 
HETATM    2  C   UNL     1      -8.087  11.133  68.089  1.00  0.00    -0.128 C  
HETATM    3  H   UNL     1      -7.062  10.188  66.723  1.00  0.00     0.000 HD 
HETATM    4  C   UNL     1      -6.987  12.184  68.283  1.00  0.00    -0.080 A  
HETATM    5  C   UNL     1      -7.932   9.937  69.026  1.00  0.00    -0.101 A  
HETATM    6  C   UNL     1      -9.494  11.835  68.155  1.00  0.00    -0.193 C  
HETATM    7  C   UNL     1      -5.604  14.066  69.118  1.00  0.00    -0.081 A  
HETATM    8  C   UNL     1      -5.922  12.486  67.448  1.00  0.00    -0.147 A  
HETATM    9  C   UNL     1      -6.811   9.540  69.744  1.00  0.00    -0.064 A  
HETATM   10  O   UNL     1     -10.564  11.357  68.512  1.00  0.00    -0.181 OA 
HETATM   11  C   UNL     1      -5.136  13.574  67.922  1.00  0.00    -0.086 A  
HETATM   12  C   UNL     1      -7.002   8.326  70.462  1.00  0.00    -0.037 A  
HETATM   13  S   UNL     1      -9.174   8.749  69.183  1.00  0.00    -0.149 SA 
HETATM   14  C   UNL     1      -8.256   7.802  70.260  1.00  0.00    -0.125 A  
HETATM   15  S   UNL     1      -6.954  13.190  69.690  1.00  0.00     0.380 SA 
ENDROOT
BRANCH   6  16
HETATM   16  O   UNL     1      -9.433  13.119  67.672  1.00  0.00    -0.194 OA 
BRANCH  16  17
HETATM   17  C   UNL     1      -9.489  13.305  66.248  1.00  0.00    -0.184 C  
HETATM   18  N   UNL     1     -10.257  11.498  64.591  1.00  0.00    -0.267 N  
HETATM   19  C   UNL     1      -9.049  12.060  65.434  1.00  0.00     0.211 C  
HETATM   20  C   UNL     1     -10.738  12.620  63.657  1.00  0.00    -0.372 C  
HETATM   21  C   UNL     1     -11.375  11.143  65.581  1.00  0.00     0.200 C  
HETATM   22  C   UNL     1     -11.071  13.882  64.437  1.00  0.00    -0.332 C  
HETATM   23  C   UNL     1     -11.840  12.417  66.291  1.00  0.00    -0.431 C  
HETATM   24  C   UNL     1     -10.956  13.626  65.930  1.00  0.00    -0.284 C  
BRANCH  18  25
HETATM   25  C   UNL     1      -9.736  10.238  63.839  1.00  0.00    -0.261 C  
BRANCH  25  26
HETATM   26  C   UNL     1      -8.326  10.299  63.229  1.00  0.00    -0.168 C  
BRANCH  26  27
HETATM   27  C   UNL     1      -7.475   9.066  63.500  1.00  0.00    -0.103 C  
BRANCH  27  28
HETATM   28  O   UNL     1      -8.151   7.860  63.173  1.00  0.00    -0.152 OA 
BRANCH  28  29
HETATM   29  C   UNL     1      -7.965   6.850  64.090  1.00  0.00    -0.078 A  
HETATM   30  C   UNL     1      -8.219   5.571  63.607  1.00  0.00    -0.106 A  
HETATM   31  C   UNL     1      -8.107   4.458  64.445  1.00  0.00    -0.097 A  
HETATM   32  C   UNL     1      -7.714   4.617  65.772  1.00  0.00    -0.094 A  
HETATM   33  C   UNL     1      -7.421   5.885  66.257  1.00  0.00    -0.086 A  
HETATM   34  C   UNL     1      -7.540   6.997  65.419  1.00  0.00    -0.097 A  
ENDBRANCH  28  29
ENDBRANCH  27  28
ENDBRANCH  26  27
ENDBRANCH  25  26
ENDBRANCH  18  25
ENDBRANCH  16  17
ENDBRANCH   6  16
TORSDOF 7
ENDMDL
MODEL      209
REMARK 921   NORMALIZED FREE ENERGY PREDICTED BY IDOCK:    0.08 KCAL/MOL
REMARK 922        TOTAL FREE ENERGY PREDICTED BY IDOCK:   -1.54 KCAL/MOL
REMARK 923 INTER-LIGAND FREE ENERGY PREDICTED BY IDOCK:   -5.40 KCAL/MOL
REMARK 924 INTRA-LIGAND FREE ENERGY PREDICTED BY IDOCK:    3.86 KCAL/MOL
REMARK 927      BINDING AFFINITY PREDICTED BY RF-SCORE:    0.00 PKD
ROOT
HETATM    1  O   UNL     1      -9.880  10.182  70.564  1.00  0.00    -0.364 OA 
HETATM    2  C   UNL     1      -9.478   8.879  70.118  1.00  0.00    -0.180 C  
HETATM    3  H   UNL     1     -10.830  10.210  70.575  1.00  0.00     0.000 HD 
HETATM    4  C   UNL     1     -10.004   8.738  68.685  1.00  0.00    -0.182 A  
HETATM    5  C   UNL     1     -10.127   7.892  71.086  1.00  0.00    -0.184 A  
HETATM    6  C   UNL     1      -7.904   8.834  70.099  1.00  0.00    -0.094 C  
HETATM    7  C   UNL     1     -10.415   7.993  66.355  1.00  0.00     0.269 A  
HETATM    8  C   UNL     1     -10.842   9.591  67.982  1.00  0.00    -0.225 A  
HETATM    9  C   UNL     1     -11.299   7.165  70.923  1.00  0.00    -0.319 A  
HETATM   10  O   UNL     1      -7.146   8.450  70.982  1.00  0.00    -0.051 OA 
HETATM   11  C   UNL     1     -11.067   9.169  66.642  1.00  0.00     0.686 A  
HETATM   12  C   UNL     1     -11.649   6.394  72.067  1.00  0.00    -0.368 A  
HETATM   13  S   UNL     1      -9.527   7.676  72.689  1.00  0.00    -0.196 SA 
HETATM   14  C   UNL     1     -10.753   6.565  73.094  1.00  0.00    -0.269 A  
HETATM   15  S   UNL     1      -9.577   7.375  67.708  1.00  0.00    -0.144 SA 
ENDROOT
BRANCH   6  16
HETATM   16  O   UNL     1      -7.404   9.372  68.939  1.00  0.00    -0.071 OA 
BRANCH  16  17
HETATM   17  C   UNL     1      -7.068   8.470  67.871  1.00  0.00    -0.086 C  
HETATM   18  N   UNL     1      -6.790   9.184  65.419  1.00  0.00    -0.072 N  
HETATM   19  C   UNL     1      -7.813   8.764  66.543  1.00  0.00    -0.103 C  
HETATM   20  C   UNL     1      -5.790   8.030  65.242  1.00  0.00    -0.041 C  
HETATM   21  C   UNL     1      -6.048  10.430  65.923  1.00  0.00    -0.113 C  
HETATM   22  C   UNL     1      -5.132   7.663  66.562  1.00  0.00    -0.024 C  
HETATM   23  C   UNL     1      -5.255  10.067  67.180  1.00  0.00    -0.041 C  
HETATM   24  C   UNL     1      -5.558   8.632  67.652  1.00  0.00    -0.039 C  
BRANCH  18  25
HETATM   25  C   UNL     1      -7.624   9.492  64.140  1.00  0.00    -0.123 C  
BRANCH  25  26
HETATM   26  C   UNL     1      -8.607  10.673  64.192  1.00  0.00    -0.100 C  
BRANCH  26  27
HETATM   27  C   UNL     1      -9.699  10.623  63.133  1.00  0.00    -0.333 C  
BRANCH  27  28
HETATM   28  O   UNL     1     -10.969  10.995  63.648  1.00  0.00    -0.277 OA 
BRANCH  28  29
HETATM   29  C   UNL     1     -11.012  12.275  64.156  1.00  0.00    -0.363 A  
HETATM   30  C   UNL     1     -11.997  13.086  63.606  1.00  0.00    -0.608 A  
HETATM   31  C   UNL     1     -12.124  14.420  64.004  1.00  0.00    -0.312 A  
HETATM   32  C   UNL     1     -11.276  14.945  64.977  1.00  0.00    -0.408 A  
HETATM   33  C   UNL     1     -10.312  14.135  65.561  1.00  0.00    -0.368 A  
HETATM   34  C   UNL     1     -10.183  12.803  65.158  1.00  0.00    -0.297 A  
ENDBRANCH  28  29
ENDBRANCH  27  28
ENDBRANCH  26  27
ENDBRANCH  25  26
ENDBRANCH  18  25
ENDBRANCH  16  17
ENDBRANCH   6  16
TORSDOF 7
ENDMDL
MODEL      210
REMARK 921   NORMALIZED FREE ENERGY PREDICTED BY IDOCK:    0.13 KCAL/MOL
REMARK 922        TOTAL FREE ENERGY PREDICTED BY IDOCK:   -1.47 KCAL/MOL
REMARK 923 INTER-LIGAND FREE ENERGY PREDICTED BY IDOCK:   -3.02 KCAL/MOL
REMARK 924 INTRA-LIGAND FREE ENERGY PREDICTED BY IDOCK:    1.56 KCAL/MOL
REMARK 927      BINDING AFFINITY PREDICTED BY RF-SCORE:    0.00 PKD
ROOT
HETATM    1  O   UNL     1      -9.604  12.362  69.936  1.00  0.00     1.280 OA 
HETATM    2  C   UNL     1     -10.254  11.531  68.963  1.00  0.00    -0.088 C  
HETATM    3  H   UNL     1     -10.272  12.861  70.391  1.00  0.00     0.000 HD 
HETATM    4  C   UNL     1     -10.934  12.486  67.974  1.00  0.00    -0.232 A  
HETATM    5  C   UNL     1     -11.253  10.682  69.746  1.00  0.00    -0.297 A  
HETATM    6  C   UNL     1      -9.147  10.704  68.208  1.00  0.00    -0.153 C  
HETATM    7  C   UNL     1     -12.063  13.468  65.996  1.00  0.00    -0.445 A  
HETATM    8  C   UNL     1     -11.064  13.865  68.052  1.00  0.00    -0.279 A  
HETATM    9  C   UNL     1     -12.616  10.889  69.917  1.00  0.00    -0.211 A  
HETATM   10  O   UNL     1      -8.732   9.581  68.466  1.00  0.00    -0.122 OA 
HETATM   11  C   UNL     1     -11.701  14.428  66.911  1.00  0.00    -0.422 A  
HETATM   12  C   UNL     1     -13.228   9.934  70.778  1.00  0.00    -0.231 A  
HETATM   13  S   UNL     1     -10.738   9.360  70.727  1.00  0.00    -0.332 SA 
HETATM   14  C   UNL     1     -12.319   9.030  71.270  1.00  0.00    -0.302 A  
HETATM   15  S   UNL     1     -11.681  11.892  66.531  1.00  0.00    -0.034 SA 
ENDROOT
BRANCH   6  16
HETATM   16  O   UNL     1      -8.586  11.436  67.190  1.00  0.00    -0.142 OA 
BRANCH  16  17
HETATM   17  C   UNL     1      -7.570  10.807  66.392  1.00  0.00    -0.141 C  
HETATM   18  N   UNL     1      -7.728   8.405  65.494  1.00  0.00    -0.093 N  
HETATM   19  C   UNL     1      -7.345   9.310  66.728  1.00  0.00    -0.086 C  
HETATM   20  C   UNL     1      -6.852   8.838  64.307  1.00  0.00    -0.078 C  
HETATM   21  C   UNL     1      -9.202   8.681  65.169  1.00  0.00     0.115 C  
HETATM   22  C   UNL     1      -6.985  10.328  64.037  1.00  0.00    -0.049 C  
HETATM   23  C   UNL     1      -9.358  10.146  64.754  1.00  0.00    -0.324 C  
HETATM   24  C   UNL     1      -8.047  10.935  64.939  1.00  0.00     0.168 C  
BRANCH  18  25
HETATM   25  C   UNL     1      -7.504   6.927  65.932  1.00  0.00    -0.084 C  
BRANCH  25  26
HETATM   26  C   UNL     1      -6.467   6.099  65.156  1.00  0.00    -0.039 C  
BRANCH  26  27
HETATM   27  C   UNL     1      -5.986   4.855  65.891  1.00  0.00    -0.023 C  
BRANCH  27  28
HETATM   28  O   UNL     1      -6.666   3.682  65.470  1.00  0.00    -0.046 OA 
BRANCH  28  29
HETATM   29  C   UNL     1      -7.721   3.924  64.617  1.00  0.00    -0.081 A  
HETATM   30  C   UNL     1      -8.938   4.152  65.248  1.00  0.00    -0.134 A  
HETATM   31  C   UNL     1     -10.098   4.372  64.499  1.00  0.00    -0.031 A  
HETATM   32  C   UNL     1     -10.040   4.388  63.106  1.00  0.00     0.079 A  
HETATM   33  C   UNL     1      -8.823   4.199  62.465  1.00  0.00    -0.103 A  
HETATM   34  C   UNL     1      -7.666   3.973  63.216  1.00  0.00    -0.066 A  
ENDBRANCH  28  29
ENDBRANCH  27  28
ENDBRANCH  26  27
ENDBRANCH  25  26
ENDBRANCH  18  25
ENDBRANCH  16  17
ENDBRANCH   6  16
TORSDOF 7
ENDMDL
MODEL      211
REMARK 921   NORMALIZED FREE ENERGY PREDICTED BY IDOCK:    0.68 KCAL/MOL
REMARK 922        TOTAL FREE ENERGY PREDICTED BY IDOCK:   -0.70 KCAL/MOL
REMARK 923 INTER-LIGAND FREE ENERGY PREDICTED BY IDOCK:   -5.41 KCAL/MOL
REMARK 924 INTRA-LIGAND FREE ENERGY PREDICTED BY IDOCK:    4.72 KCAL/MOL
REMARK 927      BINDING AFFINITY PREDICTED BY RF-SCORE:    0.00 PKD
ROOT
HETATM    1  O   UNL     1     -12.024  11.427  67.746  1.00  0.00    -0.637 OA 
HETATM    2  C   UNL     1     -10.720  11.186  67.196  1.00  0.00    -0.259 C  
HETATM    3  H   UNL     1     -12.618  10.776  67.392  1.00  0.00     0.000 HD 
HETATM    4  C   UNL     1     -10.851  11.391  65.682  1.00  0.00    -0.218 A  
HETATM    5  C   UNL     1     -10.374   9.746  67.569  1.00  0.00    -0.237 A  
HETATM    6  C   UNL     1      -9.735  12.265  67.783  1.00  0.00    -0.199 C  
HETATM    7  C   UNL     1     -10.386  11.749  63.272  1.00  0.00    -0.402 A  
HETATM    8  C   UNL     1     -11.999  11.602  64.933  1.00  0.00     0.068 A  
HETATM    9  C   UNL     1     -10.493   8.599  66.794  1.00  0.00    -0.298 A  
HETATM   10  O   UNL     1      -9.018  12.178  68.773  1.00  0.00    -0.043 OA 
HETATM   11  C   UNL     1     -11.730  11.819  63.553  1.00  0.00    -0.485 A  
HETATM   12  C   UNL     1     -10.149   7.407  67.491  1.00  0.00    -0.250 A  
HETATM   13  S   UNL     1      -9.924   9.315  69.178  1.00  0.00    -0.186 SA 
HETATM   14  C   UNL     1      -9.798   7.660  68.795  1.00  0.00    -0.164 A  
HETATM   15  S   UNL     1      -9.458  11.375  64.656  1.00  0.00    -0.091 SA 
ENDROOT
BRANCH   6  16
HETATM   16  O   UNL     1      -9.803  13.439  67.074  1.00  0.00    -0.238 OA 
BRANCH  16  17
HETATM   17  C   UNL     1      -8.649  14.296  67.081  1.00  0.00    -0.216 C  
HETATM   18  N   UNL     1      -8.503  16.500  68.393  1.00  0.00    -0.199 N  
HETATM   19  C   UNL     1      -8.990  15.809  67.062  1.00  0.00    -0.224 C  
HETATM   20  C   UNL     1      -6.986  16.282  68.505  1.00  0.00    -0.143 C  
HETATM   21  C   UNL     1      -9.208  15.791  69.557  1.00  0.00    -0.215 C  
HETATM   22  C   UNL     1      -6.632  14.807  68.417  1.00  0.00    -0.101 C  
HETATM   23  C   UNL     1      -8.768  14.325  69.591  1.00  0.00     0.705 C  
HETATM   24  C   UNL     1      -7.894  13.962  68.376  1.00  0.00    -0.138 C  
BRANCH  18  25
HETATM   25  C   UNL     1      -8.916  17.999  68.301  1.00  0.00    -0.282 C  
BRANCH  25  26
HETATM   26  C   UNL     1      -9.999  18.506  69.268  1.00  0.00    -0.092 C  
BRANCH  26  27
HETATM   27  C   UNL     1     -10.924  17.417  69.793  1.00  0.00     0.727 C  
BRANCH  27  28
HETATM   28  O   UNL     1     -10.824  17.255  71.201  1.00  0.00     0.804 OA 
BRANCH  28  29
HETATM   29  C   UNL     1     -11.740  16.371  71.727  1.00  0.00    -0.324 A  
HETATM   30  C   UNL     1     -12.787  16.042  70.874  1.00  0.00     0.146 A  
HETATM   31  C   UNL     1     -13.807  15.185  71.297  1.00  0.00    -0.553 A  
HETATM   32  C   UNL     1     -13.772  14.631  72.575  1.00  0.00    -0.572 A  
HETATM   33  C   UNL     1     -12.713  14.922  73.423  1.00  0.00    -0.636 A  
HETATM   34  C   UNL     1     -11.696  15.784  73.001  1.00  0.00    -0.458 A  
ENDBRANCH  28  29
ENDBRANCH  27  28
ENDBRANCH  26  27
ENDBRANCH  25  26
ENDBRANCH  18  25
ENDBRANCH  16  17
ENDBRANCH   6  16
TORSDOF 7
ENDMDL
MODEL      212
REMARK 921   NORMALIZED FREE ENERGY PREDICTED BY IDOCK:    0.86 KCAL/MOL
REMARK 922        TOTAL FREE ENERGY PREDICTED BY IDOCK:   -0.43 KCAL/MOL
REMARK 923 INTER-LIGAND FREE ENERGY PREDICTED BY IDOCK:    0.43 KCAL/MOL
REMARK 924 INTRA-LIGAND FREE ENERGY PREDICTED BY IDOCK:   -0.86 KCAL/MOL
REMARK 927      BINDING AFFINITY PREDICTED BY RF-SCORE:    0.00 PKD
ROOT
HETATM    1  O   UNL     1      -9.344  17.658  69.060  1.00  0.00    -0.199 OA 
HETATM    2  C   UNL     1      -8.882  17.833  67.713  1.00  0.00    -0.249 C  
HETATM    3  H   UNL     1      -9.378  18.512  69.474  1.00  0.00     0.000 HD 
HETATM    4  C   UNL     1      -7.461  18.400  67.820  1.00  0.00    -0.229 A  
HETATM    5  C   UNL     1      -9.860  18.810  67.064  1.00  0.00    -0.325 A  
HETATM    6  C   UNL     1      -8.826  16.416  67.028  1.00  0.00    -0.199 C  
HETATM    7  C   UNL     1      -5.138  19.126  67.343  1.00  0.00    -0.161 A  
HETATM    8  C   UNL     1      -6.783  18.827  68.952  1.00  0.00    -0.303 A  
HETATM    9  C   UNL     1      -9.721  20.181  66.884  1.00  0.00    -0.582 A  
HETATM   10  O   UNL     1      -9.688  15.865  66.354  1.00  0.00    -0.250 OA 
HETATM   11  C   UNL     1      -5.446  19.232  68.679  1.00  0.00    -0.207 A  
HETATM   12  C   UNL     1     -10.870  20.793  66.307  1.00  0.00     1.373 A  
HETATM   13  S   UNL     1     -11.447  18.320  66.599  1.00  0.00     1.770 SA 
HETATM   14  C   UNL     1     -11.876  19.886  66.082  1.00  0.00     2.227 A  
HETATM   15  S   UNL     1      -6.467  18.588  66.416  1.00  0.00    -0.209 SA 
ENDROOT
BRANCH   6  16
HETATM   16  O   UNL     1      -7.656  15.764  67.331  1.00  0.00    -0.154 OA 
BRANCH  16  17
HETATM   17  C   UNL     1      -7.592  15.042  68.572  1.00  0.00    -0.118 C  
HETATM   18  N   UNL     1      -7.084  12.529  68.750  1.00  0.00    -0.097 N  
HETATM   19  C   UNL     1      -8.199  13.616  68.501  1.00  0.00    -0.112 C  
HETATM   20  C   UNL     1      -6.472  12.796  70.135  1.00  0.00     0.180 C  
HETATM   21  C   UNL     1      -6.010  12.725  67.671  1.00  0.00    -0.150 C  
HETATM   22  C   UNL     1      -5.969  14.226  70.250  1.00  0.00    -0.157 C  
HETATM   23  C   UNL     1      -5.376  14.108  67.839  1.00  0.00    -0.071 C  
HETATM   24  C   UNL     1      -6.099  14.941  68.915  1.00  0.00    -0.085 C  
BRANCH  18  25
HETATM   25  C   UNL     1      -7.773  11.138  68.627  1.00  0.00    -0.135 C  
BRANCH  25  26
HETATM   26  C   UNL     1      -8.490  10.581  69.868  1.00  0.00     0.230 C  
BRANCH  26  27
HETATM   27  C   UNL     1      -8.573   9.062  69.910  1.00  0.00    -0.140 C  
BRANCH  27  28
HETATM   28  O   UNL     1      -7.706   8.500  70.886  1.00  0.00    -0.072 OA 
BRANCH  28  29
HETATM   29  C   UNL     1      -8.356   7.758  71.847  1.00  0.00    -0.113 A  
HETATM   30  C   UNL     1      -8.372   6.387  71.611  1.00  0.00    -0.125 A  
HETATM   31  C   UNL     1      -9.032   5.522  72.489  1.00  0.00    -0.134 A  
HETATM   32  C   UNL     1      -9.664   6.024  73.625  1.00  0.00    -0.165 A  
HETATM   33  C   UNL     1      -9.623   7.386  73.892  1.00  0.00    -0.303 A  
HETATM   34  C   UNL     1      -8.968   8.250  73.010  1.00  0.00    -0.311 A  
ENDBRANCH  28  29
ENDBRANCH  27  28
ENDBRANCH  26  27
ENDBRANCH  25  26
ENDBRANCH  18  25
ENDBRANCH  16  17
ENDBRANCH   6  16
TORSDOF 7
ENDMDL
MODEL      213
REMARK 921   NORMALIZED FREE ENERGY PREDICTED BY IDOCK:    2.08 KCAL/MOL
REMARK 922        TOTAL FREE ENERGY PREDICTED BY IDOCK:    1.29 KCAL/MOL
REMARK 923 INTER-LIGAND FREE ENERGY PREDICTED BY IDOCK:   -1.40 KCAL/MOL
REMARK 924 INTRA-LIGAND FREE ENERGY PREDICTED BY IDOCK:    2.68 KCAL/MOL
REMARK 927      BINDING AFFINITY PREDICTED BY RF-SCORE:    0.00 PKD
ROOT
HETATM    1  O   UNL     1     -12.159  13.199  67.027  1.00  0.00    -0.376 OA 
HETATM    2  C   UNL     1     -10.867  13.819  66.936  1.00  0.00    -0.285 C  
HETATM    3  H   UNL     1     -12.790  13.867  67.269  1.00  0.00     0.000 HD 
HETATM    4  C   UNL     1     -10.542  14.334  68.344  1.00  0.00    -0.253 A  
HETATM    5  C   UNL     1     -11.020  14.945  65.916  1.00  0.00    -0.338 A  
HETATM    6  C   UNL     1      -9.822  12.712  66.534  1.00  0.00    -0.256 C  
HETATM    7  C   UNL     1      -9.390  15.205  70.360  1.00  0.00     0.829 A  
HETATM    8  C   UNL     1     -11.360  14.368  69.463  1.00  0.00    -0.318 A  
HETATM    9  C   UNL     1     -11.229  16.298  66.146  1.00  0.00     0.284 A  
HETATM   10  O   UNL     1      -9.434  12.407  65.413  1.00  0.00    -0.099 OA 
HETATM   11  C   UNL     1     -10.695  14.857  70.622  1.00  0.00     0.031 A  
HETATM   12  C   UNL     1     -11.402  17.054  64.953  1.00  0.00     0.436 A  
HETATM   13  S   UNL     1     -11.131  14.619  64.225  1.00  0.00     0.207 SA 
HETATM   14  C   UNL     1     -11.348  16.262  63.832  1.00  0.00     0.800 A  
HETATM   15  S   UNL     1      -8.985  14.991  68.715  1.00  0.00    -0.202 SA 
ENDROOT
BRANCH   6  16
HETATM   16  O   UNL     1      -9.393  12.010  67.634  1.00  0.00    -0.176 OA 
BRANCH  16  17
HETATM   17  C   UNL     1      -8.080  11.426  67.588  1.00  0.00    -0.124 C  
HETATM   18  N   UNL     1      -6.819  10.559  69.652  1.00  0.00    -0.100 N  
HETATM   19  C   UNL     1      -7.174  11.826  68.782  1.00  0.00    -0.113 C  
HETATM   20  C   UNL     1      -6.107   9.549  68.738  1.00  0.00    -0.043 C  
HETATM   21  C   UNL     1      -8.144   9.960  70.142  1.00  0.00    -0.146 C  
HETATM   22  C   UNL     1      -6.943   9.232  67.509  1.00  0.00    -0.078 C  
HETATM   23  C   UNL     1      -8.962   9.496  68.935  1.00  0.00    -0.141 C  
HETATM   24  C   UNL     1      -8.301   9.908  67.605  1.00  0.00    -0.114 C  
BRANCH  18  25
HETATM   25  C   UNL     1      -5.942  11.058  70.838  1.00  0.00     0.058 C  
BRANCH  25  26
HETATM   26  C   UNL     1      -5.499  12.530  70.834  1.00  0.00    -0.156 C  
BRANCH  26  27
HETATM   27  C   UNL     1      -6.089  13.355  69.699  1.00  0.00    -0.123 C  
BRANCH  27  28
HETATM   28  O   UNL     1      -5.127  14.208  69.094  1.00  0.00    -0.078 OA 
BRANCH  28  29
HETATM   29  C   UNL     1      -5.669  15.327  68.500  1.00  0.00    -0.095 A  
HETATM   30  C   UNL     1      -6.301  16.202  69.377  1.00  0.00    -0.179 A  
HETATM   31  C   UNL     1      -6.927  17.357  68.901  1.00  0.00    -0.244 A  
HETATM   32  C   UNL     1      -6.905  17.657  67.541  1.00  0.00    -0.185 A  
HETATM   33  C   UNL     1      -6.246  16.811  66.660  1.00  0.00    -0.130 A  
HETATM   34  C   UNL     1      -5.625  15.653  67.136  1.00  0.00     0.313 A  
ENDBRANCH  28  29
ENDBRANCH  27  28
ENDBRANCH  26  27
ENDBRANCH  25  26
ENDBRANCH  18  25
ENDBRANCH  16  17
ENDBRANCH   6  16
TORSDOF 7
ENDMDL
MODEL      214
REMARK 921   NORMALIZED FREE ENERGY PREDICTED BY IDOCK:    3.11 KCAL/MOL
REMARK 922        TOTAL FREE ENERGY PREDICTED BY IDOCK:    2.74 KCAL/MOL
REMARK 923 INTER-LIGAND FREE ENERGY PREDICTED BY IDOCK:   -1.10 KCAL/MOL
REMARK 924 INTRA-LIGAND FREE ENERGY PREDICTED BY IDOCK:    3.84 KCAL/MOL
REMARK 927      BINDING AFFINITY PREDICTED BY RF-SCORE:    0.00 PKD
ROOT
HETATM    1  O   UNL     1      -8.086   9.148  68.042  1.00  0.00    -0.104 OA 
HETATM    2  C   UNL     1      -8.498  10.170  68.963  1.00  0.00    -0.151 C  
HETATM    3  H   UNL     1      -7.386   8.650  68.449  1.00  0.00     0.000 HD 
HETATM    4  C   UNL     1      -7.280  11.080  69.163  1.00  0.00    -0.121 A  
HETATM    5  C   UNL     1      -8.904   9.436  70.239  1.00  0.00    -0.236 A  
HETATM    6  C   UNL     1      -9.657  10.995  68.288  1.00  0.00    -0.171 C  
HETATM    7  C   UNL     1      -5.781  12.968  69.744  1.00  0.00    -0.114 A  
HETATM    8  C   UNL     1      -5.982  10.902  68.707  1.00  0.00    -0.039 A  
HETATM    9  C   UNL     1      -8.159   9.232  71.394  1.00  0.00     0.136 A  
HETATM   10  O   UNL     1     -10.866  10.823  68.386  1.00  0.00    -0.198 OA 
HETATM   11  C   UNL     1      -5.126  11.992  69.030  1.00  0.00    -0.055 A  
HETATM   12  C   UNL     1      -8.828   8.434  72.364  1.00  0.00    -0.294 A  
HETATM   13  S   UNL     1     -10.385   8.557  70.340  1.00  0.00    -0.208 SA 
HETATM   14  C   UNL     1     -10.061   8.019  71.924  1.00  0.00    -0.203 A  
HETATM   15  S   UNL     1      -7.405  12.551  70.065  1.00  0.00     1.780 SA 
ENDROOT
BRANCH   6  16
HETATM   16  O   UNL     1      -9.158  11.966  67.456  1.00  0.00    -0.169 OA 
BRANCH  16  17
HETATM   17  C   UNL     1      -8.680  11.560  66.162  1.00  0.00    -0.131 C  
HETATM   18  N   UNL     1      -9.132   9.255  65.120  1.00  0.00    -0.219 N  
HETATM   19  C   UNL     1      -8.214  10.082  66.100  1.00  0.00    -0.121 C  
HETATM   20  C   UNL     1      -9.049   9.914  63.734  1.00  0.00    -0.256 C  
HETATM   21  C   UNL     1     -10.569   9.358  65.649  1.00  0.00     0.940 C  
HETATM   22  C   UNL     1      -9.401  11.391  63.803  1.00  0.00    -0.118 C  
HETATM   23  C   UNL     1     -11.017  10.821  65.603  1.00  0.00     0.033 C  
HETATM   24  C   UNL     1      -9.862  11.759  65.203  1.00  0.00    -0.263 C  
BRANCH  18  25
HETATM   25  C   UNL     1      -8.615   7.786  65.148  1.00  0.00     0.001 C  
BRANCH  25  26
HETATM   26  C   UNL     1      -8.380   7.134  66.520  1.00  0.00    -0.117 C  
BRANCH  26  27
HETATM   27  C   UNL     1      -9.438   6.112  66.914  1.00  0.00    -0.136 C  
BRANCH  27  28
HETATM   28  O   UNL     1      -8.897   4.807  67.068  1.00  0.00    -0.108 OA 
BRANCH  28  29
HETATM   29  C   UNL     1      -8.551   4.497  68.365  1.00  0.00    -0.094 A  
HETATM   30  C   UNL     1      -8.340   3.143  68.601  1.00  0.00    -0.085 A  
HETATM   31  C   UNL     1      -8.021   2.686  69.884  1.00  0.00    -0.053 A  
HETATM   32  C   UNL     1      -7.888   3.590  70.936  1.00  0.00    -0.047 A  
HETATM   33  C   UNL     1      -8.060   4.948  70.705  1.00  0.00    -0.087 A  
HETATM   34  C   UNL     1      -8.385   5.402  69.423  1.00  0.00    -0.096 A  
ENDBRANCH  28  29
ENDBRANCH  27  28
ENDBRANCH  26  27
ENDBRANCH  25  26
ENDBRANCH  18  25
ENDBRANCH  16  17
ENDBRANCH   6  16
TORSDOF 7
ENDMDL
MODEL      215
REMARK 921   NORMALIZED FREE ENERGY PREDICTED BY IDOCK:    3.12 KCAL/MOL
REMARK 922        TOTAL FREE ENERGY PREDICTED BY IDOCK:    2.74 KCAL/MOL
REMARK 923 INTER-LIGAND FREE ENERGY PREDICTED BY IDOCK:   -0.35 KCAL/MOL
REMARK 924 INTRA-LIGAND FREE ENERGY PREDICTED BY IDOCK:    3.10 KCAL/MOL
REMARK 927      BINDING AFFINITY PREDICTED BY RF-SCORE:    0.00 PKD
ROOT
HETATM    1  O   UNL     1      -8.176   9.422  68.034  1.00  0.00    -0.113 OA 
HETATM    2  C   UNL     1      -8.578  10.442  68.960  1.00  0.00    -0.157 C  
HETATM    3  H   UNL     1      -7.477   8.918  68.435  1.00  0.00     0.000 HD 
HETATM    4  C   UNL     1      -7.353  11.343  69.159  1.00  0.00    -0.081 A  
HETATM    5  C   UNL     1      -8.983   9.705  70.235  1.00  0.00    -0.219 A  
HETATM    6  C   UNL     1      -9.735  11.277  68.294  1.00  0.00    -0.198 C  
HETATM    7  C   UNL     1      -5.840  13.220  69.741  1.00  0.00    -0.122 A  
HETATM    8  C   UNL     1      -6.059  11.160  68.696  1.00  0.00    -0.043 A  
HETATM    9  C   UNL     1      -8.234   9.492  71.386  1.00  0.00     0.559 A  
HETATM   10  O   UNL     1     -10.945  11.112  68.397  1.00  0.00    -0.194 OA 
HETATM   11  C   UNL     1      -5.194  12.243  69.020  1.00  0.00    -0.055 A  
HETATM   12  C   UNL     1      -8.904   8.694  72.356  1.00  0.00    -0.181 A  
HETATM   13  S   UNL     1     -10.469   8.836  70.340  1.00  0.00    -0.219 SA 
HETATM   14  C   UNL     1     -10.141   8.289  71.919  1.00  0.00    -0.245 A  
HETATM   15  S   UNL     1      -7.465  12.812  70.067  1.00  0.00     2.016 SA 
ENDROOT
BRANCH   6  16
HETATM   16  O   UNL     1      -9.233  12.248  67.463  1.00  0.00    -0.171 OA 
BRANCH  16  17
HETATM   17  C   UNL     1      -8.777  11.847  66.160  1.00  0.00    -0.009 C  
HETATM   18  N   UNL     1      -9.287   9.563  65.099  1.00  0.00    -0.259 N  
HETATM   19  C   UNL     1      -8.342  10.360  66.078  1.00  0.00    -0.149 C  
HETATM   20  C   UNL     1      -9.205  10.235  63.719  1.00  0.00    -0.275 C  
HETATM   21  C   UNL     1     -10.716   9.689  65.644  1.00  0.00     0.845 C  
HETATM   22  C   UNL     1      -9.527  11.718  63.807  1.00  0.00    -0.082 C  
HETATM   23  C   UNL     1     -11.134  11.161  65.619  1.00  0.00    -0.078 C  
HETATM   24  C   UNL     1      -9.965  12.081  65.216  1.00  0.00    -0.273 C  
BRANCH  18  25
HETATM   25  C   UNL     1      -8.799   8.084  65.105  1.00  0.00     0.106 C  
BRANCH  25  26
HETATM   26  C   UNL     1      -7.687   7.692  64.119  1.00  0.00    -0.128 C  
BRANCH  26  27
HETATM   27  C   UNL     1      -6.651   6.737  64.696  1.00  0.00    -0.042 C  
BRANCH  27  28
HETATM   28  O   UNL     1      -6.626   5.490  64.015  1.00  0.00    -0.032 OA 
BRANCH  28  29
HETATM   29  C   UNL     1      -7.328   4.491  64.654  1.00  0.00    -0.071 A  
HETATM   30  C   UNL     1      -7.602   3.378  63.868  1.00  0.00    -0.071 A  
HETATM   31  C   UNL     1      -8.341   2.308  64.382  1.00  0.00    -0.083 A  
HETATM   32  C   UNL     1      -8.792   2.338  65.700  1.00  0.00    -0.124 A  
HETATM   33  C   UNL     1      -8.494   3.427  66.506  1.00  0.00    -0.109 A  
HETATM   34  C   UNL     1      -7.760   4.499  65.989  1.00  0.00    -0.094 A  
ENDBRANCH  28  29
ENDBRANCH  27  28
ENDBRANCH  26  27
ENDBRANCH  25  26
ENDBRANCH  18  25
ENDBRANCH  16  17
ENDBRANCH   6  16
TORSDOF 7
ENDMDL
MODEL      216
REMARK 921   NORMALIZED FREE ENERGY PREDICTED BY IDOCK:    4.36 KCAL/MOL
REMARK 922        TOTAL FREE ENERGY PREDICTED BY IDOCK:    4.49 KCAL/MOL
REMARK 923 INTER-LIGAND FREE ENERGY PREDICTED BY IDOCK:    0.11 KCAL/MOL
REMARK 924 INTRA-LIGAND FREE ENERGY PREDICTED BY IDOCK:    4.38 KCAL/MOL
REMARK 927      BINDING AFFINITY PREDICTED BY RF-SCORE:    0.00 PKD
ROOT
HETATM    1  O   UNL     1      -8.191   8.079  68.411  1.00  0.00    -0.120 OA 
HETATM    2  C   UNL     1      -9.453   7.549  68.844  1.00  0.00    -0.145 C  
HETATM    3  H   UNL     1      -7.527   7.805  69.033  1.00  0.00     0.000 HD 
HETATM    4  C   UNL     1      -9.740   8.191  70.207  1.00  0.00    -0.175 A  
HETATM    5  C   UNL     1      -9.258   6.037  68.932  1.00  0.00    -0.124 A  
HETATM    6  C   UNL     1     -10.553   8.005  67.813  1.00  0.00    -0.170 C  
HETATM    7  C   UNL     1     -10.830   9.001  72.282  1.00  0.00    -0.019 A  
HETATM    8  C   UNL     1      -8.911   8.991  70.978  1.00  0.00    -0.291 A  
HETATM    9  C   UNL     1      -8.983   5.265  70.054  1.00  0.00    -0.154 A  
HETATM   10  O   UNL     1     -10.965   7.404  66.829  1.00  0.00    -0.249 OA 
HETATM   11  C   UNL     1      -9.541   9.465  72.163  1.00  0.00     0.997 A  
HETATM   12  C   UNL     1      -8.786   3.887  69.756  1.00  0.00    -0.143 A  
HETATM   13  S   UNL     1      -9.178   5.055  67.516  1.00  0.00    -0.124 SA 
HETATM   14  C   UNL     1      -8.888   3.634  68.410  1.00  0.00    -0.114 A  
HETATM   15  S   UNL     1     -11.261   7.960  70.999  1.00  0.00    -0.273 SA 
ENDROOT
BRANCH   6  16
HETATM   16  O   UNL     1     -11.003   9.272  68.094  1.00  0.00    -0.138 OA 
BRANCH  16  17
HETATM   17  C   UNL     1     -10.093  10.181  68.735  1.00  0.00    -0.187 C  
HETATM   18  N   UNL     1      -9.733  12.615  67.996  1.00  0.00    -0.210 N  
HETATM   19  C   UNL     1      -9.335  11.109  67.751  1.00  0.00    -0.164 C  
HETATM   20  C   UNL     1      -9.383  12.960  69.453  1.00  0.00     1.216 C  
HETATM   21  C   UNL     1     -11.251  12.722  67.796  1.00  0.00    -0.275 C  
HETATM   22  C   UNL     1     -10.037  11.988  70.422  1.00  0.00     3.479 C  
HETATM   23  C   UNL     1     -11.957  11.864  68.848  1.00  0.00    -0.313 C  
HETATM   24  C   UNL     1     -10.955  11.035  69.676  1.00  0.00    -0.286 C  
BRANCH  18  25
HETATM   25  C   UNL     1      -8.956  13.465  66.948  1.00  0.00    -0.209 C  
BRANCH  25  26
HETATM   26  C   UNL     1      -8.499  14.873  67.362  1.00  0.00    -0.212 C  
BRANCH  26  27
HETATM   27  C   UNL     1      -9.460  15.983  66.960  1.00  0.00    -0.218 C  
BRANCH  27  28
HETATM   28  O   UNL     1      -9.073  17.248  67.478  1.00  0.00    -0.221 OA 
BRANCH  28  29
HETATM   29  C   UNL     1      -7.831  17.668  67.053  1.00  0.00    -0.215 A  
HETATM   30  C   UNL     1      -7.450  18.920  67.522  1.00  0.00    -0.244 A  
HETATM   31  C   UNL     1      -6.229  19.483  67.136  1.00  0.00    -0.194 A  
HETATM   32  C   UNL     1      -5.371  18.782  66.292  1.00  0.00    -0.167 A  
HETATM   33  C   UNL     1      -5.724  17.515  65.846  1.00  0.00    -0.097 A  
HETATM   34  C   UNL     1      -6.947  16.957  66.229  1.00  0.00    -0.131 A  
ENDBRANCH  28  29
ENDBRANCH  27  28
ENDBRANCH  26  27
ENDBRANCH  25  26
ENDBRANCH  18  25
ENDBRANCH  16  17
ENDBRANCH   6  16
TORSDOF 7
ENDMDL
MODEL      217
REMARK 921   NORMALIZED FREE ENERGY PREDICTED BY IDOCK:    4.43 KCAL/MOL
REMARK 922        TOTAL FREE ENERGY PREDICTED BY IDOCK:    4.59 KCAL/MOL
REMARK 923 INTER-LIGAND FREE ENERGY PREDICTED BY IDOCK:    2.98 KCAL/MOL
REMARK 924 INTRA-LIGAND FREE ENERGY PREDICTED BY IDOCK:    1.61 KCAL/MOL
REMARK 927      BINDING AFFINITY PREDICTED BY RF-SCORE:    0.00 PKD
ROOT
HETATM    1  O   UNL     1     -10.176  11.051  70.879  1.00  0.00     1.246 OA 
HETATM    2  C   UNL     1     -11.415  11.480  70.294  1.00  0.00    -0.099 C  
HETATM    3  H   UNL     1     -10.304  10.972  71.817  1.00  0.00     0.000 HD 
HETATM    4  C   UNL     1     -11.707  12.865  70.884  1.00  0.00     0.628 A  
HETATM    5  C   UNL     1     -12.449  10.433  70.704  1.00  0.00    -0.348 A  
HETATM    6  C   UNL     1     -11.201  11.612  68.740  1.00  0.00    -0.245 C  
HETATM    7  C   UNL     1     -12.617  15.131  71.318  1.00  0.00    -0.353 A  
HETATM    8  C   UNL     1     -11.036  13.534  71.896  1.00  0.00     4.131 A  
HETATM    9  C   UNL     1     -13.365  10.485  71.747  1.00  0.00    -0.446 A  
HETATM   10  O   UNL     1     -11.415  10.774  67.872  1.00  0.00    -0.421 OA 
HETATM   11  C   UNL     1     -11.552  14.839  72.136  1.00  0.00    -0.142 A  
HETATM   12  C   UNL     1     -14.129   9.292  71.887  1.00  0.00    -0.287 A  
HETATM   13  S   UNL     1     -12.488   8.871  69.972  1.00  0.00     1.341 SA 
HETATM   14  C   UNL     1     -13.765   8.339  70.966  1.00  0.00     0.135 A  
HETATM   15  S   UNL     1     -13.025  13.822  70.300  1.00  0.00     0.273 SA 
ENDROOT
BRANCH   6  16
HETATM   16  O   UNL     1     -10.644  12.824  68.415  1.00  0.00    -0.236 OA 
BRANCH  16  17
HETATM   17  C   UNL     1     -11.415  13.720  67.597  1.00  0.00    -0.323 C  
HETATM   18  N   UNL     1     -11.090  16.269  67.556  1.00  0.00    -0.207 N  
HETATM   19  C   UNL     1     -11.774  15.057  68.298  1.00  0.00    -0.314 C  
HETATM   20  C   UNL     1     -11.582  16.264  66.100  1.00  0.00     0.842 C  
HETATM   21  C   UNL     1      -9.576  16.021  67.585  1.00  0.00    -0.218 C  
HETATM   22  C   UNL     1     -11.331  14.919  65.437  1.00  0.00    -0.346 C  
HETATM   23  C   UNL     1      -9.262  14.744  66.803  1.00  0.00    -0.282 C  
HETATM   24  C   UNL     1     -10.545  14.010  66.367  1.00  0.00    -0.280 C  
BRANCH  18  25
HETATM   25  C   UNL     1     -11.476  17.555  68.344  1.00  0.00     0.827 C  
BRANCH  25  26
HETATM   26  C   UNL     1     -11.160  18.914  67.697  1.00  0.00    -0.117 C  
BRANCH  26  27
HETATM   27  C   UNL     1      -9.708  19.079  67.270  1.00  0.00    -0.314 C  
BRANCH  27  28
HETATM   28  O   UNL     1      -9.085  20.195  67.890  1.00  0.00    -0.318 OA 
BRANCH  28  29
HETATM   29  C   UNL     1      -7.765  19.984  68.222  1.00  0.00    -0.212 A  
HETATM   30  C   UNL     1      -7.549  19.629  69.549  1.00  0.00    -0.026 A  
HETATM   31  C   UNL     1      -6.252  19.424  70.028  1.00  0.00    -0.266 A  
HETATM   32  C   UNL     1      -5.160  19.552  69.172  1.00  0.00    -0.194 A  
HETATM   33  C   UNL     1      -5.365  19.870  67.836  1.00  0.00    -0.202 A  
HETATM   34  C   UNL     1      -6.662  20.080  67.360  1.00  0.00    -0.252 A  
ENDBRANCH  28  29
ENDBRANCH  27  28
ENDBRANCH  26  27
ENDBRANCH  25  26
ENDBRANCH  18  25
ENDBRANCH  16  17
ENDBRANCH   6  16
TORSDOF 7
ENDMDL
MODEL      218
REMARK 921   NORMALIZED FREE ENERGY PREDICTED BY IDOCK:    4.68 KCAL/MOL
REMARK 922        TOTAL FREE ENERGY PREDICTED BY IDOCK:    4.94 KCAL/MOL
REMARK 923 INTER-LIGAND FREE ENERGY PREDICTED BY IDOCK:   -0.43 KCAL/MOL
REMARK 924 INTRA-LIGAND FREE ENERGY PREDICTED BY IDOCK:    5.37 KCAL/MOL
REMARK 927      BINDING AFFINITY PREDICTED BY RF-SCORE:    0.00 PKD
ROOT
HETATM    1  O   UNL     1      -9.667   8.862  67.727  1.00  0.00    -0.151 OA 
HETATM    2  C   UNL     1      -8.836   9.441  66.709  1.00  0.00    -0.127 C  
HETATM    3  H   UNL     1      -9.306   9.102  68.573  1.00  0.00     0.000 HD 
HETATM    4  C   UNL     1      -7.453   8.798  66.870  1.00  0.00    -0.090 A  
HETATM    5  C   UNL     1      -8.827  10.942  66.988  1.00  0.00    -0.140 A  
HETATM    6  C   UNL     1      -9.434   9.042  65.307  1.00  0.00    -0.023 C  
HETATM    7  C   UNL     1      -5.128   8.016  66.509  1.00  0.00    -0.024 A  
HETATM    8  C   UNL     1      -7.002   7.957  67.876  1.00  0.00    -0.077 A  
HETATM    9  C   UNL     1      -7.867  11.691  67.657  1.00  0.00    -0.135 A  
HETATM   10  O   UNL     1     -10.225   9.670  64.614  1.00  0.00     0.241 OA 
HETATM   11  C   UNL     1      -5.672   7.498  67.661  1.00  0.00    -0.035 A  
HETATM   12  C   UNL     1      -8.221  13.062  67.801  1.00  0.00    -0.168 A  
HETATM   13  S   UNL     1     -10.192  11.934  66.628  1.00  0.00    -0.213 SA 
HETATM   14  C   UNL     1      -9.456  13.333  67.263  1.00  0.00    -0.233 A  
HETATM   15  S   UNL     1      -6.196   9.086  65.716  1.00  0.00    -0.056 SA 
ENDROOT
BRANCH   6  16
HETATM   16  O   UNL     1      -9.011   7.793  64.923  1.00  0.00     0.210 OA 
BRANCH  16  17
HETATM   17  C   UNL     1      -8.676   6.851  65.956  1.00  0.00    -0.141 C  
HETATM   18  N   UNL     1     -10.378   5.297  67.092  1.00  0.00    -0.219 N  
HETATM   19  C   UNL     1      -9.744   6.740  67.076  1.00  0.00    -0.156 C  
HETATM   20  C   UNL     1      -9.240   4.289  67.319  1.00  0.00    -0.150 C  
HETATM   21  C   UNL     1     -11.002   5.059  65.710  1.00  0.00     0.082 C  
HETATM   22  C   UNL     1      -8.136   4.461  66.289  1.00  0.00    -0.102 C  
HETATM   23  C   UNL     1      -9.898   5.084  64.650  1.00  0.00     0.393 C  
HETATM   24  C   UNL     1      -8.539   5.495  65.250  1.00  0.00    -0.149 C  
BRANCH  18  25
HETATM   25  C   UNL     1     -11.456   5.289  68.216  1.00  0.00     2.300 C  
BRANCH  25  26
HETATM   26  C   UNL     1     -11.114   5.989  69.542  1.00  0.00    -0.468 C  
BRANCH  26  27
HETATM   27  C   UNL     1      -9.632   5.971  69.892  1.00  0.00    -0.158 C  
BRANCH  27  28
HETATM   28  O   UNL     1      -9.384   5.386  71.163  1.00  0.00    -0.145 OA 
BRANCH  28  29
HETATM   29  C   UNL     1      -9.232   6.303  72.179  1.00  0.00    -0.144 A  
HETATM   30  C   UNL     1     -10.020   6.065  73.300  1.00  0.00    -0.189 A  
HETATM   31  C   UNL     1      -9.992   6.941  74.389  1.00  0.00    -0.237 A  
HETATM   32  C   UNL     1      -9.153   8.054  74.371  1.00  0.00     0.453 A  
HETATM   33  C   UNL     1      -8.334   8.283  73.273  1.00  0.00    -0.251 A  
HETATM   34  C   UNL     1      -8.368   7.408  72.183  1.00  0.00    -0.122 A  
ENDBRANCH  28  29
ENDBRANCH  27  28
ENDBRANCH  26  27
ENDBRANCH  25  26
ENDBRANCH  18  25
ENDBRANCH  16  17
ENDBRANCH   6  16
TORSDOF 7
ENDMDL
MODEL      219
REMARK 921   NORMALIZED FREE ENERGY PREDICTED BY IDOCK:    6.23 KCAL/MOL
REMARK 922        TOTAL FREE ENERGY PREDICTED BY IDOCK:    7.13 KCAL/MOL
REMARK 923 INTER-LIGAND FREE ENERGY PREDICTED BY IDOCK:    5.97 KCAL/MOL
REMARK 924 INTRA-LIGAND FREE ENERGY PREDICTED BY IDOCK:    1.16 KCAL/MOL
REMARK 927      BINDING AFFINITY PREDICTED BY RF-SCORE:    0.00 PKD
ROOT
HETATM    1  O   UNL     1      -7.908   5.408  70.622  1.00  0.00    -0.086 OA 
HETATM    2  C   UNL     1      -8.478   6.172  69.549  1.00  0.00    -0.120 C  
HETATM    3  H   UNL     1      -8.524   4.723  70.856  1.00  0.00     0.000 HD 
HETATM    4  C   UNL     1      -9.754   6.810  70.111  1.00  0.00    -0.167 A  
HETATM    5  C   UNL     1      -8.761   5.169  68.433  1.00  0.00    -0.101 A  
HETATM    6  C   UNL     1      -7.457   7.307  69.162  1.00  0.00    -0.093 C  
HETATM    7  C   UNL     1     -11.757   8.230  70.466  1.00  0.00    -0.066 A  
HETATM    8  C   UNL     1     -10.363   6.593  71.338  1.00  0.00    -0.225 A  
HETATM    9  C   UNL     1      -9.961   4.545  68.115  1.00  0.00    -0.098 A  
HETATM   10  O   UNL     1      -6.588   7.282  68.299  1.00  0.00    -0.046 OA 
HETATM   11  C   UNL     1     -11.504   7.416  71.545  1.00  0.00    -0.292 A  
HETATM   12  C   UNL     1      -9.843   3.604  67.053  1.00  0.00     0.031 A  
HETATM   13  S   UNL     1      -7.490   4.511  67.469  1.00  0.00    -0.074 SA 
HETATM   14  C   UNL     1      -8.552   3.505  66.596  1.00  0.00    -0.113 A  
HETATM   15  S   UNL     1     -10.653   7.967  69.190  1.00  0.00    -0.124 SA 
ENDROOT
BRANCH   6  16
HETATM   16  O   UNL     1      -7.586   8.395  69.989  1.00  0.00    -0.065 OA 
BRANCH  16  17
HETATM   17  C   UNL     1      -6.593   9.431  69.897  1.00  0.00    -0.055 C  
HETATM   18  N   UNL     1      -7.131  11.907  69.474  1.00  0.00     0.046 N  
HETATM   19  C   UNL     1      -6.895  10.496  68.811  1.00  0.00    -0.060 C  
HETATM   20  C   UNL     1      -5.862  12.272  70.261  1.00  0.00    -0.166 C  
HETATM   21  C   UNL     1      -8.310  11.760  70.445  1.00  0.00     4.303 C  
HETATM   22  C   UNL     1      -5.497  11.182  71.255  1.00  0.00     0.032 C  
HETATM   23  C   UNL     1      -7.930  10.771  71.549  1.00  0.00     5.638 C  
HETATM   24  C   UNL     1      -6.568  10.104  71.275  1.00  0.00     0.419 C  
BRANCH  18  25
HETATM   25  C   UNL     1      -7.459  12.899  68.319  1.00  0.00    -0.125 C  
BRANCH  25  26
HETATM   26  C   UNL     1      -8.856  12.820  67.681  1.00  0.00    -0.189 C  
BRANCH  26  27
HETATM   27  C   UNL     1      -9.009  13.647  66.412  1.00  0.00     0.033 C  
BRANCH  27  28
HETATM   28  O   UNL     1      -9.734  14.848  66.633  1.00  0.00    -0.239 OA 
BRANCH  28  29
HETATM   29  C   UNL     1     -10.542  14.814  67.749  1.00  0.00    -0.257 A  
HETATM   30  C   UNL     1     -10.841  13.537  68.210  1.00  0.00    -0.277 A  
HETATM   31  C   UNL     1     -11.684  13.358  69.312  1.00  0.00    -0.383 A  
HETATM   32  C   UNL     1     -12.214  14.463  69.975  1.00  0.00    -0.408 A  
HETATM   33  C   UNL     1     -11.893  15.744  69.546  1.00  0.00    -0.359 A  
HETATM   34  C   UNL     1     -11.055  15.921  68.441  1.00  0.00    -0.345 A  
ENDBRANCH  28  29
ENDBRANCH  27  28
ENDBRANCH  26  27
ENDBRANCH  25  26
ENDBRANCH  18  25
ENDBRANCH  16  17
ENDBRANCH   6  16
TORSDOF 7
ENDMDL
MODEL      220
REMARK 921   NORMALIZED FREE ENERGY PREDICTED BY IDOCK:    6.37 KCAL/MOL
REMARK 922        TOTAL FREE ENERGY PREDICTED BY IDOCK:    7.32 KCAL/MOL
REMARK 923 INTER-LIGAND FREE ENERGY PREDICTED BY IDOCK:   -5.69 KCAL/MOL
REMARK 924 INTRA-LIGAND FREE ENERGY PREDICTED BY IDOCK:   13.01 KCAL/MOL
REMARK 927      BINDING AFFINITY PREDICTED BY RF-SCORE:    0.00 PKD
ROOT
HETATM    1  O   UNL     1      -9.364  15.138  68.691  1.00  0.00    -0.184 OA 
HETATM    2  C   UNL     1     -10.682  14.608  68.483  1.00  0.00    -0.247 C  
HETATM    3  H   UNL     1      -8.976  14.682  69.429  1.00  0.00     0.000 HD 
HETATM    4  C   UNL     1     -11.478  14.933  69.753  1.00  0.00    -0.295 A  
HETATM    5  C   UNL     1     -10.494  13.107  68.271  1.00  0.00    -0.250 A  
HETATM    6  C   UNL     1     -11.324  15.364  67.260  1.00  0.00    -0.220 C  
HETATM    7  C   UNL     1     -13.291  15.308  71.403  1.00  0.00    -0.491 A  
HETATM    8  C   UNL     1     -11.022  15.473  70.946  1.00  0.00    -0.333 A  
HETATM    9  C   UNL     1     -10.642  12.078  69.193  1.00  0.00    -0.067 A  
HETATM   10  O   UNL     1     -11.319  15.037  66.079  1.00  0.00    -0.338 OA 
HETATM   11  C   UNL     1     -12.064  15.699  71.887  1.00  0.00    -0.513 A  
HETATM   12  C   UNL     1     -10.312  10.797  68.667  1.00  0.00    -0.208 A  
HETATM   13  S   UNL     1      -9.861  12.478  66.794  1.00  0.00    -0.234 SA 
HETATM   14  C   UNL     1      -9.892  10.872  67.361  1.00  0.00    -0.173 A  
HETATM   15  S   UNL     1     -13.178  14.626  69.842  1.00  0.00     0.847 SA 
ENDROOT
BRANCH   6  16
HETATM   16  O   UNL     1     -11.880  16.557  67.649  1.00  0.00     0.342 OA 
BRANCH  16  17
HETATM   17  C   UNL     1     -11.029  17.512  68.305  1.00  0.00    -0.099 C  
HETATM   18  N   UNL     1      -8.493  17.219  68.594  1.00  0.00    -0.268 N  
HETATM   19  C   UNL     1      -9.917  16.869  69.174  1.00  0.00    -0.239 C  
HETATM   20  C   UNL     1      -8.358  18.750  68.576  1.00  0.00    -0.346 C  
HETATM   21  C   UNL     1      -8.446  16.686  67.155  1.00  0.00    -0.189 C  
HETATM   22  C   UNL     1      -9.504  19.397  67.816  1.00  0.00    -0.406 C  
HETATM   23  C   UNL     1      -9.496  17.415  66.315  1.00  0.00    -0.247 C  
HETATM   24  C   UNL     1     -10.383  18.332  67.180  1.00  0.00    -0.402 C  
BRANCH  18  25
HETATM   25  C   UNL     1      -7.447  16.508  69.503  1.00  0.00     0.042 C  
BRANCH  25  26
HETATM   26  C   UNL     1      -5.963  16.850  69.293  1.00  0.00    -0.190 C  
BRANCH  26  27
HETATM   27  C   UNL     1      -5.142  16.876  70.575  1.00  0.00    -0.229 C  
BRANCH  27  28
HETATM   28  O   UNL     1      -5.338  15.712  71.366  1.00  0.00    -0.074 OA 
BRANCH  28  29
HETATM   29  C   UNL     1      -5.349  14.541  70.641  1.00  0.00    -0.131 A  
HETATM   30  C   UNL     1      -5.526  13.389  71.400  1.00  0.00    -0.187 A  
HETATM   31  C   UNL     1      -5.519  12.130  70.793  1.00  0.00    -0.151 A  
HETATM   32  C   UNL     1      -5.355  12.017  69.414  1.00  0.00    -0.062 A  
HETATM   33  C   UNL     1      -5.214  13.161  68.641  1.00  0.00    -0.069 A  
HETATM   34  C   UNL     1      -5.216  14.419  69.249  1.00  0.00    -0.078 A  
ENDBRANCH  28  29
ENDBRANCH  27  28
ENDBRANCH  26  27
ENDBRANCH  25  26
ENDBRANCH  18  25
ENDBRANCH  16  17
ENDBRANCH   6  16
TORSDOF 7
ENDMDL
MODEL      221
REMARK 921   NORMALIZED FREE ENERGY PREDICTED BY IDOCK:    6.79 KCAL/MOL
REMARK 922        TOTAL FREE ENERGY PREDICTED BY IDOCK:    7.92 KCAL/MOL
REMARK 923 INTER-LIGAND FREE ENERGY PREDICTED BY IDOCK:   -5.44 KCAL/MOL
REMARK 924 INTRA-LIGAND FREE ENERGY PREDICTED BY IDOCK:   13.36 KCAL/MOL
REMARK 927      BINDING AFFINITY PREDICTED BY RF-SCORE:    0.00 PKD
ROOT
HETATM    1  O   UNL     1     -10.395  10.157  70.267  1.00  0.00    -0.352 OA 
HETATM    2  C   UNL     1      -9.484   9.057  70.115  1.00  0.00    -0.195 C  
HETATM    3  H   UNL     1     -11.279   9.808  70.281  1.00  0.00     0.000 HD 
HETATM    4  C   UNL     1      -9.801   8.426  68.754  1.00  0.00    -0.173 A  
HETATM    5  C   UNL     1      -9.773   8.117  71.284  1.00  0.00    -0.164 A  
HETATM    6  C   UNL     1      -8.020   9.636  70.091  1.00  0.00    -0.176 C  
HETATM    7  C   UNL     1      -9.707   7.116  66.650  1.00  0.00    -0.170 A  
HETATM    8  C   UNL     1     -10.846   8.713  67.889  1.00  0.00    -0.061 A  
HETATM    9  C   UNL     1     -10.556   6.969  71.297  1.00  0.00    -0.238 A  
HETATM   10  O   UNL     1      -7.244   9.774  71.029  1.00  0.00    -0.332 OA 
HETATM   11  C   UNL     1     -10.784   7.970  66.677  1.00  0.00     0.105 A  
HETATM   12  C   UNL     1     -10.668   6.377  72.587  1.00  0.00    -0.262 A  
HETATM   13  S   UNL     1      -9.264   8.493  72.889  1.00  0.00     0.016 SA 
HETATM   14  C   UNL     1      -9.991   7.097  73.541  1.00  0.00    -0.302 A  
HETATM   15  S   UNL     1      -8.803   7.174  68.098  1.00  0.00    -0.125 SA 
ENDROOT
BRANCH   6  16
HETATM   16  O   UNL     1      -7.679  10.075  68.835  1.00  0.00    -0.080 OA 
BRANCH  16  17
HETATM   17  C   UNL     1      -8.159   9.323  67.708  1.00  0.00    -0.104 C  
HETATM   18  N   UNL     1      -8.649  10.344  65.402  1.00  0.00    -0.168 N  
HETATM   19  C   UNL     1      -9.209  10.077  66.851  1.00  0.00    -0.147 C  
HETATM   20  C   UNL     1      -8.306   8.982  64.775  1.00  0.00    -0.173 C  
HETATM   21  C   UNL     1      -7.366  11.172  65.556  1.00  0.00     0.340 C  
HETATM   22  C   UNL     1      -7.359   8.189  65.661  1.00  0.00    -0.076 C  
HETATM   23  C   UNL     1      -6.329  10.351  66.326  1.00  0.00    -0.097 C  
HETATM   24  C   UNL     1      -6.921   9.029  66.850  1.00  0.00    -0.078 C  
BRANCH  18  25
HETATM   25  C   UNL     1      -9.749  11.130  64.629  1.00  0.00    -0.262 C  
BRANCH  25  26
HETATM   26  C   UNL     1      -9.788  12.658  64.794  1.00  0.00    -0.064 C  
BRANCH  26  27
HETATM   27  C   UNL     1     -10.705  13.141  65.910  1.00  0.00    -0.274 C  
BRANCH  27  28
HETATM   28  O   UNL     1      -9.991  13.465  67.094  1.00  0.00    -0.235 OA 
BRANCH  28  29
HETATM   29  C   UNL     1      -9.636  14.793  67.186  1.00  0.00    -0.227 A  
HETATM   30  C   UNL     1     -10.214  15.477  68.250  1.00  0.00    -0.222 A  
HETATM   31  C   UNL     1      -9.969  16.841  68.436  1.00  0.00    -0.268 A  
HETATM   32  C   UNL     1      -9.123  17.526  67.567  1.00  0.00    -0.234 A  
HETATM   33  C   UNL     1      -8.511  16.846  66.522  1.00  0.00    -0.307 A  
HETATM   34  C   UNL     1      -8.761  15.484  66.334  1.00  0.00    -0.333 A  
ENDBRANCH  28  29
ENDBRANCH  27  28
ENDBRANCH  26  27
ENDBRANCH  25  26
ENDBRANCH  18  25
ENDBRANCH  16  17
ENDBRANCH   6  16
TORSDOF 7
ENDMDL
MODEL      222
REMARK 921   NORMALIZED FREE ENERGY PREDICTED BY IDOCK:    7.22 KCAL/MOL
REMARK 922        TOTAL FREE ENERGY PREDICTED BY IDOCK:    8.52 KCAL/MOL
REMARK 923 INTER-LIGAND FREE ENERGY PREDICTED BY IDOCK:    8.26 KCAL/MOL
REMARK 924 INTRA-LIGAND FREE ENERGY PREDICTED BY IDOCK:    0.26 KCAL/MOL
REMARK 927      BINDING AFFINITY PREDICTED BY RF-SCORE:    0.00 PKD
ROOT
HETATM    1  O   UNL     1      -7.027   5.815  65.203  1.00  0.00    -0.056 OA 
HETATM    2  C   UNL     1      -8.263   6.446  65.574  1.00  0.00    -0.142 C  
HETATM    3  H   UNL     1      -7.147   5.410  64.352  1.00  0.00     0.000 HD 
HETATM    4  C   UNL     1      -9.297   5.320  65.692  1.00  0.00    -0.114 A  
HETATM    5  C   UNL     1      -8.581   7.425  64.447  1.00  0.00     0.349 A  
HETATM    6  C   UNL     1      -8.063   7.117  66.985  1.00  0.00    -0.117 C  
HETATM    7  C   UNL     1     -11.319   3.980  66.210  1.00  0.00     3.404 A  
HETATM    8  C   UNL     1      -9.161   3.981  65.358  1.00  0.00    -0.142 A  
HETATM    9  C   UNL     1      -9.437   7.252  63.367  1.00  0.00     3.084 A  
HETATM   10  O   UNL     1      -7.734   8.270  67.236  1.00  0.00    -0.098 OA 
HETATM   11  C   UNL     1     -10.317   3.211  65.667  1.00  0.00     0.954 A  
HETATM   12  C   UNL     1      -9.434   8.351  62.462  1.00  0.00     1.697 A  
HETATM   13  S   UNL     1      -7.719   8.910  64.274  1.00  0.00    -0.129 SA 
HETATM   14  C   UNL     1      -8.556   9.334  62.852  1.00  0.00    -0.219 A  
HETATM   15  S   UNL     1     -10.886   5.629  66.301  1.00  0.00     0.148 SA 
ENDROOT
BRANCH   6  16
HETATM   16  O   UNL     1      -8.239   6.207  67.998  1.00  0.00    -0.112 OA 
BRANCH  16  17
HETATM   17  C   UNL     1      -7.675   6.517  69.284  1.00  0.00    -0.101 C  
HETATM   18  N   UNL     1      -9.059   7.240  71.324  1.00  0.00    -0.146 N  
HETATM   19  C   UNL     1      -8.356   7.715  69.995  1.00  0.00    -0.134 C  
HETATM   20  C   UNL     1      -7.983   6.609  72.222  1.00  0.00    -0.100 C  
HETATM   21  C   UNL     1     -10.090   6.172  70.935  1.00  0.00    -0.192 C  
HETATM   22  C   UNL     1      -7.237   5.502  71.496  1.00  0.00    -0.081 C  
HETATM   23  C   UNL     1      -9.363   4.972  70.323  1.00  0.00    -0.212 C  
HETATM   24  C   UNL     1      -7.860   5.251  70.132  1.00  0.00    -0.080 C  
BRANCH  18  25
HETATM   25  C   UNL     1      -9.740   8.494  71.948  1.00  0.00    -0.287 C  
BRANCH  25  26
HETATM   26  C   UNL     1     -10.377   9.515  70.991  1.00  0.00    -0.353 C  
BRANCH  26  27
HETATM   27  C   UNL     1      -9.420  10.070  69.945  1.00  0.00    -0.181 C  
BRANCH  27  28
HETATM   28  O   UNL     1      -9.395  11.490  69.934  1.00  0.00     1.179 OA 
BRANCH  28  29
HETATM   29  C   UNL     1      -8.383  12.024  69.167  1.00  0.00     0.442 A  
HETATM   30  C   UNL     1      -8.352  13.414  69.132  1.00  0.00     0.501 A  
HETATM   31  C   UNL     1      -7.399  14.085  68.359  1.00  0.00    -0.113 A  
HETATM   32  C   UNL     1      -6.454  13.364  67.632  1.00  0.00    -0.169 A  
HETATM   33  C   UNL     1      -6.451  11.977  67.688  1.00  0.00    -0.108 A  
HETATM   34  C   UNL     1      -7.408  11.308  68.457  1.00  0.00    -0.106 A  
ENDBRANCH  28  29
ENDBRANCH  27  28
ENDBRANCH  26  27
ENDBRANCH  25  26
ENDBRANCH  18  25
ENDBRANCH  16  17
ENDBRANCH   6  16
TORSDOF 7
ENDMDL
MODEL      223
REMARK 921   NORMALIZED FREE ENERGY PREDICTED BY IDOCK:    7.84 KCAL/MOL
REMARK 922        TOTAL FREE ENERGY PREDICTED BY IDOCK:    9.40 KCAL/MOL
REMARK 923 INTER-LIGAND FREE ENERGY PREDICTED BY IDOCK:    3.88 KCAL/MOL
REMARK 924 INTRA-LIGAND FREE ENERGY PREDICTED BY IDOCK:    5.52 KCAL/MOL
REMARK 927      BINDING AFFINITY PREDICTED BY RF-SCORE:    0.00 PKD
ROOT
HETATM    1  O   UNL     1      -8.870  16.300  66.051  1.00  0.00    -0.333 OA 
HETATM    2  C   UNL     1     -10.194  16.779  66.334  1.00  0.00    -0.323 C  
HETATM    3  H   UNL     1      -8.697  16.443  65.128  1.00  0.00     0.000 HD 
HETATM    4  C   UNL     1     -11.147  15.914  65.501  1.00  0.00    -0.146 A  
HETATM    5  C   UNL     1     -10.202  18.246  65.909  1.00  0.00    -0.226 A  
HETATM    6  C   UNL     1     -10.481  16.542  67.864  1.00  0.00    -0.313 C  
HETATM    7  C   UNL     1     -13.150  14.780  64.576  1.00  0.00     0.873 A  
HETATM    8  C   UNL     1     -10.837  14.969  64.535  1.00  0.00    -0.152 A  
HETATM    9  C   UNL     1     -10.669  18.800  64.724  1.00  0.00     2.349 A  
HETATM   10  O   UNL     1     -10.313  17.319  68.796  1.00  0.00    -0.326 OA 
HETATM   11  C   UNL     1     -11.986  14.310  64.013  1.00  0.00    -0.328 A  
HETATM   12  C   UNL     1     -10.449  20.203  64.632  1.00  0.00     1.875 A  
HETATM   13  S   UNL     1      -9.416  19.460  66.849  1.00  0.00    -0.354 SA 
HETATM   14  C   UNL     1      -9.794  20.693  65.735  1.00  0.00     0.404 A  
HETATM   15  S   UNL     1     -12.862  16.042  65.689  1.00  0.00     3.388 SA 
ENDROOT
BRANCH   6  16
HETATM   16  O   UNL     1     -10.909  15.258  68.097  1.00  0.00    -0.256 OA 
BRANCH  16  17
HETATM   17  C   UNL     1     -10.259  14.193  67.382  1.00  0.00    -0.244 C  
HETATM   18  N   UNL     1      -9.953  11.817  68.309  1.00  0.00    -0.195 N  
HETATM   19  C   UNL     1      -9.377  13.284  68.277  1.00  0.00    -0.205 C  
HETATM   20  C   UNL     1      -9.987  11.296  66.863  1.00  0.00    -0.207 C  
HETATM   21  C   UNL     1     -11.385  11.903  68.854  1.00  0.00    -0.278 C  
HETATM   22  C   UNL     1     -10.761  12.237  65.955  1.00  0.00    -0.294 C  
HETATM   23  C   UNL     1     -12.239  12.731  67.891  1.00  0.00     0.016 C  
HETATM   24  C   UNL     1     -11.390  13.357  66.768  1.00  0.00    -0.353 C  
BRANCH  18  25
HETATM   25  C   UNL     1      -9.030  10.989  69.252  1.00  0.00     0.102 C  
BRANCH  25  26
HETATM   26  C   UNL     1      -8.863   9.490  68.957  1.00  0.00    -0.143 C  
BRANCH  26  27
HETATM   27  C   UNL     1      -7.530   9.124  68.319  1.00  0.00    -0.083 C  
BRANCH  27  28
HETATM   28  O   UNL     1      -6.427   9.425  69.162  1.00  0.00    -0.041 OA 
BRANCH  28  29
HETATM   29  C   UNL     1      -6.394   8.685  70.324  1.00  0.00    -0.038 A  
HETATM   30  C   UNL     1      -7.577   8.017  70.621  1.00  0.00    -0.076 A  
HETATM   31  C   UNL     1      -7.692   7.261  71.791  1.00  0.00    -0.087 A  
HETATM   32  C   UNL     1      -6.611   7.151  72.663  1.00  0.00    -0.056 A  
HETATM   33  C   UNL     1      -5.413   7.783  72.360  1.00  0.00    -0.036 A  
HETATM   34  C   UNL     1      -5.301   8.543  71.192  1.00  0.00    -0.032 A  
ENDBRANCH  28  29
ENDBRANCH  27  28
ENDBRANCH  26  27
ENDBRANCH  25  26
ENDBRANCH  18  25
ENDBRANCH  16  17
ENDBRANCH   6  16
TORSDOF 7
ENDMDL
MODEL      224
REMARK 921   NORMALIZED FREE ENERGY PREDICTED BY IDOCK:    7.97 KCAL/MOL
REMARK 922        TOTAL FREE ENERGY PREDICTED BY IDOCK:    9.59 KCAL/MOL
REMARK 923 INTER-LIGAND FREE ENERGY PREDICTED BY IDOCK:   -3.55 KCAL/MOL
REMARK 924 INTRA-LIGAND FREE ENERGY PREDICTED BY IDOCK:   13.13 KCAL/MOL
REMARK 927      BINDING AFFINITY PREDICTED BY RF-SCORE:    0.00 PKD
ROOT
HETATM    1  O   UNL     1     -11.323  10.105  65.298  1.00  0.00     1.185 OA 
HETATM    2  C   UNL     1     -10.057  10.451  65.880  1.00  0.00    -0.261 C  
HETATM    3  H   UNL     1     -11.996  10.236  65.955  1.00  0.00     0.000 HD 
HETATM    4  C   UNL     1      -9.835   9.467  67.035  1.00  0.00    -0.201 A  
HETATM    5  C   UNL     1     -10.202  11.895  66.354  1.00  0.00    -0.209 A  
HETATM    6  C   UNL     1      -8.942  10.232  64.790  1.00  0.00    -0.203 C  
HETATM    7  C   UNL     1      -8.839   8.102  68.851  1.00  0.00    -0.141 A  
HETATM    8  C   UNL     1     -10.716   8.530  67.554  1.00  0.00    -0.211 A  
HETATM    9  C   UNL     1     -10.485  12.361  67.632  1.00  0.00    -0.229 A  
HETATM   10  O   UNL     1      -8.479  11.051  64.004  1.00  0.00     0.031 OA 
HETATM   11  C   UNL     1     -10.139   7.739  68.588  1.00  0.00    -0.211 A  
HETATM   12  C   UNL     1     -10.624  13.777  67.699  1.00  0.00    -0.244 A  
HETATM   13  S   UNL     1     -10.203  13.214  65.241  1.00  0.00    -0.258 SA 
HETATM   14  C   UNL     1     -10.472  14.365  66.467  1.00  0.00    -0.289 A  
HETATM   15  S   UNL     1      -8.333   9.421  67.891  1.00  0.00    -0.115 SA 
ENDROOT
BRANCH   6  16
HETATM   16  O   UNL     1      -8.545   8.919  64.741  1.00  0.00    -0.175 OA 
BRANCH  16  17
HETATM   17  C   UNL     1      -8.270   8.253  65.985  1.00  0.00    -0.119 C  
HETATM   18  N   UNL     1      -7.747   5.746  66.190  1.00  0.00    -0.094 N  
HETATM   19  C   UNL     1      -8.885   6.833  66.086  1.00  0.00    -0.148 C  
HETATM   20  C   UNL     1      -6.904   6.069  67.435  1.00  0.00    -0.063 C  
HETATM   21  C   UNL     1      -6.875   5.881  64.935  1.00  0.00    -0.048 C  
HETATM   22  C   UNL     1      -6.385   7.497  67.395  1.00  0.00    -0.053 C  
HETATM   23  C   UNL     1      -6.217   7.263  64.927  1.00  0.00    -0.038 C  
HETATM   24  C   UNL     1      -6.741   8.152  66.071  1.00  0.00    -0.053 C  
BRANCH  18  25
HETATM   25  C   UNL     1      -8.451   4.359  66.253  1.00  0.00    -0.112 C  
BRANCH  25  26
HETATM   26  C   UNL     1      -9.136   3.961  67.571  1.00  0.00    -0.176 C  
BRANCH  26  27
HETATM   27  C   UNL     1      -9.187   5.075  68.608  1.00  0.00    -0.122 C  
BRANCH  27  28
HETATM   28  O   UNL     1     -10.069   4.775  69.680  1.00  0.00    -0.229 OA 
BRANCH  28  29
HETATM   29  C   UNL     1      -9.449   4.200  70.768  1.00  0.00    -0.172 A  
HETATM   30  C   UNL     1      -9.833   4.721  71.999  1.00  0.00    -0.234 A  
HETATM   31  C   UNL     1      -9.252   4.254  73.182  1.00  0.00    -0.122 A  
HETATM   32  C   UNL     1      -8.295   3.242  73.140  1.00  0.00    -0.078 A  
HETATM   33  C   UNL     1      -7.930   2.688  71.921  1.00  0.00    -0.053 A  
HETATM   34  C   UNL     1      -8.508   3.160  70.739  1.00  0.00    -0.101 A  
ENDBRANCH  28  29
ENDBRANCH  27  28
ENDBRANCH  26  27
ENDBRANCH  25  26
ENDBRANCH  18  25
ENDBRANCH  16  17
ENDBRANCH   6  16
TORSDOF 7
ENDMDL
MODEL      225
REMARK 921   NORMALIZED FREE ENERGY PREDICTED BY IDOCK:   10.19 KCAL/MOL
REMARK 922        TOTAL FREE ENERGY PREDICTED BY IDOCK:   12.71 KCAL/MOL
REMARK 923 INTER-LIGAND FREE ENERGY PREDICTED BY IDOCK:   -1.27 KCAL/MOL
REMARK 924 INTRA-LIGAND FREE ENERGY PREDICTED BY IDOCK:   13.98 KCAL/MOL
REMARK 927      BINDING AFFINITY PREDICTED BY RF-SCORE:    0.00 PKD
ROOT
HETATM    1  O   UNL     1     -10.393  11.405  66.887  1.00  0.00    -0.213 OA 
HETATM    2  C   UNL     1      -9.123  11.822  67.411  1.00  0.00    -0.175 C  
HETATM    3  H   UNL     1     -11.043  11.510  67.572  1.00  0.00     0.000 HD 
HETATM    4  C   UNL     1      -8.802  10.865  68.564  1.00  0.00    -0.153 A  
HETATM    5  C   UNL     1      -9.322  13.263  67.876  1.00  0.00    -0.214 A  
HETATM    6  C   UNL     1      -8.046  11.647  66.275  1.00  0.00     0.047 C  
HETATM    7  C   UNL     1      -7.660   9.575  70.349  1.00  0.00    -0.159 A  
HETATM    8  C   UNL     1      -9.610   9.890  69.131  1.00  0.00    -0.204 A  
HETATM    9  C   UNL     1      -9.573  13.730  69.161  1.00  0.00     0.302 A  
HETATM   10  O   UNL     1      -7.659  12.479  65.463  1.00  0.00     2.210 OA 
HETATM   11  C   UNL     1      -8.950   9.143  70.147  1.00  0.00    -0.219 A  
HETATM   12  C   UNL     1      -9.782  15.137  69.219  1.00  0.00    -0.225 A  
HETATM   13  S   UNL     1      -9.438  14.566  66.751  1.00  0.00    -0.281 SA 
HETATM   14  C   UNL     1      -9.713  15.717  67.976  1.00  0.00    -0.212 A  
HETATM   15  S   UNL     1      -7.264  10.906  69.356  1.00  0.00    -0.105 SA 
ENDROOT
BRANCH   6  16
HETATM   16  O   UNL     1      -7.584  10.355  66.223  1.00  0.00    -0.114 OA 
BRANCH  16  17
HETATM   17  C   UNL     1      -7.301   9.692  67.466  1.00  0.00    -0.090 C  
HETATM   18  N   UNL     1      -6.791   7.182  67.674  1.00  0.00    -0.071 N  
HETATM   19  C   UNL     1      -7.923   8.275  67.578  1.00  0.00    -0.110 C  
HETATM   20  C   UNL     1      -5.935   7.503  68.909  1.00  0.00    -0.030 C  
HETATM   21  C   UNL     1      -5.930   7.308  66.409  1.00  0.00    -0.036 C  
HETATM   22  C   UNL     1      -5.407   8.928  68.861  1.00  0.00    -0.037 C  
HETATM   23  C   UNL     1      -5.264   8.686  66.391  1.00  0.00    -0.031 C  
HETATM   24  C   UNL     1      -5.772   9.581  67.538  1.00  0.00    -0.041 C  
BRANCH  18  25
HETATM   25  C   UNL     1      -7.503   5.799  67.747  1.00  0.00    -0.078 C  
BRANCH  25  26
HETATM   26  C   UNL     1      -8.185   5.413  69.070  1.00  0.00    -0.094 C  
BRANCH  26  27
HETATM   27  C   UNL     1      -8.748   6.594  69.849  1.00  0.00    -0.141 C  
BRANCH  27  28
HETATM   28  O   UNL     1      -9.611   6.185  70.901  1.00  0.00    -0.170 OA 
BRANCH  28  29
HETATM   29  C   UNL     1      -8.964   5.546  71.936  1.00  0.00    -0.135 A  
HETATM   30  C   UNL     1      -8.328   6.395  72.836  1.00  0.00    -0.117 A  
HETATM   31  C   UNL     1      -7.602   5.875  73.911  1.00  0.00    -0.092 A  
HETATM   32  C   UNL     1      -7.527   4.497  74.106  1.00  0.00    -0.074 A  
HETATM   33  C   UNL     1      -8.188   3.641  73.237  1.00  0.00    -0.080 A  
HETATM   34  C   UNL     1      -8.910   4.162  72.158  1.00  0.00    -0.128 A  
ENDBRANCH  28  29
ENDBRANCH  27  28
ENDBRANCH  26  27
ENDBRANCH  25  26
ENDBRANCH  18  25
ENDBRANCH  16  17
ENDBRANCH   6  16
TORSDOF 7
ENDMDL
MODEL      226
REMARK 921   NORMALIZED FREE ENERGY PREDICTED BY IDOCK:   10.66 KCAL/MOL
REMARK 922        TOTAL FREE ENERGY PREDICTED BY IDOCK:   13.38 KCAL/MOL
REMARK 923 INTER-LIGAND FREE ENERGY PREDICTED BY IDOCK:   -1.53 KCAL/MOL
REMARK 924 INTRA-LIGAND FREE ENERGY PREDICTED BY IDOCK:   14.91 KCAL/MOL
REMARK 927      BINDING AFFINITY PREDICTED BY RF-SCORE:    0.00 PKD
ROOT
HETATM    1  O   UNL     1     -10.395  11.397  66.881  1.00  0.00    -0.213 OA 
HETATM    2  C   UNL     1      -9.130  11.786  67.439  1.00  0.00    -0.175 C  
HETATM    3  H   UNL     1     -11.053  11.471  67.563  1.00  0.00     0.000 HD 
HETATM    4  C   UNL     1      -8.824  10.774  68.549  1.00  0.00    -0.149 A  
HETATM    5  C   UNL     1      -9.332  13.204  67.970  1.00  0.00    -0.219 A  
HETATM    6  C   UNL     1      -8.041  11.663  66.309  1.00  0.00     0.047 C  
HETATM    7  C   UNL     1      -7.706   9.399  70.284  1.00  0.00    -0.144 A  
HETATM    8  C   UNL     1      -9.640   9.776  69.060  1.00  0.00    -0.177 A  
HETATM    9  C   UNL     1      -9.598  13.610  69.272  1.00  0.00     0.526 A  
HETATM   10  O   UNL     1      -7.643  12.531  65.541  1.00  0.00     2.210 OA 
HETATM   11  C   UNL     1      -8.994   8.980  70.046  1.00  0.00    -0.184 A  
HETATM   12  C   UNL     1      -9.804  15.013  69.395  1.00  0.00    -0.170 A  
HETATM   13  S   UNL     1      -9.433  14.559  66.906  1.00  0.00    -0.263 SA 
HETATM   14  C   UNL     1      -9.720  15.652  68.181  1.00  0.00    -0.204 A  
HETATM   15  S   UNL     1      -7.295  10.775  69.359  1.00  0.00    -0.109 SA 
ENDROOT
BRANCH   6  16
HETATM   16  O   UNL     1      -7.581  10.373  66.200  1.00  0.00    -0.118 OA 
BRANCH  16  17
HETATM   17  C   UNL     1      -7.370   9.631  67.413  1.00  0.00    -0.087 C  
HETATM   18  N   UNL     1      -6.766   7.135  67.484  1.00  0.00    -0.062 N  
HETATM   19  C   UNL     1      -7.935   8.187  67.371  1.00  0.00    -0.117 C  
HETATM   20  C   UNL     1      -6.029   7.396  68.807  1.00  0.00    -0.027 C  
HETATM   21  C   UNL     1      -5.812   7.388  66.309  1.00  0.00    -0.036 C  
HETATM   22  C   UNL     1      -5.564   8.840  68.904  1.00  0.00    -0.040 C  
HETATM   23  C   UNL     1      -5.210   8.788  66.445  1.00  0.00    -0.030 C  
HETATM   24  C   UNL     1      -5.849   9.575  67.605  1.00  0.00    -0.044 C  
BRANCH  18  25
HETATM   25  C   UNL     1      -7.419   5.724  67.399  1.00  0.00    -0.081 C  
BRANCH  25  26
HETATM   26  C   UNL     1      -8.200   5.219  68.625  1.00  0.00    -0.093 C  
BRANCH  26  27
HETATM   27  C   UNL     1      -8.920   6.314  69.399  1.00  0.00    -0.126 C  
BRANCH  27  28
HETATM   28  O   UNL     1      -9.854   5.791  70.333  1.00  0.00    -0.172 OA 
BRANCH  28  29
HETATM   29  C   UNL     1     -10.590   6.755  70.986  1.00  0.00    -0.222 A  
HETATM   30  C   UNL     1     -11.661   7.261  70.258  1.00  0.00    -0.164 A  
HETATM   31  C   UNL     1     -12.467   8.273  70.788  1.00  0.00     0.123 A  
HETATM   32  C   UNL     1     -12.216   8.771  72.065  1.00  0.00    -0.447 A  
HETATM   33  C   UNL     1     -11.172   8.249  72.816  1.00  0.00    -0.322 A  
HETATM   34  C   UNL     1     -10.364   7.241  72.282  1.00  0.00    -0.239 A  
ENDBRANCH  28  29
ENDBRANCH  27  28
ENDBRANCH  26  27
ENDBRANCH  25  26
ENDBRANCH  18  25
ENDBRANCH  16  17
ENDBRANCH   6  16
TORSDOF 7
ENDMDL
MODEL      227
REMARK 921   NORMALIZED FREE ENERGY PREDICTED BY IDOCK:   11.24 KCAL/MOL
REMARK 922        TOTAL FREE ENERGY PREDICTED BY IDOCK:   14.18 KCAL/MOL
REMARK 923 INTER-LIGAND FREE ENERGY PREDICTED BY IDOCK:   -2.92 KCAL/MOL
REMARK 924 INTRA-LIGAND FREE ENERGY PREDICTED BY IDOCK:   17.11 KCAL/MOL
REMARK 927      BINDING AFFINITY PREDICTED BY RF-SCORE:    0.00 PKD
ROOT
HETATM    1  O   UNL     1      -7.695  12.855  67.124  1.00  0.00    -0.308 OA 
HETATM    2  C   UNL     1      -9.113  12.790  67.339  1.00  0.00    -0.192 C  
HETATM    3  H   UNL     1      -7.535  12.781  66.190  1.00  0.00     0.000 HD 
HETATM    4  C   UNL     1      -9.554  11.403  66.858  1.00  0.00    -0.185 A  
HETATM    5  C   UNL     1      -9.709  13.922  66.504  1.00  0.00    -0.294 A  
HETATM    6  C   UNL     1      -9.378  12.912  68.886  1.00  0.00     0.290 C  
HETATM    7  C   UNL     1     -10.825   9.315  66.436  1.00  0.00     0.389 A  
HETATM    8  C   UNL     1      -8.810  10.440  66.194  1.00  0.00    -0.172 A  
HETATM    9  C   UNL     1     -10.283  13.855  65.241  1.00  0.00    -0.366 A  
HETATM   10  O   UNL     1      -9.616  13.923  69.537  1.00  0.00     0.443 OA 
HETATM   11  C   UNL     1      -9.536   9.238  65.963  1.00  0.00    -0.338 A  
HETATM   12  C   UNL     1     -10.668  15.126  64.728  1.00  0.00    -0.344 A  
HETATM   13  S   UNL     1      -9.573  15.571  66.995  1.00  0.00    -0.230 SA 
HETATM   14  C   UNL     1     -10.357  16.145  65.595  1.00  0.00    -0.382 A  
HETATM   15  S   UNL     1     -11.173  10.845  67.110  1.00  0.00    -0.078 SA 
ENDROOT
BRANCH   6  16
HETATM   16  O   UNL     1      -9.241  11.697  69.512  1.00  0.00     0.569 OA 
BRANCH  16  17
HETATM   17  C   UNL     1      -9.560  10.515  68.759  1.00  0.00    -0.179 C  
HETATM   18  N   UNL     1      -8.757   8.155  69.380  1.00  0.00    -0.142 N  
HETATM   19  C   UNL     1      -8.388   9.504  68.652  1.00  0.00    -0.117 C  
HETATM   20  C   UNL     1     -10.026   7.596  68.715  1.00  0.00    -0.174 C  
HETATM   21  C   UNL     1      -9.058   8.497  70.846  1.00  0.00    -0.172 C  
HETATM   22  C   UNL     1     -11.148   8.620  68.719  1.00  0.00     0.239 C  
HETATM   23  C   UNL     1     -10.277   9.421  70.905  1.00  0.00    -0.373 C  
HETATM   24  C   UNL     1     -10.732   9.857  69.499  1.00  0.00    -0.265 C  
BRANCH  18  25
HETATM   25  C   UNL     1      -7.519   7.219  69.252  1.00  0.00    -0.096 C  
BRANCH  25  26
HETATM   26  C   UNL     1      -6.444   7.590  68.217  1.00  0.00    -0.049 C  
BRANCH  26  27
HETATM   27  C   UNL     1      -6.974   7.756  66.800  1.00  0.00    -0.072 C  
BRANCH  27  28
HETATM   28  O   UNL     1      -7.583   6.571  66.308  1.00  0.00    -0.086 OA 
BRANCH  28  29
HETATM   29  C   UNL     1      -7.016   5.412  66.791  1.00  0.00    -0.065 A  
HETATM   30  C   UNL     1      -6.286   4.688  65.855  1.00  0.00    -0.035 A  
HETATM   31  C   UNL     1      -5.691   3.472  66.203  1.00  0.00    -0.018 A  
HETATM   32  C   UNL     1      -5.805   2.982  67.502  1.00  0.00    -0.023 A  
HETATM   33  C   UNL     1      -6.501   3.713  68.455  1.00  0.00    -0.037 A  
HETATM   34  C   UNL     1      -7.100   4.926  68.104  1.00  0.00    -0.062 A  
ENDBRANCH  28  29
ENDBRANCH  27  28
ENDBRANCH  26  27
ENDBRANCH  25  26
ENDBRANCH  18  25
ENDBRANCH  16  17
ENDBRANCH   6  16
TORSDOF 7
ENDMDL
MODEL      228
REMARK 921   NORMALIZED FREE ENERGY PREDICTED BY IDOCK:   14.02 KCAL/MOL
REMARK 922        TOTAL FREE ENERGY PREDICTED BY IDOCK:   18.11 KCAL/MOL
REMARK 923 INTER-LIGAND FREE ENERGY PREDICTED BY IDOCK:    0.42 KCAL/MOL
REMARK 924 INTRA-LIGAND FREE ENERGY PREDICTED BY IDOCK:   17.69 KCAL/MOL
REMARK 927      BINDING AFFINITY PREDICTED BY RF-SCORE:    0.00 PKD
ROOT
HETATM    1  O   UNL     1     -11.464  12.534  67.018  1.00  0.00    -0.313 OA 
HETATM    2  C   UNL     1     -10.330  13.259  67.518  1.00  0.00    -0.229 C  
HETATM    3  H   UNL     1     -11.937  12.178  67.761  1.00  0.00     0.000 HD 
HETATM    4  C   UNL     1      -9.448  12.230  68.235  1.00  0.00    -0.209 A  
HETATM    5  C   UNL     1     -10.899  14.312  68.466  1.00  0.00    -0.253 A  
HETATM    6  C   UNL     1      -9.545  13.847  66.286  1.00  0.00    -0.256 C  
HETATM    7  C   UNL     1      -7.561  11.062  69.343  1.00  0.00    -0.054 A  
HETATM    8  C   UNL     1      -9.723  10.900  68.515  1.00  0.00    -0.183 A  
HETATM    9  C   UNL     1     -10.997  14.266  69.851  1.00  0.00    -0.053 A  
HETATM   10  O   UNL     1      -9.661  14.952  65.770  1.00  0.00    -0.323 OA 
HETATM   11  C   UNL     1      -8.635  10.227  69.140  1.00  0.00    -0.167 A  
HETATM   12  C   UNL     1     -11.656  15.399  70.408  1.00  0.00    -0.352 A  
HETATM   13  S   UNL     1     -11.706  15.717  67.872  1.00  0.00     0.047 SA 
HETATM   14  C   UNL     1     -12.073  16.278  69.438  1.00  0.00     0.219 A  
HETATM   15  S   UNL     1      -7.880  12.658  68.828  1.00  0.00     0.119 SA 
ENDROOT
BRANCH   6  16
HETATM   16  O   UNL     1      -8.694  12.914  65.747  1.00  0.00     0.521 OA 
BRANCH  16  17
HETATM   17  C   UNL     1      -8.617  11.627  66.384  1.00  0.00    -0.143 C  
HETATM   18  N   UNL     1      -7.777   9.495  65.224  1.00  0.00    -0.107 N  
HETATM   19  C   UNL     1      -9.012  10.445  65.462  1.00  0.00    -0.176 C  
HETATM   20  C   UNL     1      -7.307   8.986  66.596  1.00  0.00    -0.086 C  
HETATM   21  C   UNL     1      -6.668  10.344  64.587  1.00  0.00    -0.022 C  
HETATM   22  C   UNL     1      -7.018  10.139  67.543  1.00  0.00    -0.085 C  
HETATM   23  C   UNL     1      -6.247  11.438  65.570  1.00  0.00     0.717 C  
HETATM   24  C   UNL     1      -7.153  11.466  66.816  1.00  0.00    -0.132 C  
BRANCH  18  25
HETATM   25  C   UNL     1      -8.254   8.364  64.266  1.00  0.00    -0.127 C  
BRANCH  25  26
HETATM   26  C   UNL     1      -7.430   7.067  64.220  1.00  0.00    -0.098 C  
BRANCH  26  27
HETATM   27  C   UNL     1      -7.636   6.241  62.957  1.00  0.00    -0.080 C  
BRANCH  27  28
HETATM   28  O   UNL     1      -8.970   5.768  62.833  1.00  0.00     0.174 OA 
BRANCH  28  29
HETATM   29  C   UNL     1      -9.475   5.215  63.989  1.00  0.00     0.478 A  
HETATM   30  C   UNL     1     -10.555   4.360  63.800  1.00  0.00     0.207 A  
HETATM   31  C   UNL     1     -11.188   3.761  64.894  1.00  0.00     0.766 A  
HETATM   32  C   UNL     1     -10.726   3.998  66.187  1.00  0.00     0.907 A  
HETATM   33  C   UNL     1      -9.625   4.820  66.386  1.00  0.00    -0.182 A  
HETATM   34  C   UNL     1      -8.997   5.423  65.292  1.00  0.00    -0.104 A  
ENDBRANCH  28  29
ENDBRANCH  27  28
ENDBRANCH  26  27
ENDBRANCH  25  26
ENDBRANCH  18  25
ENDBRANCH  16  17
ENDBRANCH   6  16
TORSDOF 7
ENDMDL
MODEL      229
REMARK 921   NORMALIZED FREE ENERGY PREDICTED BY IDOCK:   14.64 KCAL/MOL
REMARK 922        TOTAL FREE ENERGY PREDICTED BY IDOCK:   18.98 KCAL/MOL
REMARK 923 INTER-LIGAND FREE ENERGY PREDICTED BY IDOCK:    1.44 KCAL/MOL
REMARK 924 INTRA-LIGAND FREE ENERGY PREDICTED BY IDOCK:   17.54 KCAL/MOL
REMARK 927      BINDING AFFINITY PREDICTED BY RF-SCORE:    0.00 PKD
ROOT
HETATM    1  O   UNL     1      -7.734  12.822  67.168  1.00  0.00    -0.290 OA 
HETATM    2  C   UNL     1      -9.149  12.862  67.406  1.00  0.00    -0.197 C  
HETATM    3  H   UNL     1      -7.593  12.820  66.228  1.00  0.00     0.000 HD 
HETATM    4  C   UNL     1      -9.718  11.568  66.813  1.00  0.00    -0.199 A  
HETATM    5  C   UNL     1      -9.653  14.113  66.690  1.00  0.00    -0.289 A  
HETATM    6  C   UNL     1      -9.381  12.865  68.964  1.00  0.00     0.471 C  
HETATM    7  C   UNL     1     -11.175   9.646  66.232  1.00  0.00     1.222 A  
HETATM    8  C   UNL     1      -9.072  10.608  66.048  1.00  0.00    -0.201 A  
HETATM    9  C   UNL     1     -10.248  14.212  65.438  1.00  0.00    -0.380 A  
HETATM   10  O   UNL     1      -9.520  13.829  69.708  1.00  0.00     0.988 OA 
HETATM   11  C   UNL     1      -9.905   9.501  65.726  1.00  0.00    -0.363 A  
HETATM   12  C   UNL     1     -10.525  15.553  65.049  1.00  0.00    -0.392 A  
HETATM   13  S   UNL     1      -9.365  15.692  67.323  1.00  0.00    -0.219 SA 
HETATM   14  C   UNL     1     -10.113  16.457  65.998  1.00  0.00    -0.353 A  
HETATM   15  S   UNL     1     -11.376  11.133  67.048  1.00  0.00    -0.019 SA 
ENDROOT
BRANCH   6  16
HETATM   16  O   UNL     1      -9.345  11.591  69.475  1.00  0.00     0.441 OA 
BRANCH  16  17
HETATM   17  C   UNL     1      -9.706  10.507  68.602  1.00  0.00    -0.173 C  
HETATM   18  N   UNL     1      -9.171   8.039  69.076  1.00  0.00    -0.148 N  
HETATM   19  C   UNL     1      -8.625   9.400  68.495  1.00  0.00    -0.123 C  
HETATM   20  C   UNL     1     -10.426   7.659  68.275  1.00  0.00    -0.174 C  
HETATM   21  C   UNL     1      -9.557   8.293  70.540  1.00  0.00    -0.167 C  
HETATM   22  C   UNL     1     -11.449   8.782  68.285  1.00  0.00     1.028 C  
HETATM   23  C   UNL     1     -10.689   9.322  70.589  1.00  0.00    -0.331 C  
HETATM   24  C   UNL     1     -10.989   9.908  69.196  1.00  0.00    -0.233 C  
BRANCH  18  25
HETATM   25  C   UNL     1      -8.015   7.002  68.960  1.00  0.00    -0.116 C  
BRANCH  25  26
HETATM   26  C   UNL     1      -6.823   7.356  68.055  1.00  0.00    -0.070 C  
BRANCH  26  27
HETATM   27  C   UNL     1      -5.485   6.823  68.549  1.00  0.00    -0.016 C  
BRANCH  27  28
HETATM   28  O   UNL     1      -5.178   7.270  69.862  1.00  0.00    -0.018 OA 
BRANCH  28  29
HETATM   29  C   UNL     1      -5.770   8.468  70.197  1.00  0.00    -0.024 A  
HETATM   30  C   UNL     1      -5.555   9.497  69.287  1.00  0.00    -0.035 A  
HETATM   31  C   UNL     1      -6.068  10.776  69.525  1.00  0.00    -0.057 A  
HETATM   32  C   UNL     1      -6.822  11.026  70.669  1.00  0.00     0.830 A  
HETATM   33  C   UNL     1      -7.075   9.998  71.567  1.00  0.00     1.128 A  
HETATM   34  C   UNL     1      -6.557   8.722  71.330  1.00  0.00    -0.078 A  
ENDBRANCH  28  29
ENDBRANCH  27  28
ENDBRANCH  26  27
ENDBRANCH  25  26
ENDBRANCH  18  25
ENDBRANCH  16  17
ENDBRANCH   6  16
TORSDOF 7
ENDMDL
MODEL      230
REMARK 921   NORMALIZED FREE ENERGY PREDICTED BY IDOCK:   14.98 KCAL/MOL
REMARK 922        TOTAL FREE ENERGY PREDICTED BY IDOCK:   19.46 KCAL/MOL
REMARK 923 INTER-LIGAND FREE ENERGY PREDICTED BY IDOCK:   15.16 KCAL/MOL
REMARK 924 INTRA-LIGAND FREE ENERGY PREDICTED BY IDOCK:    4.31 KCAL/MOL
REMARK 927      BINDING AFFINITY PREDICTED BY RF-SCORE:    0.00 PKD
ROOT
HETATM    1  O   UNL     1     -11.246  10.719  68.746  1.00  0.00    -0.233 OA 
HETATM    2  C   UNL     1     -10.558   9.462  68.667  1.00  0.00    -0.200 C  
HETATM    3  H   UNL     1     -12.133  10.590  68.429  1.00  0.00     0.000 HD 
HETATM    4  C   UNL     1     -10.515   9.091  67.180  1.00  0.00    -0.263 A  
HETATM    5  C   UNL     1     -11.389   8.484  69.496  1.00  0.00     0.288 A  
HETATM    6  C   UNL     1      -9.089   9.676  69.192  1.00  0.00    -0.154 C  
HETATM    7  C   UNL     1      -9.971   8.057  64.992  1.00  0.00     2.478 A  
HETATM    8  C   UNL     1     -11.140   9.719  66.113  1.00  0.00     0.810 A  
HETATM    9  C   UNL     1     -12.329   7.561  69.057  1.00  0.00     2.781 A  
HETATM   10  O   UNL     1      -8.658   9.513  70.327  1.00  0.00    -0.198 OA 
HETATM   11  C   UNL     1     -10.818   9.133  64.857  1.00  0.00     4.501 A  
HETATM   12  C   UNL     1     -12.972   6.862  70.118  1.00  0.00     1.257 A  
HETATM   13  S   UNL     1     -11.382   8.534  71.221  1.00  0.00    -0.286 SA 
HETATM   14  C   UNL     1     -12.531   7.282  71.350  1.00  0.00    -0.383 A  
HETATM   15  S   UNL     1      -9.607   7.726  66.627  1.00  0.00    -0.214 SA 
ENDROOT
BRANCH   6  16
HETATM   16  O   UNL     1      -8.274  10.169  68.202  1.00  0.00    -0.110 OA 
BRANCH  16  17
HETATM   17  C   UNL     1      -7.029  10.770  68.595  1.00  0.00    -0.070 C  
HETATM   18  N   UNL     1      -6.796  13.199  69.399  1.00  0.00    -0.027 N  
HETATM   19  C   UNL     1      -6.875  12.247  68.145  1.00  0.00    -0.078 C  
HETATM   20  C   UNL     1      -5.592  12.757  70.246  1.00  0.00    -0.151 C  
HETATM   21  C   UNL     1      -8.087  13.000  70.204  1.00  0.00     3.191 C  
HETATM   22  C   UNL     1      -5.680  11.282  70.603  1.00  0.00    -0.123 C  
HETATM   23  C   UNL     1      -8.148  11.555  70.704  1.00  0.00     4.541 C  
HETATM   24  C   UNL     1      -7.002  10.702  70.128  1.00  0.00    -0.073 C  
BRANCH  18  25
HETATM   25  C   UNL     1      -6.678  14.654  68.855  1.00  0.00    -0.096 C  
BRANCH  25  26
HETATM   26  C   UNL     1      -7.968  15.482  68.738  1.00  0.00    -0.163 C  
BRANCH  26  27
HETATM   27  C   UNL     1      -9.179  14.689  68.268  1.00  0.00    -0.198 C  
BRANCH  27  28
HETATM   28  O   UNL     1      -9.309  14.688  66.854  1.00  0.00    -0.220 OA 
BRANCH  28  29
HETATM   29  C   UNL     1     -10.517  14.201  66.405  1.00  0.00    -0.283 A  
HETATM   30  C   UNL     1     -10.421  13.240  65.405  1.00  0.00    -0.306 A  
HETATM   31  C   UNL     1     -11.573  12.691  64.833  1.00  0.00    -0.376 A  
HETATM   32  C   UNL     1     -12.833  13.087  65.278  1.00  0.00    -0.284 A  
HETATM   33  C   UNL     1     -12.942  14.018  66.302  1.00  0.00     0.201 A  
HETATM   34  C   UNL     1     -11.789  14.570  66.868  1.00  0.00    -0.399 A  
ENDBRANCH  28  29
ENDBRANCH  27  28
ENDBRANCH  26  27
ENDBRANCH  25  26
ENDBRANCH  18  25
ENDBRANCH  16  17
ENDBRANCH   6  16
TORSDOF 7
ENDMDL
MODEL      231
REMARK 921   NORMALIZED FREE ENERGY PREDICTED BY IDOCK:   16.64 KCAL/MOL
REMARK 922        TOTAL FREE ENERGY PREDICTED BY IDOCK:   21.80 KCAL/MOL
REMARK 923 INTER-LIGAND FREE ENERGY PREDICTED BY IDOCK:    8.03 KCAL/MOL
REMARK 924 INTRA-LIGAND FREE ENERGY PREDICTED BY IDOCK:   13.77 KCAL/MOL
REMARK 927      BINDING AFFINITY PREDICTED BY RF-SCORE:    0.00 PKD
ROOT
HETATM    1  O   UNL     1     -10.971  11.795  71.582  1.00  0.00     3.328 OA 
HETATM    2  C   UNL     1     -11.699  12.246  70.430  1.00  0.00    -0.037 C  
HETATM    3  H   UNL     1     -10.175  12.308  71.647  1.00  0.00     0.000 HD 
HETATM    4  C   UNL     1     -10.806  11.950  69.219  1.00  0.00    -0.104 A  
HETATM    5  C   UNL     1     -11.927  13.741  70.645  1.00  0.00    -0.266 A  
HETATM    6  C   UNL     1     -13.019  11.394  70.322  1.00  0.00     0.195 C  
HETATM    7  C   UNL     1      -9.944  11.574  66.924  1.00  0.00    -0.205 A  
HETATM    8  C   UNL     1      -9.496  11.498  69.199  1.00  0.00     0.185 A  
HETATM    9  C   UNL     1     -11.203  14.809  70.131  1.00  0.00    -0.256 A  
HETATM   10  O   UNL     1     -14.130  11.657  70.769  1.00  0.00     2.259 OA 
HETATM   11  C   UNL     1      -9.006  11.271  67.883  1.00  0.00    -0.146 A  
HETATM   12  C   UNL     1     -11.652  16.075  70.603  1.00  0.00    -0.409 A  
HETATM   13  S   UNL     1     -13.094  14.320  71.777  1.00  0.00    -0.384 SA 
HETATM   14  C   UNL     1     -12.693  15.951  71.491  1.00  0.00    -0.374 A  
HETATM   15  S   UNL     1     -11.389  12.175  67.605  1.00  0.00    -0.337 SA 
ENDROOT
BRANCH   6  16
HETATM   16  O   UNL     1     -12.788  10.197  69.691  1.00  0.00     0.127 OA 
BRANCH  16  17
HETATM   17  C   UNL     1     -11.558  10.048  68.962  1.00  0.00     0.069 C  
HETATM   18  N   UNL     1      -9.863   8.162  69.372  1.00  0.00    -0.178 N  
HETATM   19  C   UNL     1     -10.364   9.584  69.835  1.00  0.00    -0.236 C  
HETATM   20  C   UNL     1      -9.452   8.269  67.894  1.00  0.00    -0.146 C  
HETATM   21  C   UNL     1     -11.049   7.198  69.504  1.00  0.00    -0.141 C  
HETATM   22  C   UNL     1     -10.585   8.825  67.046  1.00  0.00    -0.283 C  
HETATM   23  C   UNL     1     -12.165   7.643  68.556  1.00  0.00     3.348 C  
HETATM   24  C   UNL     1     -11.841   8.991  67.885  1.00  0.00     2.731 C  
BRANCH  18  25
HETATM   25  C   UNL     1      -8.693   7.765  70.320  1.00  0.00    -0.143 C  
BRANCH  25  26
HETATM   26  C   UNL     1      -8.995   6.775  71.457  1.00  0.00    -0.137 C  
BRANCH  26  27
HETATM   27  C   UNL     1      -9.088   5.322  71.011  1.00  0.00    -0.143 C  
BRANCH  27  28
HETATM   28  O   UNL     1      -8.924   4.414  72.090  1.00  0.00    -0.117 OA 
BRANCH  28  29
HETATM   29  C   UNL     1      -7.723   3.738  72.073  1.00  0.00    -0.063 A  
HETATM   30  C   UNL     1      -7.230   3.397  73.328  1.00  0.00    -0.054 A  
HETATM   31  C   UNL     1      -6.001   2.743  73.455  1.00  0.00    -0.004 A  
HETATM   32  C   UNL     1      -5.266   2.406  72.320  1.00  0.00     0.000 A  
HETATM   33  C   UNL     1      -5.765   2.708  71.061  1.00  0.00    -0.013 A  
HETATM   34  C   UNL     1      -6.991   3.366  70.935  1.00  0.00    -0.033 A  
ENDBRANCH  28  29
ENDBRANCH  27  28
ENDBRANCH  26  27
ENDBRANCH  25  26
ENDBRANCH  18  25
ENDBRANCH  16  17
ENDBRANCH   6  16
TORSDOF 7
ENDMDL
MODEL      232
REMARK 921   NORMALIZED FREE ENERGY PREDICTED BY IDOCK:   26.32 KCAL/MOL
REMARK 922        TOTAL FREE ENERGY PREDICTED BY IDOCK:   35.45 KCAL/MOL
REMARK 923 INTER-LIGAND FREE ENERGY PREDICTED BY IDOCK:   22.64 KCAL/MOL
REMARK 924 INTRA-LIGAND FREE ENERGY PREDICTED BY IDOCK:   12.81 KCAL/MOL
REMARK 927      BINDING AFFINITY PREDICTED BY RF-SCORE:    0.00 PKD
ROOT
HETATM    1  O   UNL     1     -10.702  10.673  69.357  1.00  0.00    -0.216 OA 
HETATM    2  C   UNL     1     -10.114   9.597  68.608  1.00  0.00    -0.179 C  
HETATM    3  H   UNL     1     -11.645  10.561  69.341  1.00  0.00     0.000 HD 
HETATM    4  C   UNL     1     -10.619   9.754  67.169  1.00  0.00    -0.229 A  
HETATM    5  C   UNL     1     -10.610   8.314  69.272  1.00  0.00    -0.181 A  
HETATM    6  C   UNL     1      -8.551   9.783  68.634  1.00  0.00    -0.121 C  
HETATM    7  C   UNL     1     -10.923   9.580  64.713  1.00  0.00     4.041 A  
HETATM    8  C   UNL     1     -11.573  10.632  66.677  1.00  0.00     0.800 A  
HETATM    9  C   UNL     1     -11.664   7.495  68.889  1.00  0.00     1.090 A  
HETATM   10  O   UNL     1      -7.742   9.296  69.416  1.00  0.00    -0.076 OA 
HETATM   11  C   UNL     1     -11.738  10.539  65.266  1.00  0.00     2.255 A  
HETATM   12  C   UNL     1     -11.895   6.415  69.787  1.00  0.00    -0.071 A  
HETATM   13  S   UNL     1      -9.981   7.783  70.788  1.00  0.00    -0.180 SA 
HETATM   14  C   UNL     1     -11.031   6.443  70.855  1.00  0.00    -0.280 A  
HETATM   15  S   UNL     1     -10.000   8.762  65.894  1.00  0.00     0.240 SA 
ENDROOT
BRANCH   6  16
HETATM   16  O   UNL     1      -8.138  10.664  67.666  1.00  0.00    -0.106 OA 
BRANCH  16  17
HETATM   17  C   UNL     1      -8.795  10.614  66.388  1.00  0.00    -0.154 C  
HETATM   18  N   UNL     1      -8.958  12.608  64.775  1.00  0.00     1.100 N  
HETATM   19  C   UNL     1      -9.586  11.902  66.038  1.00  0.00    -0.235 C  
HETATM   20  C   UNL     1      -8.999  11.605  63.610  1.00  0.00     0.303 C  
HETATM   21  C   UNL     1      -7.497  12.933  65.117  1.00  0.00     6.462 C  
HETATM   22  C   UNL     1      -8.319  10.298  63.982  1.00  0.00    -0.165 C  
HETATM   23  C   UNL     1      -6.737  11.628  65.363  1.00  0.00     1.602 C  
HETATM   24  C   UNL     1      -7.678  10.408  65.356  1.00  0.00    -0.136 C  
BRANCH  18  25
HETATM   25  C   UNL     1      -9.789  13.900  64.520  1.00  0.00     0.498 C  
BRANCH  25  26
HETATM   26  C   UNL     1      -9.410  15.164  65.309  1.00  0.00     0.406 C  
BRANCH  26  27
HETATM   27  C   UNL     1     -10.480  15.634  66.285  1.00  0.00    -0.306 C  
BRANCH  27  28
HETATM   28  O   UNL     1     -10.104  15.429  67.640  1.00  0.00    -0.233 OA 
BRANCH  28  29
HETATM   29  C   UNL     1     -10.494  16.444  68.486  1.00  0.00    -0.291 A  
HETATM   30  C   UNL     1     -11.512  16.105  69.370  1.00  0.00    -0.296 A  
HETATM   31  C   UNL     1     -12.029  17.054  70.257  1.00  0.00     2.265 A  
HETATM   32  C   UNL     1     -11.511  18.347  70.280  1.00  0.00     4.870 A  
HETATM   33  C   UNL     1     -10.470  18.688  69.428  1.00  0.00     0.527 A  
HETATM   34  C   UNL     1      -9.958  17.740  68.537  1.00  0.00    -0.370 A  
ENDBRANCH  28  29
ENDBRANCH  27  28
ENDBRANCH  26  27
ENDBRANCH  25  26
ENDBRANCH  18  25
ENDBRANCH  16  17
ENDBRANCH   6  16
TORSDOF 7
ENDMDL
MODEL      233
REMARK 921   NORMALIZED FREE ENERGY PREDICTED BY IDOCK:   40.46 KCAL/MOL
REMARK 922        TOTAL FREE ENERGY PREDICTED BY IDOCK:   55.36 KCAL/MOL
REMARK 923 INTER-LIGAND FREE ENERGY PREDICTED BY IDOCK:   56.02 KCAL/MOL
REMARK 924 INTRA-LIGAND FREE ENERGY PREDICTED BY IDOCK:   -0.66 KCAL/MOL
REMARK 927      BINDING AFFINITY PREDICTED BY RF-SCORE:    0.00 PKD
ROOT
HETATM    1  O   UNL     1     -11.909   5.746  64.816  1.00  0.00     2.692 OA 
HETATM    2  C   UNL     1     -10.733   5.337  65.530  1.00  0.00     0.349 C  
HETATM    3  H   UNL     1     -12.221   5.004  64.311  1.00  0.00     0.000 HD 
HETATM    4  C   UNL     1      -9.691   4.978  64.464  1.00  0.00     0.397 A  
HETATM    5  C   UNL     1     -11.157   4.134  66.370  1.00  0.00     2.173 A  
HETATM    6  C   UNL     1     -10.217   6.567  66.367  1.00  0.00     0.031 C  
HETATM    7  C   UNL     1      -7.583   4.442  63.270  1.00  0.00    -0.058 A  
HETATM    8  C   UNL     1      -9.853   4.889  63.089  1.00  0.00     0.480 A  
HETATM    9  C   UNL     1     -10.993   2.783  66.091  1.00  0.00     4.683 A  
HETATM   10  O   UNL     1     -10.473   6.853  67.530  1.00  0.00    -0.191 OA 
HETATM   11  C   UNL     1      -8.641   4.594  62.404  1.00  0.00    -0.106 A  
HETATM   12  C   UNL     1     -11.581   1.929  67.066  1.00  0.00    11.964 A  
HETATM   13  S   UNL     1     -12.118   4.322  67.790  1.00  0.00    14.441 SA 
HETATM   14  C   UNL     1     -12.208   2.642  68.059  1.00  0.00    20.665 A  
HETATM   15  S   UNL     1      -8.059   4.606  64.902  1.00  0.00    -0.107 SA 
ENDROOT
BRANCH   6  16
HETATM   16  O   UNL     1      -9.444   7.402  65.598  1.00  0.00     0.178 OA 
BRANCH  16  17
HETATM   17  C   UNL     1      -9.516   8.814  65.861  1.00  0.00    -0.208 C  
HETATM   18  N   UNL     1      -7.625  10.472  65.337  1.00  0.00    -0.131 N  
HETATM   19  C   UNL     1      -8.186   9.425  66.374  1.00  0.00    -0.111 C  
HETATM   20  C   UNL     1      -8.692  11.562  65.149  1.00  0.00     0.293 C  
HETATM   21  C   UNL     1      -7.415   9.729  64.010  1.00  0.00    -0.130 C  
HETATM   22  C   UNL     1     -10.030  10.962  64.749  1.00  0.00    -0.366 C  
HETATM   23  C   UNL     1      -8.766   9.226  63.498  1.00  0.00    -0.188 C  
HETATM   24  C   UNL     1      -9.891   9.465  64.523  1.00  0.00     0.581 C  
BRANCH  18  25
HETATM   25  C   UNL     1      -6.281  11.005  65.915  1.00  0.00    -0.037 C  
BRANCH  25  26
HETATM   26  C   UNL     1      -5.985  10.743  67.401  1.00  0.00    -0.049 C  
BRANCH  26  27
HETATM   27  C   UNL     1      -6.968  11.403  68.358  1.00  0.00    -0.075 C  
BRANCH  27  28
HETATM   28  O   UNL     1      -6.511  12.668  68.814  1.00  0.00    -0.073 OA 
BRANCH  28  29
HETATM   29  C   UNL     1      -7.400  13.696  68.591  1.00  0.00    -0.113 A  
HETATM   30  C   UNL     1      -7.197  14.823  69.381  1.00  0.00    -0.168 A  
HETATM   31  C   UNL     1      -8.053  15.924  69.283  1.00  0.00    -0.228 A  
HETATM   32  C   UNL     1      -9.109  15.912  68.374  1.00  0.00    -0.189 A  
HETATM   33  C   UNL     1      -9.300  14.808  67.554  1.00  0.00    -0.194 A  
HETATM   34  C   UNL     1      -8.447  13.706  67.657  1.00  0.00    -0.183 A  
ENDBRANCH  28  29
ENDBRANCH  27  28
ENDBRANCH  26  27
ENDBRANCH  25  26
ENDBRANCH  18  25
ENDBRANCH  16  17
ENDBRANCH   6  16
TORSDOF 7
ENDMDL
MODEL      234
REMARK 921   NORMALIZED FREE ENERGY PREDICTED BY IDOCK:   52.12 KCAL/MOL
REMARK 922        TOTAL FREE ENERGY PREDICTED BY IDOCK:   71.80 KCAL/MOL
REMARK 923 INTER-LIGAND FREE ENERGY PREDICTED BY IDOCK:   31.87 KCAL/MOL
REMARK 924 INTRA-LIGAND FREE ENERGY PREDICTED BY IDOCK:   39.93 KCAL/MOL
REMARK 927      BINDING AFFINITY PREDICTED BY RF-SCORE:    0.00 PKD
ROOT
HETATM    1  O   UNL     1      -9.148  12.397  71.842  1.00  0.00    15.726 OA 
HETATM    2  C   UNL     1      -9.108  11.233  71.002  1.00  0.00     6.846 C  
HETATM    3  H   UNL     1      -9.916  12.334  72.397  1.00  0.00     0.000 HD 
HETATM    4  C   UNL     1     -10.368  11.294  70.130  1.00  0.00     1.026 A  
HETATM    5  C   UNL     1      -9.105  10.038  71.953  1.00  0.00     3.798 A  
HETATM    6  C   UNL     1      -7.834  11.338  70.082  1.00  0.00     1.570 C  
HETATM    7  C   UNL     1     -12.065  10.929  68.358  1.00  0.00     0.149 A  
HETATM    8  C   UNL     1     -11.436  12.175  70.211  1.00  0.00     0.062 A  
HETATM    9  C   UNL     1     -10.175   9.245  72.348  1.00  0.00     0.803 A  
HETATM   10  O   UNL     1      -6.716  10.878  70.281  1.00  0.00    -0.230 OA 
HETATM   11  C   UNL     1     -12.403  11.973  69.187  1.00  0.00     0.069 A  
HETATM   12  C   UNL     1      -9.821   8.258  73.312  1.00  0.00    -0.048 A  
HETATM   13  S   UNL     1      -7.697   9.604  72.849  1.00  0.00     3.162 SA 
HETATM   14  C   UNL     1      -8.492   8.331  73.655  1.00  0.00    -0.197 A  
HETATM   15  S   UNL     1     -10.616  10.167  68.841  1.00  0.00    -0.228 SA 
ENDROOT
BRANCH   6  16
HETATM   16  O   UNL     1      -8.082  12.112  68.976  1.00  0.00     0.061 OA 
BRANCH  16  17
HETATM   17  C   UNL     1      -8.332  11.441  67.729  1.00  0.00    -0.127 C  
HETATM   18  N   UNL     1      -8.691   8.907  67.506  1.00  0.00    -0.123 N  
HETATM   19  C   UNL     1      -7.626  10.066  67.604  1.00  0.00    -0.091 C  
HETATM   20  C   UNL     1      -9.572   9.184  66.277  1.00  0.00    -0.255 C  
HETATM   21  C   UNL     1      -9.550   8.972  68.776  1.00  0.00    -0.152 C  
HETATM   22  C   UNL     1     -10.184  10.574  66.339  1.00  0.00    -0.296 C  
HETATM   23  C   UNL     1     -10.298  10.307  68.808  1.00  0.00    -0.211 C  
HETATM   24  C   UNL     1      -9.852  11.239  67.665  1.00  0.00    -0.190 C  
BRANCH  18  25
HETATM   25  C   UNL     1      -7.896   7.570  67.419  1.00  0.00    -0.118 C  
BRANCH  25  26
HETATM   26  C   UNL     1      -8.430   6.480  66.475  1.00  0.00    -0.120 C  
BRANCH  26  27
HETATM   27  C   UNL     1      -7.922   5.080  66.791  1.00  0.00    -0.104 C  
BRANCH  27  28
HETATM   28  O   UNL     1      -7.801   4.850  68.187  1.00  0.00    -0.082 OA 
BRANCH  28  29
HETATM   29  C   UNL     1      -8.576   3.809  68.650  1.00  0.00    -0.094 A  
HETATM   30  C   UNL     1      -8.310   3.424  69.959  1.00  0.00    -0.081 A  
HETATM   31  C   UNL     1      -8.998   2.354  70.540  1.00  0.00    -0.158 A  
HETATM   32  C   UNL     1      -9.976   1.675  69.816  1.00  0.00     0.278 A  
HETATM   33  C   UNL     1     -10.277   2.073  68.521  1.00  0.00     1.353 A  
HETATM   34  C   UNL     1      -9.585   3.140  67.940  1.00  0.00    -0.130 A  
ENDBRANCH  28  29
ENDBRANCH  27  28
ENDBRANCH  26  27
ENDBRANCH  25  26
ENDBRANCH  18  25
ENDBRANCH  16  17
ENDBRANCH   6  16
TORSDOF 7
ENDMDL
