MODEL        1
REMARK 921   NORMALIZED FREE ENERGY PREDICTED BY IDOCK:   -7.91 KCAL/MOL
REMARK 922        TOTAL FREE ENERGY PREDICTED BY IDOCK:  -11.56 KCAL/MOL
REMARK 923 INTER-LIGAND FREE ENERGY PREDICTED BY IDOCK:  -10.22 KCAL/MOL
REMARK 924 INTRA-LIGAND FREE ENERGY PREDICTED BY IDOCK:   -1.34 KCAL/MOL
REMARK 927      BINDING AFFINITY PREDICTED BY RF-SCORE:    0.00 PKD
ROOT
HETATM    1  C   UNL     1     -10.249  15.432  68.940  1.00  0.00    -0.219 C  
HETATM    2  C   UNL     1     -11.317  14.609  68.813  1.00  0.00    -0.302 C  
ENDROOT
BRANCH   1   3
HETATM    3  C   UNL     1      -9.209  15.764  67.903  1.00  0.00    -0.191 C  
BRANCH   3   4
HETATM    4  N   UNL     1      -9.348  17.129  67.377  1.00  0.00    -0.232 NA 
HETATM    5  C   UNL     1     -10.768  19.048  67.574  1.00  0.00    -0.532 C  
HETATM    6  C   UNL     1     -10.513  18.697  66.120  1.00  0.00    -0.473 C  
HETATM    7  C   UNL     1      -9.961  18.025  68.369  1.00  0.00    -0.378 C  
HETATM    8  C   UNL     1     -10.179  17.218  66.175  1.00  0.00    -0.331 C  
ENDBRANCH   3   4
ENDBRANCH   1   3
BRANCH   2   9
HETATM    9  C   UNL     1     -12.167  14.436  70.013  1.00  0.00    -0.351 A  
HETATM   10  C   UNL     1     -13.601  15.343  71.700  1.00  0.00    -0.603 A  
HETATM   11  C   UNL     1     -13.151  12.997  71.542  1.00  0.00    -0.310 A  
HETATM   12  N   UNL     1     -12.343  13.171  70.464  1.00  0.00    -0.334 NA 
HETATM   13  C   UNL     1     -13.798  14.051  72.178  1.00  0.00    -0.627 A  
HETATM   14  C   UNL     1     -12.771  15.541  70.602  1.00  0.00    -0.487 A  
BRANCH  11  15
HETATM   15  C   UNL     1     -13.326  11.624  72.034  1.00  0.00    -0.405 C  
HETATM   16  C   UNL     1     -12.797  10.558  71.416  1.00  0.00    -0.551 C  
HETATM   17  C   UNL     1     -12.997   9.210  71.970  1.00  0.00    -0.424 C  
HETATM   18  O   UNL     1     -12.406   8.263  71.215  1.00  0.00    -0.303 OA 
HETATM   19  O   UNL     1     -13.617   8.964  72.992  1.00  0.00    -0.283 OA 
ENDBRANCH  11  15
ENDBRANCH   2   9
BRANCH   2  20
HETATM   20  C   UNL     1     -11.562  13.887  67.546  1.00  0.00    -0.392 A  
HETATM   21  C   UNL     1     -11.105  12.004  66.080  1.00  0.00    -0.367 A  
HETATM   22  C   UNL     1     -12.093  11.870  63.762  1.00  0.00    -0.547 C  
HETATM   23  C   UNL     1     -10.926  12.665  67.299  1.00  0.00    -0.291 A  
HETATM   24  C   UNL     1     -12.576  13.767  65.342  1.00  0.00    -0.534 A  
HETATM   25  C   UNL     1     -11.926  12.553  65.089  1.00  0.00    -0.484 A  
HETATM   26  C   UNL     1     -12.397  14.429  66.563  1.00  0.00    -0.272 A  
ENDBRANCH   2  20
TORSDOF 5
ENDMDL
MODEL        2
REMARK 921   NORMALIZED FREE ENERGY PREDICTED BY IDOCK:   -7.88 KCAL/MOL
REMARK 922        TOTAL FREE ENERGY PREDICTED BY IDOCK:  -11.53 KCAL/MOL
REMARK 923 INTER-LIGAND FREE ENERGY PREDICTED BY IDOCK:  -10.47 KCAL/MOL
REMARK 924 INTRA-LIGAND FREE ENERGY PREDICTED BY IDOCK:   -1.05 KCAL/MOL
REMARK 927      BINDING AFFINITY PREDICTED BY RF-SCORE:    0.00 PKD
ROOT
HETATM    1  C   UNL     1     -11.092  16.191  68.791  1.00  0.00    -0.354 C  
HETATM    2  C   UNL     1     -11.623  14.946  68.848  1.00  0.00    -0.339 C  
ENDROOT
BRANCH   1   3
HETATM    3  C   UNL     1     -10.299  16.807  67.670  1.00  0.00    -0.309 C  
BRANCH   3   4
HETATM    4  N   UNL     1     -10.570  18.241  67.505  1.00  0.00    -0.419 NA 
HETATM    5  C   UNL     1     -10.029  20.067  66.052  1.00  0.00    -0.542 C  
HETATM    6  C   UNL     1      -9.837  20.446  67.508  1.00  0.00    -0.564 C  
HETATM    7  C   UNL     1     -10.545  18.631  66.086  1.00  0.00    -0.363 C  
HETATM    8  C   UNL     1      -9.606  19.108  68.186  1.00  0.00    -0.348 C  
ENDBRANCH   3   4
ENDBRANCH   1   3
BRANCH   2   9
HETATM    9  C   UNL     1     -12.333  14.584  70.096  1.00  0.00    -0.342 A  
HETATM   10  C   UNL     1     -13.618  15.204  72.017  1.00  0.00    -0.549 A  
HETATM   11  C   UNL     1     -13.088  12.922  71.525  1.00  0.00    -0.298 A  
HETATM   12  N   UNL     1     -12.407  13.267  70.402  1.00  0.00    -0.323 NA 
HETATM   13  C   UNL     1     -13.708  13.856  72.349  1.00  0.00    -0.678 A  
HETATM   14  C   UNL     1     -12.918  15.577  70.875  1.00  0.00    -0.526 A  
BRANCH  11  15
HETATM   15  C   UNL     1     -13.151  11.493  71.858  1.00  0.00    -0.492 C  
HETATM   16  C   UNL     1     -12.418  10.566  71.223  1.00  0.00    -0.524 C  
HETATM   17  C   UNL     1     -12.517   9.152  71.616  1.00  0.00    -0.359 C  
HETATM   18  O   UNL     1     -11.720   8.365  70.866  1.00  0.00    -0.284 OA 
HETATM   19  O   UNL     1     -13.226   8.728  72.514  1.00  0.00    -0.400 OA 
ENDBRANCH  11  15
ENDBRANCH   2   9
BRANCH   2  20
HETATM   20  C   UNL     1     -11.436  13.999  67.729  1.00  0.00    -0.351 A  
HETATM   21  C   UNL     1     -10.047  12.394  66.545  1.00  0.00    -0.246 A  
HETATM   22  C   UNL     1     -10.777  11.387  64.350  1.00  0.00    -0.405 C  
HETATM   23  C   UNL     1     -10.258  13.249  67.631  1.00  0.00    -0.228 A  
HETATM   24  C   UNL     1     -12.199  13.009  65.646  1.00  0.00    -0.521 A  
HETATM   25  C   UNL     1     -11.012  12.272  65.539  1.00  0.00    -0.337 A  
HETATM   26  C   UNL     1     -12.411  13.864  66.734  1.00  0.00    -0.370 A  
ENDBRANCH   2  20
TORSDOF 5
ENDMDL
MODEL        3
REMARK 921   NORMALIZED FREE ENERGY PREDICTED BY IDOCK:   -7.62 KCAL/MOL
REMARK 922        TOTAL FREE ENERGY PREDICTED BY IDOCK:  -11.19 KCAL/MOL
REMARK 923 INTER-LIGAND FREE ENERGY PREDICTED BY IDOCK:   -9.78 KCAL/MOL
REMARK 924 INTRA-LIGAND FREE ENERGY PREDICTED BY IDOCK:   -1.41 KCAL/MOL
REMARK 927      BINDING AFFINITY PREDICTED BY RF-SCORE:    0.00 PKD
ROOT
HETATM    1  C   UNL     1     -10.651  13.477  68.351  1.00  0.00    -0.258 C  
HETATM    2  C   UNL     1     -10.891  14.603  69.063  1.00  0.00    -0.252 C  
ENDROOT
BRANCH   1   3
HETATM    3  C   UNL     1      -9.787  13.324  67.127  1.00  0.00    -0.237 C  
BRANCH   3   4
HETATM    4  N   UNL     1     -10.570  13.096  65.905  1.00  0.00    -0.276 NA 
HETATM    5  C   UNL     1     -12.125  14.222  64.473  1.00  0.00    -0.499 C  
HETATM    6  C   UNL     1     -12.619  12.836  64.842  1.00  0.00    -0.541 C  
HETATM    7  C   UNL     1     -10.765  14.346  65.154  1.00  0.00    -0.398 C  
HETATM    8  C   UNL     1     -11.907  12.552  66.151  1.00  0.00    -0.397 C  
ENDBRANCH   3   4
ENDBRANCH   1   3
BRANCH   2   9
HETATM    9  C   UNL     1     -11.816  14.476  70.213  1.00  0.00    -0.308 A  
HETATM   10  C   UNL     1     -13.191  15.467  71.902  1.00  0.00    -0.553 A  
HETATM   11  C   UNL     1     -13.067  13.097  71.594  1.00  0.00    -0.353 A  
HETATM   12  N   UNL     1     -12.190  13.222  70.565  1.00  0.00    -0.364 NA 
HETATM   13  C   UNL     1     -13.590  14.189  72.278  1.00  0.00    -0.596 A  
HETATM   14  C   UNL     1     -12.288  15.616  70.855  1.00  0.00    -0.479 A  
BRANCH  11  15
HETATM   15  C   UNL     1     -13.457  11.734  71.980  1.00  0.00    -0.319 C  
HETATM   16  C   UNL     1     -12.817  10.642  71.535  1.00  0.00    -0.567 C  
HETATM   17  C   UNL     1     -13.248   9.305  71.973  1.00  0.00    -0.447 C  
HETATM   18  O   UNL     1     -12.501   8.330  71.420  1.00  0.00    -0.307 OA 
HETATM   19  O   UNL     1     -14.168   9.091  72.746  1.00  0.00    -0.572 OA 
ENDBRANCH  11  15
ENDBRANCH   2   9
BRANCH   2  20
HETATM   20  C   UNL     1     -10.293  15.892  68.654  1.00  0.00    -0.229 A  
HETATM   21  C   UNL     1      -8.440  17.463  68.722  1.00  0.00    -0.225 A  
HETATM   22  C   UNL     1      -8.607  19.743  67.655  1.00  0.00    -0.376 C  
HETATM   23  C   UNL     1      -8.993  16.222  69.054  1.00  0.00    -0.254 A  
HETATM   24  C   UNL     1     -10.473  18.057  67.568  1.00  0.00    -0.408 A  
HETATM   25  C   UNL     1      -9.178  18.393  67.982  1.00  0.00    -0.307 A  
HETATM   26  C   UNL     1     -11.026  16.814  67.899  1.00  0.00    -0.260 A  
ENDBRANCH   2  20
TORSDOF 5
ENDMDL
MODEL        4
REMARK 921   NORMALIZED FREE ENERGY PREDICTED BY IDOCK:   -7.58 KCAL/MOL
REMARK 922        TOTAL FREE ENERGY PREDICTED BY IDOCK:  -11.13 KCAL/MOL
REMARK 923 INTER-LIGAND FREE ENERGY PREDICTED BY IDOCK:  -10.08 KCAL/MOL
REMARK 924 INTRA-LIGAND FREE ENERGY PREDICTED BY IDOCK:   -1.05 KCAL/MOL
REMARK 927      BINDING AFFINITY PREDICTED BY RF-SCORE:    0.00 PKD
ROOT
HETATM    1  C   UNL     1     -11.725  14.121  67.764  1.00  0.00    -0.408 C  
HETATM    2  C   UNL     1     -11.437  14.923  68.817  1.00  0.00    -0.328 C  
ENDROOT
BRANCH   1   3
HETATM    3  C   UNL     1     -11.156  14.185  66.372  1.00  0.00    -0.320 C  
BRANCH   3   4
HETATM    4  N   UNL     1     -11.739  13.179  65.474  1.00  0.00    -0.340 NA 
HETATM    5  C   UNL     1     -11.089  11.633  63.763  1.00  0.00    -0.499 C  
HETATM    6  C   UNL     1     -12.285  12.461  63.333  1.00  0.00    -0.623 C  
HETATM    7  C   UNL     1     -10.781  12.102  65.183  1.00  0.00    -0.292 C  
HETATM    8  C   UNL     1     -12.160  13.715  64.178  1.00  0.00    -0.435 C  
ENDBRANCH   3   4
ENDBRANCH   1   3
BRANCH   2   9
HETATM    9  C   UNL     1     -12.174  14.656  70.074  1.00  0.00    -0.333 A  
HETATM   10  C   UNL     1     -13.386  15.435  71.984  1.00  0.00    -0.545 A  
HETATM   11  C   UNL     1     -13.078  13.103  71.538  1.00  0.00    -0.315 A  
HETATM   12  N   UNL     1     -12.372  13.359  70.407  1.00  0.00    -0.333 NA 
HETATM   13  C   UNL     1     -13.603  14.109  72.344  1.00  0.00    -0.632 A  
HETATM   14  C   UNL     1     -12.658  15.716  70.833  1.00  0.00    -0.503 A  
BRANCH  11  15
HETATM   15  C   UNL     1     -13.277  11.694  71.901  1.00  0.00    -0.475 C  
HETATM   16  C   UNL     1     -12.590  10.693  71.330  1.00  0.00    -0.533 C  
HETATM   17  C   UNL     1     -12.825   9.303  71.750  1.00  0.00    -0.382 C  
HETATM   18  O   UNL     1     -12.057   8.434  71.064  1.00  0.00    -0.279 OA 
HETATM   19  O   UNL     1     -13.614   8.964  72.617  1.00  0.00    -0.439 OA 
ENDBRANCH  11  15
ENDBRANCH   2   9
BRANCH   2  20
HETATM   20  C   UNL     1     -10.476  16.037  68.672  1.00  0.00    -0.251 A  
HETATM   21  C   UNL     1      -8.230  16.922  68.949  1.00  0.00    -0.218 A  
HETATM   22  C   UNL     1      -7.698  19.339  68.463  1.00  0.00    -0.380 C  
HETATM   23  C   UNL     1      -9.134  15.858  69.028  1.00  0.00    -0.240 A  
HETATM   24  C   UNL     1      -9.991  18.357  68.140  1.00  0.00    -0.388 A  
HETATM   25  C   UNL     1      -8.652  18.182  68.512  1.00  0.00    -0.307 A  
HETATM   26  C   UNL     1     -10.896  17.291  68.217  1.00  0.00    -0.287 A  
ENDBRANCH   2  20
TORSDOF 5
ENDMDL
MODEL        5
REMARK 921   NORMALIZED FREE ENERGY PREDICTED BY IDOCK:   -7.51 KCAL/MOL
REMARK 922        TOTAL FREE ENERGY PREDICTED BY IDOCK:  -11.05 KCAL/MOL
REMARK 923 INTER-LIGAND FREE ENERGY PREDICTED BY IDOCK:   -9.98 KCAL/MOL
REMARK 924 INTRA-LIGAND FREE ENERGY PREDICTED BY IDOCK:   -1.07 KCAL/MOL
REMARK 927      BINDING AFFINITY PREDICTED BY RF-SCORE:    0.00 PKD
ROOT
HETATM    1  C   UNL     1     -11.967  14.489  67.785  1.00  0.00    -0.345 C  
HETATM    2  C   UNL     1     -11.504  15.105  68.899  1.00  0.00    -0.337 C  
ENDROOT
BRANCH   1   3
HETATM    3  C   UNL     1     -11.474  14.644  66.371  1.00  0.00    -0.347 C  
BRANCH   3   4
HETATM    4  N   UNL     1     -11.942  13.569  65.486  1.00  0.00    -0.367 NA 
HETATM    5  C   UNL     1     -11.085  11.818  64.094  1.00  0.00    -0.442 C  
HETATM    6  C   UNL     1     -12.130  12.641  63.364  1.00  0.00    -0.614 C  
HETATM    7  C   UNL     1     -11.014  12.428  65.491  1.00  0.00    -0.293 C  
HETATM    8  C   UNL     1     -12.085  13.975  64.086  1.00  0.00    -0.422 C  
ENDBRANCH   3   4
ENDBRANCH   1   3
BRANCH   2   9
HETATM    9  C   UNL     1     -12.201  14.792  70.168  1.00  0.00    -0.337 A  
HETATM   10  C   UNL     1     -13.347  15.500  72.145  1.00  0.00    -0.561 A  
HETATM   11  C   UNL     1     -13.065  13.186  71.599  1.00  0.00    -0.353 A  
HETATM   12  N   UNL     1     -12.394  13.483  70.457  1.00  0.00    -0.350 NA 
HETATM   13  C   UNL     1     -13.558  14.161  72.460  1.00  0.00    -0.644 A  
HETATM   14  C   UNL     1     -12.655  15.823  70.983  1.00  0.00    -0.470 A  
BRANCH  11  15
HETATM   15  C   UNL     1     -13.258  11.764  71.913  1.00  0.00    -0.468 C  
HETATM   16  C   UNL     1     -12.574  10.786  71.301  1.00  0.00    -0.532 C  
HETATM   17  C   UNL     1     -12.804   9.381  71.673  1.00  0.00    -0.378 C  
HETATM   18  O   UNL     1     -12.041   8.538  70.950  1.00  0.00    -0.253 OA 
HETATM   19  O   UNL     1     -13.585   9.010  72.534  1.00  0.00    -0.461 OA 
ENDBRANCH  11  15
ENDBRANCH   2   9
BRANCH   2  20
HETATM   20  C   UNL     1     -10.396  16.079  68.812  1.00  0.00    -0.237 A  
HETATM   21  C   UNL     1      -9.600  18.313  68.279  1.00  0.00    -0.332 A  
HETATM   22  C   UNL     1      -7.144  18.886  68.342  1.00  0.00    -0.295 C  
HETATM   23  C   UNL     1     -10.649  17.400  68.420  1.00  0.00    -0.355 A  
HETATM   24  C   UNL     1      -8.028  16.607  68.938  1.00  0.00    -0.236 A  
HETATM   25  C   UNL     1      -8.280  17.923  68.530  1.00  0.00    -0.300 A  
HETATM   26  C   UNL     1      -9.078  15.692  69.081  1.00  0.00    -0.256 A  
ENDBRANCH   2  20
TORSDOF 5
ENDMDL
MODEL        6
REMARK 921   NORMALIZED FREE ENERGY PREDICTED BY IDOCK:   -7.26 KCAL/MOL
REMARK 922        TOTAL FREE ENERGY PREDICTED BY IDOCK:  -10.72 KCAL/MOL
REMARK 923 INTER-LIGAND FREE ENERGY PREDICTED BY IDOCK:   -9.31 KCAL/MOL
REMARK 924 INTRA-LIGAND FREE ENERGY PREDICTED BY IDOCK:   -1.41 KCAL/MOL
REMARK 927      BINDING AFFINITY PREDICTED BY RF-SCORE:    0.00 PKD
ROOT
HETATM    1  C   UNL     1     -11.305  16.170  68.694  1.00  0.00    -0.365 C  
HETATM    2  C   UNL     1     -11.673  14.874  68.834  1.00  0.00    -0.343 C  
ENDROOT
BRANCH   1   3
HETATM    3  C   UNL     1     -10.582  16.806  67.537  1.00  0.00    -0.309 C  
BRANCH   3   4
HETATM    4  N   UNL     1      -9.125  16.834  67.725  1.00  0.00    -0.219 NA 
HETATM    5  C   UNL     1      -7.186  15.485  67.330  1.00  0.00    -0.241 C  
HETATM    6  C   UNL     1      -7.208  16.016  68.751  1.00  0.00    -0.157 C  
HETATM    7  C   UNL     1      -8.435  16.069  66.676  1.00  0.00    -0.288 C  
HETATM    8  C   UNL     1      -8.682  16.271  69.002  1.00  0.00    -0.246 C  
ENDBRANCH   3   4
ENDBRANCH   1   3
BRANCH   2   9
HETATM    9  C   UNL     1     -12.348  14.509  70.101  1.00  0.00    -0.342 A  
HETATM   10  C   UNL     1     -13.585  15.123  72.054  1.00  0.00    -0.549 A  
HETATM   11  C   UNL     1     -13.057  12.843  71.549  1.00  0.00    -0.298 A  
HETATM   12  N   UNL     1     -12.408  13.191  70.408  1.00  0.00    -0.312 NA 
HETATM   13  C   UNL     1     -13.660  13.774  72.389  1.00  0.00    -0.690 A  
HETATM   14  C   UNL     1     -12.918  15.499  70.894  1.00  0.00    -0.526 A  
BRANCH  11  15
HETATM   15  C   UNL     1     -13.105  11.414  71.884  1.00  0.00    -0.505 C  
HETATM   16  C   UNL     1     -12.417  10.485  71.203  1.00  0.00    -0.517 C  
HETATM   17  C   UNL     1     -12.496   9.071  71.600  1.00  0.00    -0.351 C  
HETATM   18  O   UNL     1     -11.752   8.282  70.800  1.00  0.00    -0.277 OA 
HETATM   19  O   UNL     1     -13.149   8.649  72.540  1.00  0.00    -0.363 OA 
ENDBRANCH  11  15
ENDBRANCH   2   9
BRANCH   2  20
HETATM   20  C   UNL     1     -11.350  13.885  67.784  1.00  0.00    -0.335 A  
HETATM   21  C   UNL     1     -11.971  12.694  65.758  1.00  0.00    -0.503 A  
HETATM   22  C   UNL     1     -10.532  10.845  64.824  1.00  0.00    -0.373 C  
HETATM   23  C   UNL     1     -12.240  13.669  66.724  1.00  0.00    -0.416 A  
HETATM   24  C   UNL     1      -9.910  12.148  66.885  1.00  0.00    -0.213 A  
HETATM   25  C   UNL     1     -10.808  11.921  65.834  1.00  0.00    -0.342 A  
HETATM   26  C   UNL     1     -10.178  13.125  67.851  1.00  0.00    -0.233 A  
ENDBRANCH   2  20
TORSDOF 5
ENDMDL
MODEL        7
REMARK 921   NORMALIZED FREE ENERGY PREDICTED BY IDOCK:   -7.19 KCAL/MOL
REMARK 922        TOTAL FREE ENERGY PREDICTED BY IDOCK:  -10.63 KCAL/MOL
REMARK 923 INTER-LIGAND FREE ENERGY PREDICTED BY IDOCK:   -9.26 KCAL/MOL
REMARK 924 INTRA-LIGAND FREE ENERGY PREDICTED BY IDOCK:   -1.38 KCAL/MOL
REMARK 927      BINDING AFFINITY PREDICTED BY RF-SCORE:    0.00 PKD
ROOT
HETATM    1  C   UNL     1     -11.816  14.321  67.780  1.00  0.00    -0.414 C  
HETATM    2  C   UNL     1     -11.453  15.050  68.862  1.00  0.00    -0.333 C  
ENDROOT
BRANCH   1   3
HETATM    3  C   UNL     1     -11.276  14.417  66.378  1.00  0.00    -0.345 C  
BRANCH   3   4
HETATM    4  N   UNL     1     -10.611  13.182  65.941  1.00  0.00    -0.276 NA 
HETATM    5  C   UNL     1     -10.527  10.846  66.463  1.00  0.00    -0.308 C  
HETATM    6  C   UNL     1      -9.134  11.435  66.344  1.00  0.00    -0.201 C  
HETATM    7  C   UNL     1     -11.469  12.007  66.156  1.00  0.00    -0.339 C  
HETATM    8  C   UNL     1      -9.355  12.907  66.640  1.00  0.00    -0.240 C  
ENDBRANCH   3   4
ENDBRANCH   1   3
BRANCH   2   9
HETATM    9  C   UNL     1     -12.177  14.769  70.124  1.00  0.00    -0.337 A  
HETATM   10  C   UNL     1     -13.362  15.527  72.059  1.00  0.00    -0.566 A  
HETATM   11  C   UNL     1     -13.075  13.200  71.575  1.00  0.00    -0.315 A  
HETATM   12  N   UNL     1     -12.380  13.468  70.440  1.00  0.00    -0.341 NA 
HETATM   13  C   UNL     1     -13.583  14.197  72.402  1.00  0.00    -0.632 A  
HETATM   14  C   UNL     1     -12.646  15.821  70.904  1.00  0.00    -0.437 A  
BRANCH  11  15
HETATM   15  C   UNL     1     -13.278  11.786  71.919  1.00  0.00    -0.468 C  
HETATM   16  C   UNL     1     -12.539  10.798  71.394  1.00  0.00    -0.516 C  
HETATM   17  C   UNL     1     -12.784   9.403  71.793  1.00  0.00    -0.390 C  
HETATM   18  O   UNL     1     -11.958   8.547  71.160  1.00  0.00    -0.287 OA 
HETATM   19  O   UNL     1     -13.626   9.050  72.602  1.00  0.00    -0.465 OA 
ENDBRANCH  11  15
ENDBRANCH   2   9
BRANCH   2  20
HETATM   20  C   UNL     1     -10.426  16.106  68.746  1.00  0.00    -0.264 A  
HETATM   21  C   UNL     1      -9.805  18.375  68.135  1.00  0.00    -0.365 A  
HETATM   22  C   UNL     1      -7.403  19.144  68.191  1.00  0.00    -0.304 C  
HETATM   23  C   UNL     1     -10.780  17.386  68.304  1.00  0.00    -0.327 A  
HETATM   24  C   UNL     1      -8.108  16.825  68.866  1.00  0.00    -0.230 A  
HETATM   25  C   UNL     1      -8.461  18.100  68.407  1.00  0.00    -0.311 A  
HETATM   26  C   UNL     1      -9.084  15.835  69.037  1.00  0.00    -0.245 A  
ENDBRANCH   2  20
TORSDOF 5
ENDMDL
MODEL        8
REMARK 921   NORMALIZED FREE ENERGY PREDICTED BY IDOCK:   -7.11 KCAL/MOL
REMARK 922        TOTAL FREE ENERGY PREDICTED BY IDOCK:  -10.52 KCAL/MOL
REMARK 923 INTER-LIGAND FREE ENERGY PREDICTED BY IDOCK:   -9.32 KCAL/MOL
REMARK 924 INTRA-LIGAND FREE ENERGY PREDICTED BY IDOCK:   -1.20 KCAL/MOL
REMARK 927      BINDING AFFINITY PREDICTED BY RF-SCORE:    0.00 PKD
ROOT
HETATM    1  C   UNL     1     -11.840  14.034  67.962  1.00  0.00    -0.403 C  
HETATM    2  C   UNL     1     -11.472  14.863  68.968  1.00  0.00    -0.322 C  
ENDROOT
BRANCH   1   3
HETATM    3  C   UNL     1     -11.366  14.048  66.533  1.00  0.00    -0.336 C  
BRANCH   3   4
HETATM    4  N   UNL     1     -10.465  12.929  66.224  1.00  0.00    -0.266 NA 
HETATM    5  C   UNL     1     -10.299  11.042  64.758  1.00  0.00    -0.389 C  
HETATM    6  C   UNL     1     -10.015  10.650  66.196  1.00  0.00    -0.283 C  
HETATM    7  C   UNL     1     -10.553  12.546  64.807  1.00  0.00    -0.305 C  
HETATM    8  C   UNL     1     -10.742  11.716  66.995  1.00  0.00    -0.253 C  
ENDBRANCH   3   4
ENDBRANCH   1   3
BRANCH   2   9
HETATM    9  C   UNL     1     -12.126  14.646  70.279  1.00  0.00    -0.319 A  
HETATM   10  C   UNL     1     -13.015  15.497  72.331  1.00  0.00    -0.511 A  
HETATM   11  C   UNL     1     -13.139  13.176  71.757  1.00  0.00    -0.383 A  
HETATM   12  N   UNL     1     -12.506  13.380  70.574  1.00  0.00    -0.309 NA 
HETATM   13  C   UNL     1     -13.415  14.204  72.653  1.00  0.00    -0.634 A  
HETATM   14  C   UNL     1     -12.357  15.724  71.127  1.00  0.00    -0.480 A  
BRANCH  11  15
HETATM   15  C   UNL     1     -13.535  11.798  72.078  1.00  0.00    -0.319 C  
HETATM   16  C   UNL     1     -12.838  10.728  71.667  1.00  0.00    -0.562 C  
HETATM   17  C   UNL     1     -13.280   9.374  72.036  1.00  0.00    -0.449 C  
HETATM   18  O   UNL     1     -12.468   8.425  71.529  1.00  0.00    -0.301 OA 
HETATM   19  O   UNL     1     -14.258   9.126  72.721  1.00  0.00    -0.552 OA 
ENDBRANCH  11  15
ENDBRANCH   2   9
BRANCH   2  20
HETATM   20  C   UNL     1     -10.508  15.957  68.724  1.00  0.00    -0.237 A  
HETATM   21  C   UNL     1      -8.289  16.904  69.016  1.00  0.00    -0.146 A  
HETATM   22  C   UNL     1      -7.735  19.231  68.216  1.00  0.00    -0.351 C  
HETATM   23  C   UNL     1      -9.192  15.851  69.191  1.00  0.00    -0.253 A  
HETATM   24  C   UNL     1      -9.997  18.180  67.890  1.00  0.00    -0.340 A  
HETATM   25  C   UNL     1      -8.686  18.080  68.372  1.00  0.00    -0.301 A  
HETATM   26  C   UNL     1     -10.902  17.125  68.063  1.00  0.00    -0.317 A  
ENDBRANCH   2  20
TORSDOF 5
ENDMDL
MODEL        9
REMARK 921   NORMALIZED FREE ENERGY PREDICTED BY IDOCK:   -7.05 KCAL/MOL
REMARK 922        TOTAL FREE ENERGY PREDICTED BY IDOCK:  -10.45 KCAL/MOL
REMARK 923 INTER-LIGAND FREE ENERGY PREDICTED BY IDOCK:   -9.33 KCAL/MOL
REMARK 924 INTRA-LIGAND FREE ENERGY PREDICTED BY IDOCK:   -1.12 KCAL/MOL
REMARK 927      BINDING AFFINITY PREDICTED BY RF-SCORE:    0.00 PKD
ROOT
HETATM    1  C   UNL     1     -11.327  15.997  68.754  1.00  0.00    -0.380 C  
HETATM    2  C   UNL     1     -11.664  14.691  68.627  1.00  0.00    -0.362 C  
ENDROOT
BRANCH   1   3
HETATM    3  C   UNL     1     -10.730  16.904  67.711  1.00  0.00    -0.315 C  
BRANCH   3   4
HETATM    4  N   UNL     1      -9.263  16.839  67.676  1.00  0.00    -0.222 NA 
HETATM    5  C   UNL     1      -7.358  18.270  67.425  1.00  0.00    -0.218 C  
HETATM    6  C   UNL     1      -7.262  17.060  66.516  1.00  0.00    -0.311 C  
HETATM    7  C   UNL     1      -8.660  18.076  68.197  1.00  0.00    -0.273 C  
HETATM    8  C   UNL     1      -8.711  16.649  66.333  1.00  0.00    -0.310 C  
ENDBRANCH   3   4
ENDBRANCH   1   3
BRANCH   2   9
HETATM    9  C   UNL     1     -12.205  14.025  69.834  1.00  0.00    -0.340 A  
HETATM   10  C   UNL     1     -13.498  14.089  71.846  1.00  0.00    -0.506 A  
HETATM   11  C   UNL     1     -12.480  12.073  71.052  1.00  0.00    -0.276 A  
HETATM   12  N   UNL     1     -11.956  12.701  69.969  1.00  0.00    -0.341 NA 
HETATM   13  C   UNL     1     -13.256  12.728  72.003  1.00  0.00    -0.538 A  
HETATM   14  C   UNL     1     -12.964  14.751  70.746  1.00  0.00    -0.407 A  
BRANCH  11  15
HETATM   15  C   UNL     1     -12.193  10.639  71.201  1.00  0.00    -0.479 C  
HETATM   16  C   UNL     1     -13.146   9.732  71.463  1.00  0.00    -0.506 C  
HETATM   17  C   UNL     1     -12.795   8.308  71.584  1.00  0.00    -0.329 C  
HETATM   18  O   UNL     1     -13.872   7.547  71.858  1.00  0.00    -0.317 OA 
HETATM   19  O   UNL     1     -11.669   7.857  71.450  1.00  0.00    -0.269 OA 
ENDBRANCH  11  15
ENDBRANCH   2   9
BRANCH   2  20
HETATM   20  C   UNL     1     -11.435  13.978  67.352  1.00  0.00    -0.373 A  
HETATM   21  C   UNL     1      -9.959  12.733  65.877  1.00  0.00    -0.273 A  
HETATM   22  C   UNL     1     -10.670  12.078  63.548  1.00  0.00    -0.513 C  
HETATM   23  C   UNL     1     -10.204  13.359  67.103  1.00  0.00    -0.247 A  
HETATM   24  C   UNL     1     -12.178  13.318  65.135  1.00  0.00    -0.487 A  
HETATM   25  C   UNL     1     -10.940  12.713  64.881  1.00  0.00    -0.326 A  
HETATM   26  C   UNL     1     -12.425  13.944  66.363  1.00  0.00    -0.414 A  
ENDBRANCH   2  20
TORSDOF 5
ENDMDL
MODEL       10
REMARK 921   NORMALIZED FREE ENERGY PREDICTED BY IDOCK:   -7.01 KCAL/MOL
REMARK 922        TOTAL FREE ENERGY PREDICTED BY IDOCK:  -10.40 KCAL/MOL
REMARK 923 INTER-LIGAND FREE ENERGY PREDICTED BY IDOCK:  -10.45 KCAL/MOL
REMARK 924 INTRA-LIGAND FREE ENERGY PREDICTED BY IDOCK:    0.05 KCAL/MOL
REMARK 927      BINDING AFFINITY PREDICTED BY RF-SCORE:    0.00 PKD
ROOT
HETATM    1  C   UNL     1     -11.980   9.759  70.642  1.00  0.00    -0.340 C  
HETATM    2  C   UNL     1     -11.971  10.936  69.973  1.00  0.00    -0.429 C  
ENDROOT
BRANCH   1   3
HETATM    3  C   UNL     1     -12.430   9.501  72.055  1.00  0.00    -0.349 C  
BRANCH   3   4
HETATM    4  N   UNL     1     -11.984   8.197  72.564  1.00  0.00    -0.378 NA 
HETATM    5  C   UNL     1     -10.182   6.638  72.321  1.00  0.00    -0.206 C  
HETATM    6  C   UNL     1     -11.528   5.946  72.216  1.00  0.00    -0.351 C  
HETATM    7  C   UNL     1     -10.516   8.103  72.586  1.00  0.00    -0.330 C  
HETATM    8  C   UNL     1     -12.456   7.060  71.770  1.00  0.00    -0.356 C  
ENDBRANCH   3   4
ENDBRANCH   1   3
BRANCH   2   9
HETATM    9  C   UNL     1     -11.440  10.910  68.591  1.00  0.00    -0.311 A  
HETATM   10  C   UNL     1     -10.152   9.855  66.873  1.00  0.00    -0.285 A  
HETATM   11  C   UNL     1     -11.391  11.865  66.479  1.00  0.00    -0.341 A  
HETATM   12  N   UNL     1     -11.842  11.901  67.759  1.00  0.00    -0.573 NA 
HETATM   13  C   UNL     1     -10.555  10.862  66.001  1.00  0.00    -0.254 A  
HETATM   14  C   UNL     1     -10.598   9.878  68.190  1.00  0.00    -0.270 A  
BRANCH  11  15
HETATM   15  C   UNL     1     -11.819  12.951  65.587  1.00  0.00    -0.464 C  
HETATM   16  C   UNL     1     -11.140  14.101  65.465  1.00  0.00    -0.310 C  
HETATM   17  C   UNL     1     -11.614  15.142  64.540  1.00  0.00    -0.329 C  
HETATM   18  O   UNL     1     -10.817  16.229  64.556  1.00  0.00    -0.668 OA 
HETATM   19  O   UNL     1     -12.605  15.046  63.835  1.00  0.00    -0.813 OA 
ENDBRANCH  11  15
ENDBRANCH   2   9
BRANCH   2  20
HETATM   20  C   UNL     1     -12.421  12.179  70.636  1.00  0.00    -0.330 A  
HETATM   21  C   UNL     1     -12.233  14.582  70.941  1.00  0.00    -0.409 A  
HETATM   22  C   UNL     1     -13.562  15.793  72.711  1.00  0.00    -0.662 C  
HETATM   23  C   UNL     1     -11.857  13.410  70.280  1.00  0.00    -0.316 A  
HETATM   24  C   UNL     1     -13.758  13.316  72.315  1.00  0.00    -0.686 A  
HETATM   25  C   UNL     1     -13.181  14.545  71.969  1.00  0.00    -0.446 A  
HETATM   26  C   UNL     1     -13.383  12.142  71.652  1.00  0.00    -0.244 A  
ENDBRANCH   2  20
TORSDOF 5
ENDMDL
MODEL       11
REMARK 921   NORMALIZED FREE ENERGY PREDICTED BY IDOCK:   -6.95 KCAL/MOL
REMARK 922        TOTAL FREE ENERGY PREDICTED BY IDOCK:  -10.32 KCAL/MOL
REMARK 923 INTER-LIGAND FREE ENERGY PREDICTED BY IDOCK:   -9.14 KCAL/MOL
REMARK 924 INTRA-LIGAND FREE ENERGY PREDICTED BY IDOCK:   -1.18 KCAL/MOL
REMARK 927      BINDING AFFINITY PREDICTED BY RF-SCORE:    0.00 PKD
ROOT
HETATM    1  C   UNL     1     -12.172  14.048  67.017  1.00  0.00    -0.387 C  
HETATM    2  C   UNL     1     -11.431  14.773  67.887  1.00  0.00    -0.361 C  
ENDROOT
BRANCH   1   3
HETATM    3  C   UNL     1     -12.049  13.995  65.517  1.00  0.00    -0.410 C  
BRANCH   3   4
HETATM    4  N   UNL     1     -11.008  13.061  65.066  1.00  0.00    -0.289 NA 
HETATM    5  C   UNL     1     -10.633  11.379  63.403  1.00  0.00    -0.435 C  
HETATM    6  C   UNL     1     -10.233  10.890  64.782  1.00  0.00    -0.398 C  
HETATM    7  C   UNL     1     -11.100  12.816  63.619  1.00  0.00    -0.393 C  
HETATM    8  C   UNL     1     -11.073  11.747  65.710  1.00  0.00    -0.297 C  
ENDBRANCH   3   4
ENDBRANCH   1   3
BRANCH   2   9
HETATM    9  C   UNL     1     -11.792  14.662  69.319  1.00  0.00    -0.321 A  
HETATM   10  C   UNL     1     -12.112  15.657  71.471  1.00  0.00    -0.488 A  
HETATM   11  C   UNL     1     -12.584  13.347  71.057  1.00  0.00    -0.343 A  
HETATM   12  N   UNL     1     -12.215  13.451  69.754  1.00  0.00    -0.283 NA 
HETATM   13  C   UNL     1     -12.552  14.423  71.939  1.00  0.00    -0.413 A  
HETATM   14  C   UNL     1     -11.722  15.781  70.142  1.00  0.00    -0.367 A  
BRANCH  11  15
HETATM   15  C   UNL     1     -13.028  12.028  71.525  1.00  0.00    -0.407 C  
HETATM   16  C   UNL     1     -12.494  10.881  71.079  1.00  0.00    -0.514 C  
HETATM   17  C   UNL     1     -12.974   9.592  71.601  1.00  0.00    -0.396 C  
HETATM   18  O   UNL     1     -12.333   8.551  71.034  1.00  0.00    -0.250 OA 
HETATM   19  O   UNL     1     -13.843   9.466  72.448  1.00  0.00    -0.451 OA 
ENDBRANCH  11  15
ENDBRANCH   2   9
BRANCH   2  20
HETATM   20  C   UNL     1     -10.361  15.668  67.398  1.00  0.00    -0.275 A  
HETATM   21  C   UNL     1      -8.023  16.041  66.848  1.00  0.00    -0.283 A  
HETATM   22  C   UNL     1      -7.175  18.320  66.178  1.00  0.00    -0.301 C  
HETATM   23  C   UNL     1      -9.053  15.187  67.254  1.00  0.00    -0.210 A  
HETATM   24  C   UNL     1      -9.593  17.865  66.703  1.00  0.00    -0.311 A  
HETATM   25  C   UNL     1      -8.283  17.388  66.576  1.00  0.00    -0.311 A  
HETATM   26  C   UNL     1     -10.626  17.011  67.108  1.00  0.00    -0.245 A  
ENDBRANCH   2  20
TORSDOF 5
ENDMDL
MODEL       12
REMARK 921   NORMALIZED FREE ENERGY PREDICTED BY IDOCK:   -6.90 KCAL/MOL
REMARK 922        TOTAL FREE ENERGY PREDICTED BY IDOCK:  -10.25 KCAL/MOL
REMARK 923 INTER-LIGAND FREE ENERGY PREDICTED BY IDOCK:   -9.12 KCAL/MOL
REMARK 924 INTRA-LIGAND FREE ENERGY PREDICTED BY IDOCK:   -1.14 KCAL/MOL
REMARK 927      BINDING AFFINITY PREDICTED BY RF-SCORE:    0.00 PKD
ROOT
HETATM    1  C   UNL     1     -11.426  15.298  68.948  1.00  0.00    -0.346 C  
HETATM    2  C   UNL     1     -10.906  15.632  67.743  1.00  0.00    -0.307 C  
ENDROOT
BRANCH   1   3
HETATM    3  C   UNL     1     -11.347  16.075  70.235  1.00  0.00    -0.382 C  
BRANCH   3   4
HETATM    4  N   UNL     1     -12.469  15.790  71.140  1.00  0.00    -0.444 NA 
HETATM    5  C   UNL     1     -12.896  14.998  73.360  1.00  0.00    -0.652 C  
HETATM    6  C   UNL     1     -13.756  14.274  72.341  1.00  0.00    -0.616 C  
HETATM    7  C   UNL     1     -12.093  16.009  72.545  1.00  0.00    -0.537 C  
HETATM    8  C   UNL     1     -12.962  14.414  71.056  1.00  0.00    -0.349 C  
ENDBRANCH   3   4
ENDBRANCH   1   3
BRANCH   2   9
HETATM    9  C   UNL     1     -11.105  14.659  66.644  1.00  0.00    -0.334 A  
HETATM   10  C   UNL     1     -11.591  14.176  64.351  1.00  0.00    -0.377 A  
HETATM   11  C   UNL     1     -11.036  12.457  65.922  1.00  0.00    -0.288 A  
HETATM   12  N   UNL     1     -10.893  13.353  66.932  1.00  0.00    -0.276 NA 
HETATM   13  C   UNL     1     -11.376  12.829  64.626  1.00  0.00    -0.362 A  
HETATM   14  C   UNL     1     -11.457  15.108  65.375  1.00  0.00    -0.239 A  
BRANCH  11  15
HETATM   15  C   UNL     1     -10.818  11.041  66.246  1.00  0.00    -0.234 C  
HETATM   16  C   UNL     1     -10.719  10.591  67.506  1.00  0.00    -0.326 C  
HETATM   17  C   UNL     1     -10.517   9.157  67.763  1.00  0.00    -0.247 C  
HETATM   18  O   UNL     1     -10.430   8.890  69.081  1.00  0.00    -0.224 OA 
HETATM   19  O   UNL     1     -10.440   8.301  66.897  1.00  0.00    -0.319 OA 
ENDBRANCH  11  15
ENDBRANCH   2   9
BRANCH   2  20
HETATM   20  C   UNL     1     -10.135  16.882  67.578  1.00  0.00    -0.282 A  
HETATM   21  C   UNL     1      -7.996  18.023  67.406  1.00  0.00    -0.227 A  
HETATM   22  C   UNL     1      -7.849  20.539  67.314  1.00  0.00    -0.367 C  
HETATM   23  C   UNL     1      -8.737  16.841  67.504  1.00  0.00    -0.206 A  
HETATM   24  C   UNL     1     -10.038  19.305  67.436  1.00  0.00    -0.486 A  
HETATM   25  C   UNL     1      -8.639  19.264  67.379  1.00  0.00    -0.322 A  
HETATM   26  C   UNL     1     -10.781  18.122  67.532  1.00  0.00    -0.365 A  
ENDBRANCH   2  20
TORSDOF 5
ENDMDL
MODEL       13
REMARK 921   NORMALIZED FREE ENERGY PREDICTED BY IDOCK:   -6.89 KCAL/MOL
REMARK 922        TOTAL FREE ENERGY PREDICTED BY IDOCK:  -10.24 KCAL/MOL
REMARK 923 INTER-LIGAND FREE ENERGY PREDICTED BY IDOCK:   -9.07 KCAL/MOL
REMARK 924 INTRA-LIGAND FREE ENERGY PREDICTED BY IDOCK:   -1.17 KCAL/MOL
REMARK 927      BINDING AFFINITY PREDICTED BY RF-SCORE:    0.00 PKD
ROOT
HETATM    1  C   UNL     1     -10.350  14.797  67.443  1.00  0.00    -0.242 C  
HETATM    2  C   UNL     1     -10.747  13.502  67.436  1.00  0.00    -0.269 C  
ENDROOT
BRANCH   1   3
HETATM    3  C   UNL     1      -9.650  15.555  66.347  1.00  0.00    -0.291 C  
BRANCH   3   4
HETATM    4  N   UNL     1      -9.414  16.963  66.692  1.00  0.00    -0.253 NA 
HETATM    5  C   UNL     1     -10.016  18.583  68.352  1.00  0.00    -0.414 C  
HETATM    6  C   UNL     1     -10.199  19.135  66.951  1.00  0.00    -0.480 C  
HETATM    7  C   UNL     1      -9.467  17.174  68.148  1.00  0.00    -0.269 C  
HETATM    8  C   UNL     1     -10.390  17.887  66.109  1.00  0.00    -0.352 C  
ENDBRANCH   3   4
ENDBRANCH   1   3
BRANCH   2   9
HETATM    9  C   UNL     1     -11.389  12.998  68.672  1.00  0.00    -0.291 A  
HETATM   10  C   UNL     1     -11.957  11.196  70.140  1.00  0.00    -0.449 A  
HETATM   11  C   UNL     1     -12.486  13.473  70.658  1.00  0.00    -0.333 A  
HETATM   12  N   UNL     1     -11.927  13.921  69.505  1.00  0.00    -0.325 NA 
HETATM   13  C   UNL     1     -12.514  12.128  71.011  1.00  0.00    -0.369 A  
HETATM   14  C   UNL     1     -11.388  11.635  68.950  1.00  0.00    -0.328 A  
BRANCH  11  15
HETATM   15  C   UNL     1     -13.080  14.478  71.550  1.00  0.00    -0.413 C  
HETATM   16  C   UNL     1     -12.453  14.942  72.641  1.00  0.00    -0.436 C  
HETATM   17  C   UNL     1     -13.097  15.960  73.485  1.00  0.00    -0.565 C  
HETATM   18  O   UNL     1     -12.329  16.299  74.539  1.00  0.00    -0.674 OA 
HETATM   19  O   UNL     1     -14.193  16.451  73.267  1.00  0.00    -0.253 OA 
ENDBRANCH  11  15
ENDBRANCH   2   9
BRANCH   2  20
HETATM   20  C   UNL     1     -10.485  12.643  66.262  1.00  0.00    -0.270 A  
HETATM   21  C   UNL     1      -9.014  11.138  65.046  1.00  0.00    -0.081 A  
HETATM   22  C   UNL     1      -9.602  10.298  62.741  1.00  0.00    -0.277 C  
HETATM   23  C   UNL     1      -9.297  11.908  66.179  1.00  0.00    -0.228 A  
HETATM   24  C   UNL     1     -11.113  11.812  64.067  1.00  0.00    -0.461 A  
HETATM   25  C   UNL     1      -9.916  11.090  63.978  1.00  0.00    -0.390 A  
HETATM   26  C   UNL     1     -11.397  12.581  65.202  1.00  0.00    -0.352 A  
ENDBRANCH   2  20
TORSDOF 5
ENDMDL
MODEL       14
REMARK 921   NORMALIZED FREE ENERGY PREDICTED BY IDOCK:   -6.88 KCAL/MOL
REMARK 922        TOTAL FREE ENERGY PREDICTED BY IDOCK:  -10.23 KCAL/MOL
REMARK 923 INTER-LIGAND FREE ENERGY PREDICTED BY IDOCK:   -9.11 KCAL/MOL
REMARK 924 INTRA-LIGAND FREE ENERGY PREDICTED BY IDOCK:   -1.13 KCAL/MOL
REMARK 927      BINDING AFFINITY PREDICTED BY RF-SCORE:    0.00 PKD
ROOT
HETATM    1  C   UNL     1     -11.283  15.181  68.993  1.00  0.00    -0.282 C  
HETATM    2  C   UNL     1     -10.835  15.540  67.766  1.00  0.00    -0.309 C  
ENDROOT
BRANCH   1   3
HETATM    3  C   UNL     1     -11.103  15.917  70.294  1.00  0.00    -0.373 C  
BRANCH   3   4
HETATM    4  N   UNL     1     -11.906  15.346  71.384  1.00  0.00    -0.344 NA 
HETATM    5  C   UNL     1     -14.155  15.334  72.210  1.00  0.00    -0.651 C  
HETATM    6  C   UNL     1     -13.161  15.618  73.320  1.00  0.00    -0.666 C  
HETATM    7  C   UNL     1     -13.299  15.124  70.964  1.00  0.00    -0.443 C  
HETATM    8  C   UNL     1     -11.968  16.191  72.579  1.00  0.00    -0.561 C  
ENDBRANCH   3   4
ENDBRANCH   1   3
BRANCH   2   9
HETATM    9  C   UNL     1     -11.126  14.605  66.655  1.00  0.00    -0.334 A  
HETATM   10  C   UNL     1     -11.854  14.197  64.412  1.00  0.00    -0.447 A  
HETATM   11  C   UNL     1     -11.070  12.438  65.835  1.00  0.00    -0.313 A  
HETATM   12  N   UNL     1     -10.842  13.297  66.861  1.00  0.00    -0.275 NA 
HETATM   13  C   UNL     1     -11.567  12.849  64.602  1.00  0.00    -0.392 A  
HETATM   14  C   UNL     1     -11.634  15.091  65.454  1.00  0.00    -0.229 A  
BRANCH  11  15
HETATM   15  C   UNL     1     -10.773  11.018  66.070  1.00  0.00    -0.242 C  
HETATM   16  C   UNL     1     -10.765  10.472  67.295  1.00  0.00    -0.333 C  
HETATM   17  C   UNL     1     -10.475   9.039  67.461  1.00  0.00    -0.272 C  
HETATM   18  O   UNL     1     -10.499   8.668  68.756  1.00  0.00    -0.214 OA 
HETATM   19  O   UNL     1     -10.243   8.267  66.545  1.00  0.00    -0.288 OA 
ENDBRANCH  11  15
ENDBRANCH   2   9
BRANCH   2  20
HETATM   20  C   UNL     1     -10.047  16.778  67.587  1.00  0.00    -0.275 A  
HETATM   21  C   UNL     1      -9.963  19.185  67.266  1.00  0.00    -0.436 A  
HETATM   22  C   UNL     1      -7.782  20.382  66.846  1.00  0.00    -0.346 C  
HETATM   23  C   UNL     1     -10.694  18.016  67.494  1.00  0.00    -0.352 A  
HETATM   24  C   UNL     1      -7.922  17.901  67.240  1.00  0.00    -0.222 A  
HETATM   25  C   UNL     1      -8.571  19.137  67.130  1.00  0.00    -0.306 A  
HETATM   26  C   UNL     1      -8.654  16.730  67.470  1.00  0.00    -0.203 A  
ENDBRANCH   2  20
TORSDOF 5
ENDMDL
MODEL       15
REMARK 921   NORMALIZED FREE ENERGY PREDICTED BY IDOCK:   -6.87 KCAL/MOL
REMARK 922        TOTAL FREE ENERGY PREDICTED BY IDOCK:  -10.22 KCAL/MOL
REMARK 923 INTER-LIGAND FREE ENERGY PREDICTED BY IDOCK:   -9.39 KCAL/MOL
REMARK 924 INTRA-LIGAND FREE ENERGY PREDICTED BY IDOCK:   -0.83 KCAL/MOL
REMARK 927      BINDING AFFINITY PREDICTED BY RF-SCORE:    0.00 PKD
ROOT
HETATM    1  C   UNL     1     -11.459  12.271  67.883  1.00  0.00    -0.390 C  
HETATM    2  C   UNL     1     -11.634  12.251  69.226  1.00  0.00    -0.383 C  
ENDROOT
BRANCH   1   3
HETATM    3  C   UNL     1     -11.251  11.099  66.960  1.00  0.00    -0.219 C  
BRANCH   3   4
HETATM    4  N   UNL     1     -11.605  11.404  65.568  1.00  0.00    -0.047 NA 
HETATM    5  C   UNL     1     -10.651  12.353  63.586  1.00  0.00    -0.481 C  
HETATM    6  C   UNL     1     -12.013  12.951  63.883  1.00  0.00    -0.550 C  
HETATM    7  C   UNL     1     -10.431  11.318  64.686  1.00  0.00    -0.325 C  
HETATM    8  C   UNL     1     -12.163  12.745  65.379  1.00  0.00    -0.478 C  
ENDBRANCH   3   4
ENDBRANCH   1   3
BRANCH   2   9
HETATM    9  C   UNL     1     -11.783  13.564  69.895  1.00  0.00    -0.271 A  
HETATM   10  C   UNL     1     -12.533  14.889  71.740  1.00  0.00    -0.405 A  
HETATM   11  C   UNL     1     -11.316  15.834  69.908  1.00  0.00    -0.349 A  
HETATM   12  N   UNL     1     -11.217  14.632  69.284  1.00  0.00    -0.269 NA 
HETATM   13  C   UNL     1     -11.957  16.000  71.131  1.00  0.00    -0.443 A  
HETATM   14  C   UNL     1     -12.448  13.651  71.113  1.00  0.00    -0.442 A  
BRANCH  11  15
HETATM   15  C   UNL     1     -10.713  16.992  69.233  1.00  0.00    -0.226 C  
HETATM   16  C   UNL     1     -10.676  17.115  67.898  1.00  0.00    -0.355 C  
HETATM   17  C   UNL     1     -10.071  18.308  67.285  1.00  0.00    -0.355 C  
HETATM   18  O   UNL     1     -10.112  18.257  65.939  1.00  0.00    -0.542 OA 
HETATM   19  O   UNL     1      -9.590  19.240  67.907  1.00  0.00    -0.309 OA 
ENDBRANCH  11  15
ENDBRANCH   2   9
BRANCH   2  20
HETATM   20  C   UNL     1     -11.613  10.972  69.966  1.00  0.00    -0.427 A  
HETATM   21  C   UNL     1     -12.750   9.323  71.343  1.00  0.00    -0.402 A  
HETATM   22  C   UNL     1     -11.521   7.348  72.319  1.00  0.00    -0.329 C  
HETATM   23  C   UNL     1     -12.774  10.502  70.592  1.00  0.00    -0.441 A  
HETATM   24  C   UNL     1     -10.407   9.053  70.842  1.00  0.00    -0.323 A  
HETATM   25  C   UNL     1     -11.565   8.593  71.481  1.00  0.00    -0.368 A  
HETATM   26  C   UNL     1     -10.431  10.233  70.088  1.00  0.00    -0.259 A  
ENDBRANCH   2  20
TORSDOF 5
ENDMDL
MODEL       16
REMARK 921   NORMALIZED FREE ENERGY PREDICTED BY IDOCK:   -6.78 KCAL/MOL
REMARK 922        TOTAL FREE ENERGY PREDICTED BY IDOCK:  -10.10 KCAL/MOL
REMARK 923 INTER-LIGAND FREE ENERGY PREDICTED BY IDOCK:   -8.75 KCAL/MOL
REMARK 924 INTRA-LIGAND FREE ENERGY PREDICTED BY IDOCK:   -1.35 KCAL/MOL
REMARK 927      BINDING AFFINITY PREDICTED BY RF-SCORE:    0.00 PKD
ROOT
HETATM    1  C   UNL     1     -11.617  15.145  67.488  1.00  0.00    -0.268 C  
HETATM    2  C   UNL     1     -11.064  14.544  68.568  1.00  0.00    -0.271 C  
ENDROOT
BRANCH   1   3
HETATM    3  C   UNL     1     -10.967  15.447  66.165  1.00  0.00    -0.279 C  
BRANCH   3   4
HETATM    4  N   UNL     1     -11.506  14.632  65.068  1.00  0.00    -0.371 NA 
HETATM    5  C   UNL     1     -12.595  12.532  64.692  1.00  0.00    -0.507 C  
HETATM    6  C   UNL     1     -11.425  12.724  63.745  1.00  0.00    -0.533 C  
HETATM    7  C   UNL     1     -12.643  13.814  65.518  1.00  0.00    -0.512 C  
HETATM    8  C   UNL     1     -10.535  13.701  64.489  1.00  0.00    -0.390 C  
ENDBRANCH   3   4
ENDBRANCH   1   3
BRANCH   2   9
HETATM    9  C   UNL     1     -11.928  14.401  69.763  1.00  0.00    -0.332 A  
HETATM   10  C   UNL     1     -13.350  15.357  71.432  1.00  0.00    -0.601 A  
HETATM   11  C   UNL     1     -12.963  12.999  71.291  1.00  0.00    -0.243 A  
HETATM   12  N   UNL     1     -12.143  13.144  70.219  1.00  0.00    -0.356 NA 
HETATM   13  C   UNL     1     -13.586  14.074  71.916  1.00  0.00    -0.520 A  
HETATM   14  C   UNL     1     -12.507  15.526  70.340  1.00  0.00    -0.443 A  
BRANCH  11  15
HETATM   15  C   UNL     1     -13.180  11.634  71.789  1.00  0.00    -0.438 C  
HETATM   16  C   UNL     1     -12.541  10.567  71.286  1.00  0.00    -0.531 C  
HETATM   17  C   UNL     1     -12.792   9.228  71.841  1.00  0.00    -0.404 C  
HETATM   18  O   UNL     1     -12.074   8.279  71.209  1.00  0.00    -0.288 OA 
HETATM   19  O   UNL     1     -13.552   8.991  72.766  1.00  0.00    -0.433 OA 
ENDBRANCH  11  15
ENDBRANCH   2   9
BRANCH   2  20
HETATM   20  C   UNL     1      -9.649  14.117  68.547  1.00  0.00    -0.214 A  
HETATM   21  C   UNL     1      -7.968  12.444  68.017  1.00  0.00    -0.155 A  
HETATM   22  C   UNL     1      -5.551  12.752  68.670  1.00  0.00    -0.063 C  
HETATM   23  C   UNL     1      -9.295  12.882  67.990  1.00  0.00    -0.213 A  
HETATM   24  C   UNL     1      -7.322  14.476  69.143  1.00  0.00    -0.133 A  
HETATM   25  C   UNL     1      -6.971  13.233  68.601  1.00  0.00    -0.101 A  
HETATM   26  C   UNL     1      -8.650  14.916  69.115  1.00  0.00    -0.148 A  
ENDBRANCH   2  20
TORSDOF 5
ENDMDL
MODEL       17
REMARK 921   NORMALIZED FREE ENERGY PREDICTED BY IDOCK:   -6.70 KCAL/MOL
REMARK 922        TOTAL FREE ENERGY PREDICTED BY IDOCK:  -10.00 KCAL/MOL
REMARK 923 INTER-LIGAND FREE ENERGY PREDICTED BY IDOCK:   -9.23 KCAL/MOL
REMARK 924 INTRA-LIGAND FREE ENERGY PREDICTED BY IDOCK:   -0.77 KCAL/MOL
REMARK 927      BINDING AFFINITY PREDICTED BY RF-SCORE:    0.00 PKD
ROOT
HETATM    1  C   UNL     1     -11.425  11.973  68.063  1.00  0.00    -0.392 C  
HETATM    2  C   UNL     1     -11.621  12.018  69.402  1.00  0.00    -0.393 C  
ENDROOT
BRANCH   1   3
HETATM    3  C   UNL     1     -11.160  10.763  67.208  1.00  0.00    -0.270 C  
BRANCH   3   4
HETATM    4  N   UNL     1     -10.456  11.092  65.961  1.00  0.00    -0.257 NA 
HETATM    5  C   UNL     1     -10.898  11.473  63.637  1.00  0.00    -0.488 C  
HETATM    6  C   UNL     1      -9.749  10.502  63.828  1.00  0.00    -0.385 C  
HETATM    7  C   UNL     1     -11.314  11.869  65.052  1.00  0.00    -0.273 C  
HETATM    8  C   UNL     1     -10.012   9.920  65.204  1.00  0.00    -0.208 C  
ENDBRANCH   3   4
ENDBRANCH   1   3
BRANCH   2   9
HETATM    9  C   UNL     1     -11.829  13.358  69.998  1.00  0.00    -0.294 A  
HETATM   10  C   UNL     1     -12.672  14.752  71.750  1.00  0.00    -0.396 A  
HETATM   11  C   UNL     1     -11.432  15.640  69.905  1.00  0.00    -0.338 A  
HETATM   12  N   UNL     1     -11.279  14.411  69.348  1.00  0.00    -0.273 NA 
HETATM   13  C   UNL     1     -12.113  15.848  71.100  1.00  0.00    -0.464 A  
HETATM   14  C   UNL     1     -12.532  13.486  71.191  1.00  0.00    -0.424 A  
BRANCH  11  15
HETATM   15  C   UNL     1     -10.845  16.780  69.188  1.00  0.00    -0.287 C  
HETATM   16  C   UNL     1     -10.861  16.881  67.850  1.00  0.00    -0.310 C  
HETATM   17  C   UNL     1     -10.269  18.057  67.193  1.00  0.00    -0.360 C  
HETATM   18  O   UNL     1     -10.364  17.985  65.851  1.00  0.00    -0.537 OA 
HETATM   19  O   UNL     1      -9.754  18.995  67.781  1.00  0.00    -0.306 OA 
ENDBRANCH  11  15
ENDBRANCH   2   9
BRANCH   2  20
HETATM   20  C   UNL     1     -11.565  10.782  70.211  1.00  0.00    -0.427 A  
HETATM   21  C   UNL     1     -12.675   9.143  71.622  1.00  0.00    -0.429 A  
HETATM   22  C   UNL     1     -11.387   7.294  72.756  1.00  0.00    -0.318 C  
HETATM   23  C   UNL     1     -12.728  10.279  70.808  1.00  0.00    -0.434 A  
HETATM   24  C   UNL     1     -10.299   8.983  71.241  1.00  0.00    -0.383 A  
HETATM   25  C   UNL     1     -11.459   8.490  71.851  1.00  0.00    -0.405 A  
HETATM   26  C   UNL     1     -10.351  10.119  70.424  1.00  0.00    -0.178 A  
ENDBRANCH   2  20
TORSDOF 5
ENDMDL
MODEL       18
REMARK 921   NORMALIZED FREE ENERGY PREDICTED BY IDOCK:   -6.69 KCAL/MOL
REMARK 922        TOTAL FREE ENERGY PREDICTED BY IDOCK:   -9.99 KCAL/MOL
REMARK 923 INTER-LIGAND FREE ENERGY PREDICTED BY IDOCK:   -8.62 KCAL/MOL
REMARK 924 INTRA-LIGAND FREE ENERGY PREDICTED BY IDOCK:   -1.37 KCAL/MOL
REMARK 927      BINDING AFFINITY PREDICTED BY RF-SCORE:    0.00 PKD
ROOT
HETATM    1  C   UNL     1     -10.593  12.400  68.032  1.00  0.00    -0.238 C  
HETATM    2  C   UNL     1     -10.764  11.187  68.609  1.00  0.00    -0.234 C  
ENDROOT
BRANCH   1   3
HETATM    3  C   UNL     1      -9.713  12.751  66.862  1.00  0.00    -0.234 C  
BRANCH   3   4
HETATM    4  N   UNL     1     -10.475  12.975  65.626  1.00  0.00    -0.275 NA 
HETATM    5  C   UNL     1     -12.624  12.516  64.674  1.00  0.00    -0.507 C  
HETATM    6  C   UNL     1     -11.507  12.148  63.716  1.00  0.00    -0.548 C  
HETATM    7  C   UNL     1     -11.916  13.089  65.898  1.00  0.00    -0.435 C  
HETATM    8  C   UNL     1     -10.327  11.904  64.638  1.00  0.00    -0.284 C  
ENDBRANCH   3   4
ENDBRANCH   1   3
BRANCH   2   9
HETATM    9  C   UNL     1     -11.672  11.131  69.778  1.00  0.00    -0.345 A  
HETATM   10  C   UNL     1     -12.810   9.885  71.474  1.00  0.00    -0.522 A  
HETATM   11  C   UNL     1     -12.928  12.274  71.356  1.00  0.00    -0.256 A  
HETATM   12  N   UNL     1     -12.125  12.312  70.262  1.00  0.00    -0.336 NA 
HETATM   13  C   UNL     1     -13.285  11.088  71.989  1.00  0.00    -0.447 A  
HETATM   14  C   UNL     1     -11.993   9.904  70.349  1.00  0.00    -0.271 A  
BRANCH  11  15
HETATM   15  C   UNL     1     -13.427  13.557  71.867  1.00  0.00    -0.528 C  
HETATM   16  C   UNL     1     -12.708  14.343  72.683  1.00  0.00    -0.421 C  
HETATM   17  C   UNL     1     -13.260  15.625  73.147  1.00  0.00    -0.569 C  
HETATM   18  O   UNL     1     -12.407  16.273  73.964  1.00  0.00    -0.528 OA 
HETATM   19  O   UNL     1     -14.355  16.063  72.834  1.00  0.00    -0.362 OA 
ENDBRANCH  11  15
ENDBRANCH   2   9
BRANCH   2  20
HETATM   20  C   UNL     1     -10.024  10.008  68.111  1.00  0.00    -0.176 A  
HETATM   21  C   UNL     1      -9.932   8.020  66.717  1.00  0.00    -0.344 A  
HETATM   22  C   UNL     1      -7.969   6.438  66.805  1.00  0.00    -0.109 C  
HETATM   23  C   UNL     1     -10.600   9.169  67.150  1.00  0.00    -0.286 A  
HETATM   24  C   UNL     1      -8.091   8.539  68.185  1.00  0.00    -0.119 A  
HETATM   25  C   UNL     1      -8.676   7.691  67.236  1.00  0.00    -0.124 A  
HETATM   26  C   UNL     1      -8.759   9.691  68.618  1.00  0.00    -0.124 A  
ENDBRANCH   2  20
TORSDOF 5
ENDMDL
MODEL       19
REMARK 921   NORMALIZED FREE ENERGY PREDICTED BY IDOCK:   -6.68 KCAL/MOL
REMARK 922        TOTAL FREE ENERGY PREDICTED BY IDOCK:   -9.97 KCAL/MOL
REMARK 923 INTER-LIGAND FREE ENERGY PREDICTED BY IDOCK:   -9.15 KCAL/MOL
REMARK 924 INTRA-LIGAND FREE ENERGY PREDICTED BY IDOCK:   -0.82 KCAL/MOL
REMARK 927      BINDING AFFINITY PREDICTED BY RF-SCORE:    0.00 PKD
ROOT
HETATM    1  C   UNL     1      -9.959  15.400  67.192  1.00  0.00    -0.234 C  
HETATM    2  C   UNL     1     -10.905  14.453  67.399  1.00  0.00    -0.293 C  
ENDROOT
BRANCH   1   3
HETATM    3  C   UNL     1      -9.412  16.392  68.185  1.00  0.00    -0.213 C  
BRANCH   3   4
HETATM    4  N   UNL     1      -9.369  17.761  67.653  1.00  0.00    -0.249 NA 
HETATM    5  C   UNL     1     -10.462  19.877  67.911  1.00  0.00    -0.505 C  
HETATM    6  C   UNL     1     -10.349  19.489  66.449  1.00  0.00    -0.594 C  
HETATM    7  C   UNL     1      -9.778  18.743  68.670  1.00  0.00    -0.390 C  
HETATM    8  C   UNL     1     -10.244  17.976  66.499  1.00  0.00    -0.382 C  
ENDBRANCH   3   4
ENDBRANCH   1   3
BRANCH   2   9
HETATM    9  C   UNL     1     -11.283  13.627  66.229  1.00  0.00    -0.305 A  
HETATM   10  C   UNL     1     -12.765  13.138  64.415  1.00  0.00    -0.235 A  
HETATM   11  C   UNL     1     -10.741  11.909  64.770  1.00  0.00    -0.307 A  
HETATM   12  N   UNL     1     -10.422  12.647  65.864  1.00  0.00    -0.269 NA 
HETATM   13  C   UNL     1     -11.893  12.127  64.022  1.00  0.00    -0.523 A  
HETATM   14  C   UNL     1     -12.459  13.900  65.537  1.00  0.00    -0.541 A  
BRANCH  11  15
HETATM   15  C   UNL     1      -9.810  10.838  64.389  1.00  0.00    -0.374 C  
HETATM   16  C   UNL     1      -9.575   9.770  65.166  1.00  0.00    -0.356 C  
HETATM   17  C   UNL     1      -8.642   8.724  64.718  1.00  0.00    -0.134 C  
HETATM   18  O   UNL     1      -8.521   7.737  65.626  1.00  0.00    -0.137 OA 
HETATM   19  O   UNL     1      -8.047   8.735  63.653  1.00  0.00    -0.155 OA 
ENDBRANCH  11  15
ENDBRANCH   2   9
BRANCH   2  20
HETATM   20  C   UNL     1     -11.551  14.313  68.721  1.00  0.00    -0.357 A  
HETATM   21  C   UNL     1     -12.287  12.906  70.561  1.00  0.00    -0.362 A  
HETATM   22  C   UNL     1     -13.626  13.843  72.482  1.00  0.00    -0.680 C  
HETATM   23  C   UNL     1     -11.626  13.058  69.338  1.00  0.00    -0.360 A  
HETATM   24  C   UNL     1     -12.792  15.264  70.580  1.00  0.00    -0.462 A  
HETATM   25  C   UNL     1     -12.881  14.005  71.189  1.00  0.00    -0.427 A  
HETATM   26  C   UNL     1     -12.129  15.418  69.356  1.00  0.00    -0.308 A  
ENDBRANCH   2  20
TORSDOF 5
ENDMDL
MODEL       20
REMARK 921   NORMALIZED FREE ENERGY PREDICTED BY IDOCK:   -6.64 KCAL/MOL
REMARK 922        TOTAL FREE ENERGY PREDICTED BY IDOCK:   -9.92 KCAL/MOL
REMARK 923 INTER-LIGAND FREE ENERGY PREDICTED BY IDOCK:   -9.84 KCAL/MOL
REMARK 924 INTRA-LIGAND FREE ENERGY PREDICTED BY IDOCK:   -0.08 KCAL/MOL
REMARK 927      BINDING AFFINITY PREDICTED BY RF-SCORE:    0.00 PKD
ROOT
HETATM    1  C   UNL     1     -12.198  11.370  69.857  1.00  0.00    -0.346 C  
HETATM    2  C   UNL     1     -12.120  12.707  69.654  1.00  0.00    -0.277 C  
ENDROOT
BRANCH   1   3
HETATM    3  C   UNL     1     -12.471  10.646  71.149  1.00  0.00    -0.418 C  
BRANCH   3   4
HETATM    4  N   UNL     1     -11.821   9.330  71.210  1.00  0.00    -0.319 NA 
HETATM    5  C   UNL     1     -10.983   7.758  72.811  1.00  0.00    -0.447 C  
HETATM    6  C   UNL     1      -9.972   8.016  71.709  1.00  0.00    -0.245 C  
HETATM    7  C   UNL     1     -12.195   8.605  72.433  1.00  0.00    -0.349 C  
HETATM    8  C   UNL     1     -10.358   9.392  71.201  1.00  0.00    -0.307 C  
ENDBRANCH   3   4
ENDBRANCH   1   3
BRANCH   2   9
HETATM    9  C   UNL     1     -11.803  13.151  68.276  1.00  0.00    -0.349 A  
HETATM   10  C   UNL     1     -11.625  12.705  65.933  1.00  0.00    -0.443 A  
HETATM   11  C   UNL     1     -11.220  14.880  66.847  1.00  0.00    -0.343 A  
HETATM   12  N   UNL     1     -11.476  14.455  68.110  1.00  0.00    -0.293 NA 
HETATM   13  C   UNL     1     -11.290  14.041  65.739  1.00  0.00    -0.312 A  
HETATM   14  C   UNL     1     -11.883  12.249  67.220  1.00  0.00    -0.330 A  
BRANCH  11  15
HETATM   15  C   UNL     1     -10.853  16.292  66.676  1.00  0.00    -0.115 C  
HETATM   16  C   UNL     1     -10.620  17.112  67.712  1.00  0.00    -0.360 C  
HETATM   17  C   UNL     1     -10.240  18.513  67.472  1.00  0.00    -0.385 C  
HETATM   18  O   UNL     1     -10.057  19.188  68.624  1.00  0.00    -0.391 OA 
HETATM   19  O   UNL     1     -10.100  19.015  66.369  1.00  0.00    -0.362 OA 
ENDBRANCH  11  15
ENDBRANCH   2   9
BRANCH   2  20
HETATM   20  C   UNL     1     -12.289  13.649  70.780  1.00  0.00    -0.446 A  
HETATM   21  C   UNL     1     -11.531  15.594  72.023  1.00  0.00    -0.495 A  
HETATM   22  C   UNL     1     -12.631  16.287  74.185  1.00  0.00    -0.602 C  
HETATM   23  C   UNL     1     -11.414  14.732  70.929  1.00  0.00    -0.265 A  
HETATM   24  C   UNL     1     -13.411  14.316  72.829  1.00  0.00    -0.621 A  
HETATM   25  C   UNL     1     -12.525  15.390  72.986  1.00  0.00    -0.542 A  
HETATM   26  C   UNL     1     -13.296  13.453  71.732  1.00  0.00    -0.479 A  
ENDBRANCH   2  20
TORSDOF 5
ENDMDL
MODEL       21
REMARK 921   NORMALIZED FREE ENERGY PREDICTED BY IDOCK:   -6.64 KCAL/MOL
REMARK 922        TOTAL FREE ENERGY PREDICTED BY IDOCK:   -9.92 KCAL/MOL
REMARK 923 INTER-LIGAND FREE ENERGY PREDICTED BY IDOCK:   -9.03 KCAL/MOL
REMARK 924 INTRA-LIGAND FREE ENERGY PREDICTED BY IDOCK:   -0.88 KCAL/MOL
REMARK 927      BINDING AFFINITY PREDICTED BY RF-SCORE:    0.00 PKD
ROOT
HETATM    1  C   UNL     1     -11.256  14.590  69.010  1.00  0.00    -0.289 C  
HETATM    2  C   UNL     1     -10.941  14.933  67.738  1.00  0.00    -0.294 C  
ENDROOT
BRANCH   1   3
HETATM    3  C   UNL     1     -10.967  15.358  70.272  1.00  0.00    -0.315 C  
BRANCH   3   4
HETATM    4  N   UNL     1     -12.189  15.776  70.974  1.00  0.00    -0.407 NA 
HETATM    5  C   UNL     1     -13.177  15.715  73.155  1.00  0.00    -0.674 C  
HETATM    6  C   UNL     1     -14.154  15.244  72.094  1.00  0.00    -0.658 C  
HETATM    7  C   UNL     1     -11.915  16.091  72.385  1.00  0.00    -0.544 C  
HETATM    8  C   UNL     1     -13.246  14.762  70.978  1.00  0.00    -0.380 C  
ENDBRANCH   3   4
ENDBRANCH   1   3
BRANCH   2   9
HETATM    9  C   UNL     1     -11.317  13.969  66.679  1.00  0.00    -0.335 A  
HETATM   10  C   UNL     1     -12.731  13.315  64.863  1.00  0.00    -0.391 A  
HETATM   11  C   UNL     1     -10.832  12.017  65.526  1.00  0.00    -0.292 A  
HETATM   12  N   UNL     1     -10.517  12.888  66.519  1.00  0.00    -0.262 NA 
HETATM   13  C   UNL     1     -11.921  12.199  64.679  1.00  0.00    -0.398 A  
HETATM   14  C   UNL     1     -12.429  14.214  65.880  1.00  0.00    -0.479 A  
BRANCH  11  15
HETATM   15  C   UNL     1      -9.968  10.840  65.367  1.00  0.00    -0.330 C  
HETATM   16  C   UNL     1      -9.588  10.375  64.167  1.00  0.00    -0.381 C  
HETATM   17  C   UNL     1      -8.708   9.199  64.077  1.00  0.00    -0.137 C  
HETATM   18  O   UNL     1      -8.441   8.869  62.798  1.00  0.00    -0.198 OA 
HETATM   19  O   UNL     1      -8.263   8.590  65.036  1.00  0.00    -0.142 OA 
ENDBRANCH  11  15
ENDBRANCH   2   9
BRANCH   2  20
HETATM   20  C   UNL     1     -10.206  16.184  67.458  1.00  0.00    -0.267 A  
HETATM   21  C   UNL     1     -10.125  18.613  67.437  1.00  0.00    -0.397 A  
HETATM   22  C   UNL     1      -8.166  19.857  66.448  1.00  0.00    -0.365 C  
HETATM   23  C   UNL     1     -10.789  17.423  67.752  1.00  0.00    -0.257 A  
HETATM   24  C   UNL     1      -8.276  17.346  66.547  1.00  0.00    -0.311 A  
HETATM   25  C   UNL     1      -8.867  18.585  66.825  1.00  0.00    -0.285 A  
HETATM   26  C   UNL     1      -8.939  16.154  66.864  1.00  0.00    -0.248 A  
ENDBRANCH   2  20
TORSDOF 5
ENDMDL
MODEL       22
REMARK 921   NORMALIZED FREE ENERGY PREDICTED BY IDOCK:   -6.57 KCAL/MOL
REMARK 922        TOTAL FREE ENERGY PREDICTED BY IDOCK:   -9.83 KCAL/MOL
REMARK 923 INTER-LIGAND FREE ENERGY PREDICTED BY IDOCK:   -9.16 KCAL/MOL
REMARK 924 INTRA-LIGAND FREE ENERGY PREDICTED BY IDOCK:   -0.67 KCAL/MOL
REMARK 927      BINDING AFFINITY PREDICTED BY RF-SCORE:    0.00 PKD
ROOT
HETATM    1  C   UNL     1     -11.491  11.847  68.316  1.00  0.00    -0.372 C  
HETATM    2  C   UNL     1     -11.757  11.922  69.641  1.00  0.00    -0.413 C  
ENDROOT
BRANCH   1   3
HETATM    3  C   UNL     1     -11.127  10.626  67.514  1.00  0.00    -0.300 C  
BRANCH   3   4
HETATM    4  N   UNL     1     -10.387  10.952  66.288  1.00  0.00    -0.246 NA 
HETATM    5  C   UNL     1     -10.771  11.448  63.976  1.00  0.00    -0.450 C  
HETATM    6  C   UNL     1      -9.693  10.393  64.142  1.00  0.00    -0.387 C  
HETATM    7  C   UNL     1     -11.177  11.819  65.399  1.00  0.00    -0.251 C  
HETATM    8  C   UNL     1     -10.014   9.780  65.492  1.00  0.00    -0.259 C  
ENDBRANCH   3   4
ENDBRANCH   1   3
BRANCH   2   9
HETATM    9  C   UNL     1     -12.056  13.268  70.182  1.00  0.00    -0.333 A  
HETATM   10  C   UNL     1     -13.081  14.673  71.826  1.00  0.00    -0.420 A  
HETATM   11  C   UNL     1     -11.728  15.560  70.061  1.00  0.00    -0.346 A  
HETATM   12  N   UNL     1     -11.491  14.324  69.550  1.00  0.00    -0.274 NA 
HETATM   13  C   UNL     1     -12.508  15.772  71.193  1.00  0.00    -0.490 A  
HETATM   14  C   UNL     1     -12.855  13.401  71.313  1.00  0.00    -0.407 A  
BRANCH  11  15
HETATM   15  C   UNL     1     -11.124  16.702  69.362  1.00  0.00    -0.176 C  
HETATM   16  C   UNL     1     -10.744  16.647  68.076  1.00  0.00    -0.350 C  
HETATM   17  C   UNL     1     -10.158  17.833  67.430  1.00  0.00    -0.338 C  
HETATM   18  O   UNL     1      -9.827  17.593  66.146  1.00  0.00    -0.414 OA 
HETATM   19  O   UNL     1      -9.991  18.910  67.977  1.00  0.00    -0.323 OA 
ENDBRANCH  11  15
ENDBRANCH   2   9
BRANCH   2  20
HETATM   20  C   UNL     1     -11.688  10.714  70.490  1.00  0.00    -0.451 A  
HETATM   21  C   UNL     1     -10.407   8.868  71.416  1.00  0.00    -0.377 A  
HETATM   22  C   UNL     1     -11.507   7.060  72.789  1.00  0.00    -0.207 C  
HETATM   23  C   UNL     1     -10.471  10.044  70.663  1.00  0.00    -0.211 A  
HETATM   24  C   UNL     1     -12.774   9.022  71.854  1.00  0.00    -0.450 A  
HETATM   25  C   UNL     1     -11.559   8.343  72.012  1.00  0.00    -0.418 A  
HETATM   26  C   UNL     1     -12.838  10.201  71.101  1.00  0.00    -0.494 A  
ENDBRANCH   2  20
TORSDOF 5
ENDMDL
MODEL       23
REMARK 921   NORMALIZED FREE ENERGY PREDICTED BY IDOCK:   -6.55 KCAL/MOL
REMARK 922        TOTAL FREE ENERGY PREDICTED BY IDOCK:   -9.80 KCAL/MOL
REMARK 923 INTER-LIGAND FREE ENERGY PREDICTED BY IDOCK:   -8.47 KCAL/MOL
REMARK 924 INTRA-LIGAND FREE ENERGY PREDICTED BY IDOCK:   -1.33 KCAL/MOL
REMARK 927      BINDING AFFINITY PREDICTED BY RF-SCORE:    0.00 PKD
ROOT
HETATM    1  C   UNL     1     -10.931   9.701  67.702  1.00  0.00    -0.190 C  
HETATM    2  C   UNL     1     -11.124  10.219  68.938  1.00  0.00    -0.278 C  
ENDROOT
BRANCH   1   3
HETATM    3  C   UNL     1     -10.466   8.315  67.342  1.00  0.00    -0.283 C  
BRANCH   3   4
HETATM    4  N   UNL     1      -9.446   8.316  66.285  1.00  0.00    -0.213 NA 
HETATM    5  C   UNL     1      -7.222   9.102  65.866  1.00  0.00    -0.093 C  
HETATM    6  C   UNL     1      -8.157   9.460  64.727  1.00  0.00    -0.131 C  
HETATM    7  C   UNL     1      -8.088   8.322  66.852  1.00  0.00    -0.103 C  
HETATM    8  C   UNL     1      -9.522   9.472  65.390  1.00  0.00    -0.269 C  
ENDBRANCH   3   4
ENDBRANCH   1   3
BRANCH   2   9
HETATM    9  C   UNL     1     -11.558  11.633  69.005  1.00  0.00    -0.316 A  
HETATM   10  C   UNL     1     -12.237  13.547  70.269  1.00  0.00    -0.417 A  
HETATM   11  C   UNL     1     -11.946  13.631  67.894  1.00  0.00    -0.347 A  
HETATM   12  N   UNL     1     -11.586  12.323  67.839  1.00  0.00    -0.335 NA 
HETATM   13  C   UNL     1     -12.271  14.275  69.084  1.00  0.00    -0.272 A  
HETATM   14  C   UNL     1     -11.878  12.205  70.232  1.00  0.00    -0.339 A  
BRANCH  11  15
HETATM   15  C   UNL     1     -11.988  14.369  66.625  1.00  0.00    -0.414 C  
HETATM   16  C   UNL     1     -12.286  13.784  65.455  1.00  0.00    -0.504 C  
HETATM   17  C   UNL     1     -12.327  14.584  64.221  1.00  0.00    -0.369 C  
HETATM   18  O   UNL     1     -12.631  13.832  63.144  1.00  0.00    -0.793 OA 
HETATM   19  O   UNL     1     -12.118  15.784  64.164  1.00  0.00    -0.547 OA 
ENDBRANCH  11  15
ENDBRANCH   2   9
BRANCH   2  20
HETATM   20  C   UNL     1     -10.851   9.407  70.143  1.00  0.00    -0.287 A  
HETATM   21  C   UNL     1     -11.653   7.982  71.941  1.00  0.00    -0.348 A  
HETATM   22  C   UNL     1     -10.120   7.205  73.788  1.00  0.00    -0.391 C  
HETATM   23  C   UNL     1     -11.889   8.705  70.769  1.00  0.00    -0.197 A  
HETATM   24  C   UNL     1      -9.332   8.634  71.873  1.00  0.00    -0.357 A  
HETATM   25  C   UNL     1     -10.374   7.946  72.508  1.00  0.00    -0.349 A  
HETATM   26  C   UNL     1      -9.568   9.357  70.698  1.00  0.00    -0.331 A  
ENDBRANCH   2  20
TORSDOF 5
ENDMDL
MODEL       24
REMARK 921   NORMALIZED FREE ENERGY PREDICTED BY IDOCK:   -6.52 KCAL/MOL
REMARK 922        TOTAL FREE ENERGY PREDICTED BY IDOCK:   -9.76 KCAL/MOL
REMARK 923 INTER-LIGAND FREE ENERGY PREDICTED BY IDOCK:   -8.50 KCAL/MOL
REMARK 924 INTRA-LIGAND FREE ENERGY PREDICTED BY IDOCK:   -1.26 KCAL/MOL
REMARK 927      BINDING AFFINITY PREDICTED BY RF-SCORE:    0.00 PKD
ROOT
HETATM    1  C   UNL     1     -11.514  14.380  69.466  1.00  0.00    -0.333 C  
HETATM    2  C   UNL     1     -10.689  13.890  68.510  1.00  0.00    -0.268 C  
ENDROOT
BRANCH   1   3
HETATM    3  C   UNL     1     -11.651  15.807  69.926  1.00  0.00    -0.351 C  
BRANCH   3   4
HETATM    4  N   UNL     1     -12.625  15.961  71.015  1.00  0.00    -0.399 NA 
HETATM    5  C   UNL     1     -12.905  15.420  73.332  1.00  0.00    -0.662 C  
HETATM    6  C   UNL     1     -14.128  15.031  72.523  1.00  0.00    -0.503 C  
HETATM    7  C   UNL     1     -11.957  16.060  72.321  1.00  0.00    -0.538 C  
HETATM    8  C   UNL     1     -13.573  14.850  71.122  1.00  0.00    -0.403 C  
ENDBRANCH   3   4
ENDBRANCH   1   3
BRANCH   2   9
HETATM    9  C   UNL     1     -10.735  12.428  68.281  1.00  0.00    -0.230 A  
HETATM   10  C   UNL     1     -10.397  10.529  66.865  1.00  0.00    -0.293 A  
HETATM   11  C   UNL     1     -11.096  10.307  69.143  1.00  0.00    -0.235 A  
HETATM   12  N   UNL     1     -11.087  11.651  69.333  1.00  0.00    -0.233 NA 
HETATM   13  C   UNL     1     -10.754   9.712  67.933  1.00  0.00    -0.302 A  
HETATM   14  C   UNL     1     -10.389  11.909  67.037  1.00  0.00    -0.239 A  
BRANCH  11  15
HETATM   15  C   UNL     1     -11.493   9.471  70.284  1.00  0.00    -0.256 C  
HETATM   16  C   UNL     1     -12.581   9.725  71.027  1.00  0.00    -0.406 C  
HETATM   17  C   UNL     1     -12.932   8.839  72.147  1.00  0.00    -0.406 C  
HETATM   18  O   UNL     1     -14.045   9.253  72.785  1.00  0.00    -0.481 OA 
HETATM   19  O   UNL     1     -12.304   7.845  72.470  1.00  0.00    -0.253 OA 
ENDBRANCH  11  15
ENDBRANCH   2   9
BRANCH   2  20
HETATM   20  C   UNL     1      -9.759  14.786  67.790  1.00  0.00    -0.213 A  
HETATM   21  C   UNL     1      -7.567  15.815  67.591  1.00  0.00    -0.177 A  
HETATM   22  C   UNL     1      -7.087  17.561  65.835  1.00  0.00    -0.212 C  
HETATM   23  C   UNL     1      -8.437  14.927  68.230  1.00  0.00    -0.151 A  
HETATM   24  C   UNL     1      -9.320  16.423  66.051  1.00  0.00    -0.335 A  
HETATM   25  C   UNL     1      -8.003  16.576  66.501  1.00  0.00    -0.345 A  
HETATM   26  C   UNL     1     -10.192  15.533  66.689  1.00  0.00    -0.280 A  
ENDBRANCH   2  20
TORSDOF 5
ENDMDL
MODEL       25
REMARK 921   NORMALIZED FREE ENERGY PREDICTED BY IDOCK:   -6.47 KCAL/MOL
REMARK 922        TOTAL FREE ENERGY PREDICTED BY IDOCK:   -9.70 KCAL/MOL
REMARK 923 INTER-LIGAND FREE ENERGY PREDICTED BY IDOCK:   -8.53 KCAL/MOL
REMARK 924 INTRA-LIGAND FREE ENERGY PREDICTED BY IDOCK:   -1.17 KCAL/MOL
REMARK 927      BINDING AFFINITY PREDICTED BY RF-SCORE:    0.00 PKD
ROOT
HETATM    1  C   UNL     1     -10.167   9.902  68.835  1.00  0.00    -0.209 C  
HETATM    2  C   UNL     1      -9.975   9.373  67.603  1.00  0.00    -0.238 C  
ENDROOT
BRANCH   1   3
HETATM    3  C   UNL     1     -10.237   9.176  70.152  1.00  0.00    -0.205 C  
BRANCH   3   4
HETATM    4  N   UNL     1     -11.129   9.834  71.116  1.00  0.00    -0.360 NA 
HETATM    5  C   UNL     1     -13.354   9.662  71.987  1.00  0.00    -0.547 C  
HETATM    6  C   UNL     1     -13.032  11.086  71.574  1.00  0.00    -0.553 C  
HETATM    7  C   UNL     1     -12.075   8.876  71.710  1.00  0.00    -0.362 C  
HETATM    8  C   UNL     1     -11.940  10.906  70.535  1.00  0.00    -0.371 C  
ENDBRANCH   3   4
ENDBRANCH   1   3
BRANCH   2   9
HETATM    9  C   UNL     1      -9.984  10.321  66.465  1.00  0.00    -0.224 A  
HETATM   10  C   UNL     1      -9.973  10.753  64.112  1.00  0.00    -0.405 A  
HETATM   11  C   UNL     1     -10.143  12.513  65.726  1.00  0.00    -0.262 A  
HETATM   12  N   UNL     1     -10.097  11.638  66.763  1.00  0.00    -0.210 NA 
HETATM   13  C   UNL     1     -10.090  12.110  64.396  1.00  0.00    -0.300 A  
HETATM   14  C   UNL     1      -9.916   9.842  65.161  1.00  0.00    -0.278 A  
BRANCH  11  15
HETATM   15  C   UNL     1     -10.251  13.940  66.057  1.00  0.00    -0.317 C  
HETATM   16  C   UNL     1     -10.656  14.862  65.170  1.00  0.00    -0.450 C  
HETATM   17  C   UNL     1     -10.757  16.274  65.569  1.00  0.00    -0.313 C  
HETATM   18  O   UNL     1     -11.168  17.056  64.552  1.00  0.00    -1.091 OA 
HETATM   19  O   UNL     1     -10.507  16.700  66.685  1.00  0.00    -0.298 OA 
ENDBRANCH  11  15
ENDBRANCH   2   9
BRANCH   2  20
HETATM   20  C   UNL     1      -9.826   7.913  67.428  1.00  0.00    -0.237 A  
HETATM   21  C   UNL     1      -8.402   5.947  67.308  1.00  0.00    -0.105 A  
HETATM   22  C   UNL     1      -9.334   3.681  66.705  1.00  0.00    -0.210 C  
HETATM   23  C   UNL     1      -8.562   7.318  67.530  1.00  0.00    -0.122 A  
HETATM   24  C   UNL     1     -10.770   5.738  66.899  1.00  0.00    -0.381 A  
HETATM   25  C   UNL     1      -9.503   5.147  66.984  1.00  0.00    -0.143 A  
HETATM   26  C   UNL     1     -10.931   7.111  67.122  1.00  0.00    -0.342 A  
ENDBRANCH   2  20
TORSDOF 5
ENDMDL
MODEL       26
REMARK 921   NORMALIZED FREE ENERGY PREDICTED BY IDOCK:   -6.45 KCAL/MOL
REMARK 922        TOTAL FREE ENERGY PREDICTED BY IDOCK:   -9.68 KCAL/MOL
REMARK 923 INTER-LIGAND FREE ENERGY PREDICTED BY IDOCK:   -8.69 KCAL/MOL
REMARK 924 INTRA-LIGAND FREE ENERGY PREDICTED BY IDOCK:   -0.98 KCAL/MOL
REMARK 927      BINDING AFFINITY PREDICTED BY RF-SCORE:    0.00 PKD
ROOT
HETATM    1  C   UNL     1     -11.343  11.028  69.682  1.00  0.00    -0.363 C  
HETATM    2  C   UNL     1     -11.247  12.138  68.911  1.00  0.00    -0.320 C  
ENDROOT
BRANCH   1   3
HETATM    3  C   UNL     1     -11.109   9.598  69.276  1.00  0.00    -0.118 C  
BRANCH   3   4
HETATM    4  N   UNL     1     -10.838   8.720  70.422  1.00  0.00    -0.224 NA 
HETATM    5  C   UNL     1     -11.696   6.750  71.482  1.00  0.00    -0.361 C  
HETATM    6  C   UNL     1     -11.450   7.857  72.490  1.00  0.00    -0.455 C  
HETATM    7  C   UNL     1     -11.250   7.335  70.145  1.00  0.00    -0.239 C  
HETATM    8  C   UNL     1     -11.533   9.117  71.649  1.00  0.00    -0.381 C  
ENDBRANCH   3   4
ENDBRANCH   1   3
BRANCH   2   9
HETATM    9  C   UNL     1     -11.568  13.428  69.563  1.00  0.00    -0.290 A  
HETATM   10  C   UNL     1     -12.583  14.670  71.338  1.00  0.00    -0.404 A  
HETATM   11  C   UNL     1     -11.308  15.731  69.612  1.00  0.00    -0.334 A  
HETATM   12  N   UNL     1     -11.051  14.547  69.000  1.00  0.00    -0.251 NA 
HETATM   13  C   UNL     1     -12.060  15.832  70.778  1.00  0.00    -0.448 A  
HETATM   14  C   UNL     1     -12.337  13.448  70.722  1.00  0.00    -0.433 A  
BRANCH  11  15
HETATM   15  C   UNL     1     -10.757  16.942  68.988  1.00  0.00    -0.308 C  
HETATM   16  C   UNL     1     -10.744  17.132  67.660  1.00  0.00    -0.302 C  
HETATM   17  C   UNL     1     -10.191  18.375  67.100  1.00  0.00    -0.374 C  
HETATM   18  O   UNL     1     -10.249  18.388  65.753  1.00  0.00    -0.571 OA 
HETATM   19  O   UNL     1      -9.735  19.293  67.762  1.00  0.00    -0.302 OA 
ENDBRANCH  11  15
ENDBRANCH   2   9
BRANCH   2  20
HETATM   20  C   UNL     1     -10.895  12.029  67.479  1.00  0.00    -0.284 A  
HETATM   21  C   UNL     1     -11.560  12.093  65.143  1.00  0.00    -0.372 A  
HETATM   22  C   UNL     1      -9.944  11.503  63.297  1.00  0.00    -0.435 C  
HETATM   23  C   UNL     1     -11.869  12.250  66.497  1.00  0.00    -0.378 A  
HETATM   24  C   UNL     1      -9.295  11.508  65.728  1.00  0.00    -0.238 A  
HETATM   25  C   UNL     1     -10.273  11.713  64.747  1.00  0.00    -0.321 A  
HETATM   26  C   UNL     1      -9.603  11.667  67.085  1.00  0.00    -0.185 A  
ENDBRANCH   2  20
TORSDOF 5
ENDMDL
MODEL       27
REMARK 921   NORMALIZED FREE ENERGY PREDICTED BY IDOCK:   -6.42 KCAL/MOL
REMARK 922        TOTAL FREE ENERGY PREDICTED BY IDOCK:   -9.63 KCAL/MOL
REMARK 923 INTER-LIGAND FREE ENERGY PREDICTED BY IDOCK:   -8.48 KCAL/MOL
REMARK 924 INTRA-LIGAND FREE ENERGY PREDICTED BY IDOCK:   -1.15 KCAL/MOL
REMARK 927      BINDING AFFINITY PREDICTED BY RF-SCORE:    0.00 PKD
ROOT
HETATM    1  C   UNL     1     -12.591  10.415  71.342  1.00  0.00    -0.539 C  
HETATM    2  C   UNL     1     -12.140  11.446  70.588  1.00  0.00    -0.469 C  
ENDROOT
BRANCH   1   3
HETATM    3  C   UNL     1     -12.402   8.941  71.100  1.00  0.00    -0.235 C  
BRANCH   3   4
HETATM    4  N   UNL     1     -11.788   8.253  72.243  1.00  0.00    -0.365 NA 
HETATM    5  C   UNL     1      -9.684   7.339  72.935  1.00  0.00    -0.212 C  
HETATM    6  C   UNL     1     -10.816   6.357  73.171  1.00  0.00    -0.282 C  
HETATM    7  C   UNL     1     -10.359   8.582  72.362  1.00  0.00    -0.302 C  
HETATM    8  C   UNL     1     -11.867   6.792  72.166  1.00  0.00    -0.290 C  
ENDBRANCH   3   4
ENDBRANCH   1   3
BRANCH   2   9
HETATM    9  C   UNL     1     -12.502  12.808  71.043  1.00  0.00    -0.277 A  
HETATM   10  C   UNL     1     -13.720  14.263  72.500  1.00  0.00    -0.608 A  
HETATM   11  C   UNL     1     -12.160  15.095  70.886  1.00  0.00    -0.334 A  
HETATM   12  N   UNL     1     -11.863  13.844  70.450  1.00  0.00    -0.290 NA 
HETATM   13  C   UNL     1     -13.073  15.343  71.906  1.00  0.00    -0.515 A  
HETATM   14  C   UNL     1     -13.434  12.975  72.062  1.00  0.00    -0.584 A  
BRANCH  11  15
HETATM   15  C   UNL     1     -11.474  16.216  70.228  1.00  0.00    -0.319 C  
HETATM   16  C   UNL     1     -11.218  16.238  68.912  1.00  0.00    -0.337 C  
HETATM   17  C   UNL     1     -10.540  17.398  68.312  1.00  0.00    -0.366 C  
HETATM   18  O   UNL     1     -10.356  17.243  66.986  1.00  0.00    -0.318 OA 
HETATM   19  O   UNL     1     -10.185  18.390  68.928  1.00  0.00    -0.382 OA 
ENDBRANCH  11  15
ENDBRANCH   2   9
BRANCH   2  20
HETATM   20  C   UNL     1     -11.379  11.191  69.346  1.00  0.00    -0.352 A  
HETATM   21  C   UNL     1      -9.271  10.709  68.237  1.00  0.00    -0.153 A  
HETATM   22  C   UNL     1      -9.088  10.659  65.722  1.00  0.00    -0.208 C  
HETATM   23  C   UNL     1     -10.012  10.894  69.408  1.00  0.00    -0.085 A  
HETATM   24  C   UNL     1     -11.255  11.098  66.922  1.00  0.00    -0.258 A  
HETATM   25  C   UNL     1      -9.884  10.817  66.984  1.00  0.00    -0.221 A  
HETATM   26  C   UNL     1     -11.998  11.281  68.095  1.00  0.00    -0.182 A  
ENDBRANCH   2  20
TORSDOF 5
ENDMDL
MODEL       28
REMARK 921   NORMALIZED FREE ENERGY PREDICTED BY IDOCK:   -6.41 KCAL/MOL
REMARK 922        TOTAL FREE ENERGY PREDICTED BY IDOCK:   -9.62 KCAL/MOL
REMARK 923 INTER-LIGAND FREE ENERGY PREDICTED BY IDOCK:   -8.28 KCAL/MOL
REMARK 924 INTRA-LIGAND FREE ENERGY PREDICTED BY IDOCK:   -1.34 KCAL/MOL
REMARK 927      BINDING AFFINITY PREDICTED BY RF-SCORE:    0.00 PKD
ROOT
HETATM    1  C   UNL     1     -11.082  14.446  67.638  1.00  0.00    -0.311 C  
HETATM    2  C   UNL     1     -10.970  13.372  68.456  1.00  0.00    -0.292 C  
ENDROOT
BRANCH   1   3
HETATM    3  C   UNL     1     -10.434  14.657  66.296  1.00  0.00    -0.298 C  
BRANCH   3   4
HETATM    4  N   UNL     1     -11.296  14.245  65.179  1.00  0.00    -0.329 NA 
HETATM    5  C   UNL     1     -13.011  12.656  64.660  1.00  0.00    -0.225 C  
HETATM    6  C   UNL     1     -11.929  12.666  63.597  1.00  0.00    -0.615 C  
HETATM    7  C   UNL     1     -12.585  13.726  65.661  1.00  0.00    -0.509 C  
HETATM    8  C   UNL     1     -10.717  13.191  64.343  1.00  0.00    -0.407 C  
ENDBRANCH   3   4
ENDBRANCH   1   3
BRANCH   2   9
HETATM    9  C   UNL     1     -11.694  13.442  69.746  1.00  0.00    -0.286 A  
HETATM   10  C   UNL     1     -12.589  14.710  71.567  1.00  0.00    -0.410 A  
HETATM   11  C   UNL     1     -12.893  12.341  71.396  1.00  0.00    -0.271 A  
HETATM   12  N   UNL     1     -12.196  12.282  70.233  1.00  0.00    -0.301 NA 
HETATM   13  C   UNL     1     -13.114  13.530  72.085  1.00  0.00    -0.487 A  
HETATM   14  C   UNL     1     -11.865  14.668  70.381  1.00  0.00    -0.365 A  
BRANCH  11  15
HETATM   15  C   UNL     1     -13.422  11.077  71.927  1.00  0.00    -0.299 C  
HETATM   16  C   UNL     1     -13.055   9.879  71.448  1.00  0.00    -0.500 C  
HETATM   17  C   UNL     1     -13.610   8.650  72.034  1.00  0.00    -0.412 C  
HETATM   18  O   UNL     1     -13.139   7.545  71.423  1.00  0.00    -0.351 OA 
HETATM   19  O   UNL     1     -14.399   8.619  72.965  1.00  0.00    -0.395 OA 
ENDBRANCH  11  15
ENDBRANCH   2   9
BRANCH   2  20
HETATM   20  C   UNL     1     -10.114  12.228  68.078  1.00  0.00    -0.206 A  
HETATM   21  C   UNL     1      -9.876  10.013  67.106  1.00  0.00    -0.231 A  
HETATM   22  C   UNL     1      -7.676   8.780  67.161  1.00  0.00    -0.096 C  
HETATM   23  C   UNL     1     -10.665  11.125  67.415  1.00  0.00    -0.294 A  
HETATM   24  C   UNL     1      -7.965  11.095  68.102  1.00  0.00    -0.125 A  
HETATM   25  C   UNL     1      -8.521   9.986  67.453  1.00  0.00    -0.121 A  
HETATM   26  C   UNL     1      -8.754  12.210  68.410  1.00  0.00    -0.141 A  
ENDBRANCH   2  20
TORSDOF 5
ENDMDL
MODEL       29
REMARK 921   NORMALIZED FREE ENERGY PREDICTED BY IDOCK:   -6.41 KCAL/MOL
REMARK 922        TOTAL FREE ENERGY PREDICTED BY IDOCK:   -9.62 KCAL/MOL
REMARK 923 INTER-LIGAND FREE ENERGY PREDICTED BY IDOCK:   -9.62 KCAL/MOL
REMARK 924 INTRA-LIGAND FREE ENERGY PREDICTED BY IDOCK:    0.00 KCAL/MOL
REMARK 927      BINDING AFFINITY PREDICTED BY RF-SCORE:    0.00 PKD
ROOT
HETATM    1  C   UNL     1     -11.614  11.336  68.403  1.00  0.00    -0.378 C  
HETATM    2  C   UNL     1     -11.790  11.249  69.743  1.00  0.00    -0.437 C  
ENDROOT
BRANCH   1   3
HETATM    3  C   UNL     1     -11.810  12.540  67.521  1.00  0.00    -0.323 C  
BRANCH   3   4
HETATM    4  N   UNL     1     -12.000  12.184  66.109  1.00  0.00    -0.600 NA 
HETATM    5  C   UNL     1     -10.787  12.116  64.043  1.00  0.00    -0.436 C  
HETATM    6  C   UNL     1     -12.129  12.802  63.873  1.00  0.00    -0.562 C  
HETATM    7  C   UNL     1     -10.750  11.690  65.509  1.00  0.00    -0.281 C  
HETATM    8  C   UNL     1     -12.444  13.300  65.271  1.00  0.00    -0.489 C  
ENDBRANCH   3   4
ENDBRANCH   1   3
BRANCH   2   9
HETATM    9  C   UNL     1     -11.556   9.922  70.358  1.00  0.00    -0.282 A  
HETATM   10  C   UNL     1     -11.730   8.429  72.219  1.00  0.00    -0.453 A  
HETATM   11  C   UNL     1     -10.838   7.733  70.109  1.00  0.00    -0.244 A  
HETATM   12  N   UNL     1     -11.021   8.963  69.566  1.00  0.00    -0.148 NA 
HETATM   13  C   UNL     1     -11.184   7.428  71.422  1.00  0.00    -0.272 A  
HETATM   14  C   UNL     1     -11.918   9.697  71.682  1.00  0.00    -0.470 A  
BRANCH  11  15
HETATM   15  C   UNL     1     -10.244   6.701  69.249  1.00  0.00    -0.206 C  
HETATM   16  C   UNL     1     -10.766   6.356  68.062  1.00  0.00    -0.362 C  
HETATM   17  C   UNL     1     -10.113   5.325  67.241  1.00  0.00    -0.195 C  
HETATM   18  O   UNL     1     -10.780   5.101  66.091  1.00  0.00    -0.296 OA 
HETATM   19  O   UNL     1      -9.089   4.738  67.548  1.00  0.00    -0.111 OA 
ENDBRANCH  11  15
ENDBRANCH   2   9
BRANCH   2  20
HETATM   20  C   UNL     1     -12.248  12.422  70.517  1.00  0.00    -0.382 A  
HETATM   21  C   UNL     1     -12.056  14.781  71.068  1.00  0.00    -0.391 A  
HETATM   22  C   UNL     1     -13.420  15.817  72.920  1.00  0.00    -0.666 C  
HETATM   23  C   UNL     1     -11.670  13.679  70.300  1.00  0.00    -0.259 A  
HETATM   24  C   UNL     1     -13.620  13.395  72.271  1.00  0.00    -0.703 A  
HETATM   25  C   UNL     1     -13.028  14.647  72.064  1.00  0.00    -0.411 A  
HETATM   26  C   UNL     1     -13.235  12.290  71.501  1.00  0.00    -0.268 A  
ENDBRANCH   2  20
TORSDOF 5
ENDMDL
MODEL       30
REMARK 921   NORMALIZED FREE ENERGY PREDICTED BY IDOCK:   -6.39 KCAL/MOL
REMARK 922        TOTAL FREE ENERGY PREDICTED BY IDOCK:   -9.60 KCAL/MOL
REMARK 923 INTER-LIGAND FREE ENERGY PREDICTED BY IDOCK:   -8.68 KCAL/MOL
REMARK 924 INTRA-LIGAND FREE ENERGY PREDICTED BY IDOCK:   -0.91 KCAL/MOL
REMARK 927      BINDING AFFINITY PREDICTED BY RF-SCORE:    0.00 PKD
ROOT
HETATM    1  C   UNL     1     -11.203  11.270  68.704  1.00  0.00    -0.310 C  
HETATM    2  C   UNL     1     -10.868  12.160  67.739  1.00  0.00    -0.263 C  
ENDROOT
BRANCH   1   3
HETATM    3  C   UNL     1     -11.180   9.767  68.623  1.00  0.00    -0.015 C  
BRANCH   3   4
HETATM    4  N   UNL     1     -10.696   9.139  69.860  1.00  0.00    -0.227 NA 
HETATM    5  C   UNL     1     -11.151   7.263  71.278  1.00  0.00    -0.270 C  
HETATM    6  C   UNL     1     -11.026   8.544  72.082  1.00  0.00    -0.427 C  
HETATM    7  C   UNL     1     -10.893   7.682  69.834  1.00  0.00    -0.235 C  
HETATM    8  C   UNL     1     -11.367   9.622  71.070  1.00  0.00    -0.374 C  
ENDBRANCH   3   4
ENDBRANCH   1   3
BRANCH   2   9
HETATM    9  C   UNL     1     -11.017  13.594  68.079  1.00  0.00    -0.250 A  
HETATM   10  C   UNL     1     -10.665  15.904  67.567  1.00  0.00    -0.318 A  
HETATM   11  C   UNL     1     -11.901  15.203  69.494  1.00  0.00    -0.332 A  
HETATM   12  N   UNL     1     -11.727  13.891  69.194  1.00  0.00    -0.313 NA 
HETATM   13  C   UNL     1     -11.393  16.232  68.706  1.00  0.00    -0.329 A  
HETATM   14  C   UNL     1     -10.470  14.565  67.247  1.00  0.00    -0.266 A  
BRANCH  11  15
HETATM   15  C   UNL     1     -12.659  15.518  70.712  1.00  0.00    -0.505 C  
HETATM   16  C   UNL     1     -12.088  15.594  71.923  1.00  0.00    -0.513 C  
HETATM   17  C   UNL     1     -12.902  15.930  73.102  1.00  0.00    -0.537 C  
HETATM   18  O   UNL     1     -12.166  15.951  74.231  1.00  0.00    -0.540 OA 
HETATM   19  O   UNL     1     -14.098  16.167  73.075  1.00  0.00    -0.469 OA 
ENDBRANCH  11  15
ENDBRANCH   2   9
BRANCH   2  20
HETATM   20  C   UNL     1     -10.436  11.693  66.405  1.00  0.00    -0.283 A  
HETATM   21  C   UNL     1     -10.903  11.360  64.044  1.00  0.00    -0.450 A  
HETATM   22  C   UNL     1      -9.285  10.141  62.540  1.00  0.00    -0.321 C  
HETATM   23  C   UNL     1     -11.278  11.850  65.298  1.00  0.00    -0.351 A  
HETATM   24  C   UNL     1      -8.827  10.563  64.978  1.00  0.00    -0.207 A  
HETATM   25  C   UNL     1      -9.678  10.706  63.874  1.00  0.00    -0.378 A  
HETATM   26  C   UNL     1      -9.202  11.055  66.234  1.00  0.00    -0.200 A  
ENDBRANCH   2  20
TORSDOF 5
ENDMDL
MODEL       31
REMARK 921   NORMALIZED FREE ENERGY PREDICTED BY IDOCK:   -6.38 KCAL/MOL
REMARK 922        TOTAL FREE ENERGY PREDICTED BY IDOCK:   -9.59 KCAL/MOL
REMARK 923 INTER-LIGAND FREE ENERGY PREDICTED BY IDOCK:   -9.00 KCAL/MOL
REMARK 924 INTRA-LIGAND FREE ENERGY PREDICTED BY IDOCK:   -0.58 KCAL/MOL
REMARK 927      BINDING AFFINITY PREDICTED BY RF-SCORE:    0.00 PKD
ROOT
HETATM    1  C   UNL     1     -11.833  12.798  68.285  1.00  0.00    -0.357 C  
HETATM    2  C   UNL     1     -11.800  12.420  69.585  1.00  0.00    -0.380 C  
ENDROOT
BRANCH   1   3
HETATM    3  C   UNL     1     -12.143  14.162  67.727  1.00  0.00    -0.286 C  
BRANCH   3   4
HETATM    4  N   UNL     1     -11.720  14.312  66.328  1.00  0.00    -0.380 NA 
HETATM    5  C   UNL     1     -12.003  13.267  64.191  1.00  0.00    -0.505 C  
HETATM    6  C   UNL     1     -10.539  13.536  64.484  1.00  0.00    -0.439 C  
HETATM    7  C   UNL     1     -12.751  13.820  65.401  1.00  0.00    -0.472 C  
HETATM    8  C   UNL     1     -10.492  13.585  66.000  1.00  0.00    -0.299 C  
ENDBRANCH   3   4
ENDBRANCH   1   3
BRANCH   2   9
HETATM    9  C   UNL     1     -11.497  10.995  69.853  1.00  0.00    -0.320 A  
HETATM   10  C   UNL     1     -11.616   9.070  71.269  1.00  0.00    -0.387 A  
HETATM   11  C   UNL     1     -10.635   8.985  69.087  1.00  0.00    -0.203 A  
HETATM   12  N   UNL     1     -10.884  10.301  68.865  1.00  0.00    -0.217 NA 
HETATM   13  C   UNL     1     -10.989   8.337  70.266  1.00  0.00    -0.233 A  
HETATM   14  C   UNL     1     -11.872  10.421  71.063  1.00  0.00    -0.458 A  
BRANCH  11  15
HETATM   15  C   UNL     1      -9.957   8.240  68.016  1.00  0.00    -0.224 C  
HETATM   16  C   UNL     1     -10.334   7.010  67.638  1.00  0.00    -0.270 C  
HETATM   17  C   UNL     1      -9.622   6.325  66.547  1.00  0.00    -0.146 C  
HETATM   18  O   UNL     1     -10.127   5.098  66.310  1.00  0.00    -0.191 OA 
HETATM   19  O   UNL     1      -8.689   6.799  65.921  1.00  0.00    -0.152 OA 
ENDBRANCH  11  15
ENDBRANCH   2   9
BRANCH   2  20
HETATM   20  C   UNL     1     -12.114  13.388  70.657  1.00  0.00    -0.374 A  
HETATM   21  C   UNL     1     -11.563  15.410  71.888  1.00  0.00    -0.521 A  
HETATM   22  C   UNL     1     -12.883  16.116  73.919  1.00  0.00    -0.605 C  
HETATM   23  C   UNL     1     -11.309  14.520  70.840  1.00  0.00    -0.071 A  
HETATM   24  C   UNL     1     -13.442  14.064  72.575  1.00  0.00    -0.661 A  
HETATM   25  C   UNL     1     -12.627  15.186  72.768  1.00  0.00    -0.487 A  
HETATM   26  C   UNL     1     -13.190  13.172  71.525  1.00  0.00    -0.368 A  
ENDBRANCH   2  20
TORSDOF 5
ENDMDL
MODEL       32
REMARK 921   NORMALIZED FREE ENERGY PREDICTED BY IDOCK:   -6.35 KCAL/MOL
REMARK 922        TOTAL FREE ENERGY PREDICTED BY IDOCK:   -9.55 KCAL/MOL
REMARK 923 INTER-LIGAND FREE ENERGY PREDICTED BY IDOCK:   -8.69 KCAL/MOL
REMARK 924 INTRA-LIGAND FREE ENERGY PREDICTED BY IDOCK:   -0.86 KCAL/MOL
REMARK 927      BINDING AFFINITY PREDICTED BY RF-SCORE:    0.00 PKD
ROOT
HETATM    1  C   UNL     1     -11.025  10.643  68.037  1.00  0.00    -0.336 C  
HETATM    2  C   UNL     1     -11.265  11.036  69.310  1.00  0.00    -0.321 C  
ENDROOT
BRANCH   1   3
HETATM    3  C   UNL     1     -10.624   9.275  67.552  1.00  0.00    -0.262 C  
BRANCH   3   4
HETATM    4  N   UNL     1     -10.368   9.239  66.106  1.00  0.00    -0.164 NA 
HETATM    5  C   UNL     1      -8.543   9.233  64.554  1.00  0.00    -0.217 C  
HETATM    6  C   UNL     1      -9.591  10.260  64.169  1.00  0.00    -0.376 C  
HETATM    7  C   UNL     1      -9.099   8.557  65.804  1.00  0.00    -0.167 C  
HETATM    8  C   UNL     1     -10.279  10.563  65.487  1.00  0.00    -0.256 C  
ENDBRANCH   3   4
ENDBRANCH   1   3
BRANCH   2   9
HETATM    9  C   UNL     1     -11.613  12.462  69.510  1.00  0.00    -0.286 A  
HETATM   10  C   UNL     1     -12.534  14.214  70.853  1.00  0.00    -0.436 A  
HETATM   11  C   UNL     1     -11.518  14.642  68.728  1.00  0.00    -0.296 A  
HETATM   12  N   UNL     1     -11.238  13.328  68.538  1.00  0.00    -0.254 NA 
HETATM   13  C   UNL     1     -12.156  15.121  69.868  1.00  0.00    -0.373 A  
HETATM   14  C   UNL     1     -12.262  12.863  70.673  1.00  0.00    -0.386 A  
BRANCH  11  15
HETATM   15  C   UNL     1     -11.122  15.574  67.664  1.00  0.00    -0.311 C  
HETATM   16  C   UNL     1     -10.796  16.853  67.903  1.00  0.00    -0.310 C  
HETATM   17  C   UNL     1     -10.392  17.731  66.794  1.00  0.00    -0.343 C  
HETATM   18  O   UNL     1     -10.113  18.980  67.217  1.00  0.00    -0.327 OA 
HETATM   19  O   UNL     1     -10.311  17.383  65.627  1.00  0.00    -0.589 OA 
ENDBRANCH  11  15
ENDBRANCH   2   9
BRANCH   2  20
HETATM   20  C   UNL     1     -11.123  10.082  70.430  1.00  0.00    -0.393 A  
HETATM   21  C   UNL     1      -9.713   8.690  71.838  1.00  0.00    -0.383 A  
HETATM   22  C   UNL     1     -10.699   7.127  73.555  1.00  0.00    -0.375 C  
HETATM   23  C   UNL     1      -9.854   9.637  70.818  1.00  0.00    -0.224 A  
HETATM   24  C   UNL     1     -12.108   8.631  72.111  1.00  0.00    -0.451 A  
HETATM   25  C   UNL     1     -10.839   8.173  72.487  1.00  0.00    -0.431 A  
HETATM   26  C   UNL     1     -12.250   9.580  71.091  1.00  0.00    -0.421 A  
ENDBRANCH   2  20
TORSDOF 5
ENDMDL
MODEL       33
REMARK 921   NORMALIZED FREE ENERGY PREDICTED BY IDOCK:   -6.35 KCAL/MOL
REMARK 922        TOTAL FREE ENERGY PREDICTED BY IDOCK:   -9.55 KCAL/MOL
REMARK 923 INTER-LIGAND FREE ENERGY PREDICTED BY IDOCK:   -8.52 KCAL/MOL
REMARK 924 INTRA-LIGAND FREE ENERGY PREDICTED BY IDOCK:   -1.02 KCAL/MOL
REMARK 927      BINDING AFFINITY PREDICTED BY RF-SCORE:    0.00 PKD
ROOT
HETATM    1  C   UNL     1     -11.488  15.671  67.890  1.00  0.00    -0.253 C  
HETATM    2  C   UNL     1     -11.107  14.710  68.765  1.00  0.00    -0.274 C  
ENDROOT
BRANCH   1   3
HETATM    3  C   UNL     1     -10.814  16.069  66.604  1.00  0.00    -0.179 C  
BRANCH   3   4
HETATM    4  N   UNL     1     -10.203  17.403  66.673  1.00  0.00    -0.316 NA 
HETATM    5  C   UNL     1     -10.494  19.512  67.771  1.00  0.00    -0.574 C  
HETATM    6  C   UNL     1     -10.303  19.690  66.277  1.00  0.00    -0.619 C  
HETATM    7  C   UNL     1     -10.386  18.007  68.002  1.00  0.00    -0.387 C  
HETATM    8  C   UNL     1     -10.754  18.357  65.709  1.00  0.00    -0.131 C  
ENDBRANCH   3   4
ENDBRANCH   1   3
BRANCH   2   9
HETATM    9  C   UNL     1     -11.942  14.550  69.978  1.00  0.00    -0.330 A  
HETATM   10  C   UNL     1     -13.268  15.489  71.734  1.00  0.00    -0.567 A  
HETATM   11  C   UNL     1     -12.999  13.125  71.470  1.00  0.00    -0.321 A  
HETATM   12  N   UNL     1     -12.204  13.283  70.381  1.00  0.00    -0.353 NA 
HETATM   13  C   UNL     1     -13.551  14.196  72.165  1.00  0.00    -0.568 A  
HETATM   14  C   UNL     1     -12.449  15.671  70.626  1.00  0.00    -0.463 A  
BRANCH  11  15
HETATM   15  C   UNL     1     -13.266  11.749  71.911  1.00  0.00    -0.468 C  
HETATM   16  C   UNL     1     -12.651  10.683  71.376  1.00  0.00    -0.526 C  
HETATM   17  C   UNL     1     -12.953   9.332  71.874  1.00  0.00    -0.411 C  
HETATM   18  O   UNL     1     -12.253   8.386  71.217  1.00  0.00    -0.298 OA 
HETATM   19  O   UNL     1     -13.736   9.083  72.776  1.00  0.00    -0.434 OA 
ENDBRANCH  11  15
ENDBRANCH   2   9
BRANCH   2  20
HETATM   20  C   UNL     1      -9.883  13.918  68.525  1.00  0.00    -0.214 A  
HETATM   21  C   UNL     1      -7.458  13.765  68.467  1.00  0.00    -0.119 A  
HETATM   22  C   UNL     1      -6.289  11.695  67.621  1.00  0.00    -0.072 C  
HETATM   23  C   UNL     1      -8.622  14.486  68.747  1.00  0.00    -0.145 A  
HETATM   24  C   UNL     1      -8.794  11.887  67.755  1.00  0.00    -0.166 A  
HETATM   25  C   UNL     1      -7.534  12.462  67.962  1.00  0.00    -0.114 A  
HETATM   26  C   UNL     1      -9.961  12.608  68.037  1.00  0.00    -0.220 A  
ENDBRANCH   2  20
TORSDOF 5
ENDMDL
MODEL       34
REMARK 921   NORMALIZED FREE ENERGY PREDICTED BY IDOCK:   -6.30 KCAL/MOL
REMARK 922        TOTAL FREE ENERGY PREDICTED BY IDOCK:   -9.48 KCAL/MOL
REMARK 923 INTER-LIGAND FREE ENERGY PREDICTED BY IDOCK:   -8.14 KCAL/MOL
REMARK 924 INTRA-LIGAND FREE ENERGY PREDICTED BY IDOCK:   -1.35 KCAL/MOL
REMARK 927      BINDING AFFINITY PREDICTED BY RF-SCORE:    0.00 PKD
ROOT
HETATM    1  C   UNL     1     -10.827  10.028  67.620  1.00  0.00    -0.336 C  
HETATM    2  C   UNL     1     -11.248  11.202  68.145  1.00  0.00    -0.356 C  
ENDROOT
BRANCH   1   3
HETATM    3  C   UNL     1     -10.157   9.797  66.291  1.00  0.00    -0.243 C  
BRANCH   3   4
HETATM    4  N   UNL     1      -8.759   9.368  66.427  1.00  0.00    -0.133 NA 
HETATM    5  C   UNL     1      -7.111   8.952  68.115  1.00  0.00    -0.078 C  
HETATM    6  C   UNL     1      -6.556   9.826  67.007  1.00  0.00    -0.071 C  
HETATM    7  C   UNL     1      -8.542   8.639  67.686  1.00  0.00    -0.136 C  
HETATM    8  C   UNL     1      -7.798  10.473  66.422  1.00  0.00    -0.138 C  
ENDBRANCH   3   4
ENDBRANCH   1   3
BRANCH   2   9
HETATM    9  C   UNL     1     -11.911  11.136  69.469  1.00  0.00    -0.353 A  
HETATM   10  C   UNL     1     -12.688   9.879  71.350  1.00  0.00    -0.503 A  
HETATM   11  C   UNL     1     -12.844  12.266  71.265  1.00  0.00    -0.239 A  
HETATM   12  N   UNL     1     -12.270  12.313  70.036  1.00  0.00    -0.241 NA 
HETATM   13  C   UNL     1     -13.062  11.076  71.952  1.00  0.00    -0.525 A  
HETATM   14  C   UNL     1     -12.105   9.906  70.088  1.00  0.00    -0.095 A  
BRANCH  11  15
HETATM   15  C   UNL     1     -13.244  13.545  71.868  1.00  0.00    -0.510 C  
HETATM   16  C   UNL     1     -12.382  14.554  72.066  1.00  0.00    -0.367 C  
HETATM   17  C   UNL     1     -12.851  15.816  72.661  1.00  0.00    -0.461 C  
HETATM   18  O   UNL     1     -11.851  16.710  72.795  1.00  0.00    -0.519 OA 
HETATM   19  O   UNL     1     -14.003  16.042  72.993  1.00  0.00    -0.564 OA 
ENDBRANCH  11  15
ENDBRANCH   2   9
BRANCH   2  20
HETATM   20  C   UNL     1     -11.095  12.462  67.388  1.00  0.00    -0.320 A  
HETATM   21  C   UNL     1      -9.843  14.491  66.918  1.00  0.00    -0.265 A  
HETATM   22  C   UNL     1     -10.732  16.253  65.346  1.00  0.00    -0.342 C  
HETATM   23  C   UNL     1      -9.969  13.270  67.587  1.00  0.00    -0.229 A  
HETATM   24  C   UNL     1     -11.959  14.109  65.825  1.00  0.00    -0.410 A  
HETATM   25  C   UNL     1     -10.840  14.925  66.037  1.00  0.00    -0.328 A  
HETATM   26  C   UNL     1     -12.084  12.885  66.493  1.00  0.00    -0.375 A  
ENDBRANCH   2  20
TORSDOF 5
ENDMDL
MODEL       35
REMARK 921   NORMALIZED FREE ENERGY PREDICTED BY IDOCK:   -6.28 KCAL/MOL
REMARK 922        TOTAL FREE ENERGY PREDICTED BY IDOCK:   -9.46 KCAL/MOL
REMARK 923 INTER-LIGAND FREE ENERGY PREDICTED BY IDOCK:   -8.40 KCAL/MOL
REMARK 924 INTRA-LIGAND FREE ENERGY PREDICTED BY IDOCK:   -1.06 KCAL/MOL
REMARK 927      BINDING AFFINITY PREDICTED BY RF-SCORE:    0.00 PKD
ROOT
HETATM    1  C   UNL     1     -11.921  14.148  67.380  1.00  0.00    -0.439 C  
HETATM    2  C   UNL     1     -11.170  14.013  68.499  1.00  0.00    -0.291 C  
ENDROOT
BRANCH   1   3
HETATM    3  C   UNL     1     -11.502  14.710  66.048  1.00  0.00    -0.332 C  
BRANCH   3   4
HETATM    4  N   UNL     1     -11.116  13.667  65.088  1.00  0.00    -0.308 NA 
HETATM    5  C   UNL     1     -12.104  12.065  63.606  1.00  0.00    -0.627 C  
HETATM    6  C   UNL     1     -11.029  11.430  64.467  1.00  0.00    -0.346 C  
HETATM    7  C   UNL     1     -12.110  13.536  64.011  1.00  0.00    -0.441 C  
HETATM    8  C   UNL     1     -10.980  12.336  65.683  1.00  0.00    -0.299 C  
ENDBRANCH   3   4
ENDBRANCH   1   3
BRANCH   2   9
HETATM    9  C   UNL     1     -11.850  13.455  69.691  1.00  0.00    -0.331 A  
HETATM   10  C   UNL     1     -13.097  13.756  71.710  1.00  0.00    -0.463 A  
HETATM   11  C   UNL     1     -12.558  11.583  70.860  1.00  0.00    -0.341 A  
HETATM   12  N   UNL     1     -11.905  12.105  69.791  1.00  0.00    -0.332 NA 
HETATM   13  C   UNL     1     -13.168  12.371  71.831  1.00  0.00    -0.486 A  
HETATM   14  C   UNL     1     -12.426  14.309  70.625  1.00  0.00    -0.428 A  
BRANCH  11  15
HETATM   15  C   UNL     1     -12.602  10.119  70.970  1.00  0.00    -0.478 C  
HETATM   16  C   UNL     1     -11.501   9.354  70.920  1.00  0.00    -0.382 C  
HETATM   17  C   UNL     1     -11.612   7.893  71.053  1.00  0.00    -0.282 C  
HETATM   18  O   UNL     1     -10.411   7.288  70.968  1.00  0.00    -0.214 OA 
HETATM   19  O   UNL     1     -12.658   7.289  71.223  1.00  0.00    -0.355 OA 
ENDBRANCH  11  15
ENDBRANCH   2   9
BRANCH   2  20
HETATM   20  C   UNL     1      -9.762  14.464  68.517  1.00  0.00    -0.225 A  
HETATM   21  C   UNL     1      -7.405  14.006  68.144  1.00  0.00    -0.128 A  
HETATM   22  C   UNL     1      -5.624  15.681  68.764  1.00  0.00    -0.096 C  
HETATM   23  C   UNL     1      -8.744  13.610  68.076  1.00  0.00    -0.176 A  
HETATM   24  C   UNL     1      -8.080  16.125  69.076  1.00  0.00    -0.237 A  
HETATM   25  C   UNL     1      -7.061  15.263  68.651  1.00  0.00    -0.116 A  
HETATM   26  C   UNL     1      -9.422  15.730  69.007  1.00  0.00    -0.247 A  
ENDBRANCH   2  20
TORSDOF 5
ENDMDL
MODEL       36
REMARK 921   NORMALIZED FREE ENERGY PREDICTED BY IDOCK:   -6.26 KCAL/MOL
REMARK 922        TOTAL FREE ENERGY PREDICTED BY IDOCK:   -9.43 KCAL/MOL
REMARK 923 INTER-LIGAND FREE ENERGY PREDICTED BY IDOCK:   -9.39 KCAL/MOL
REMARK 924 INTRA-LIGAND FREE ENERGY PREDICTED BY IDOCK:   -0.04 KCAL/MOL
REMARK 927      BINDING AFFINITY PREDICTED BY RF-SCORE:    0.00 PKD
ROOT
HETATM    1  C   UNL     1     -11.995  10.739  69.918  1.00  0.00    -0.418 C  
HETATM    2  C   UNL     1     -11.908  12.055  69.610  1.00  0.00    -0.401 C  
ENDROOT
BRANCH   1   3
HETATM    3  C   UNL     1     -12.377  10.121  71.237  1.00  0.00    -0.400 C  
BRANCH   3   4
HETATM    4  N   UNL     1     -11.330   9.242  71.776  1.00  0.00    -0.385 NA 
HETATM    5  C   UNL     1      -9.466   7.928  71.044  1.00  0.00    -0.172 C  
HETATM    6  C   UNL     1     -10.369   7.136  71.971  1.00  0.00    -0.214 C  
HETATM    7  C   UNL     1     -10.103   9.312  70.968  1.00  0.00    -0.303 C  
HETATM    8  C   UNL     1     -11.711   7.828  71.822  1.00  0.00    -0.284 C  
ENDBRANCH   3   4
ENDBRANCH   1   3
BRANCH   2   9
HETATM    9  C   UNL     1     -11.473  12.386  68.234  1.00  0.00    -0.310 A  
HETATM   10  C   UNL     1     -10.945  11.720  65.998  1.00  0.00    -0.355 A  
HETATM   11  C   UNL     1     -10.923  14.015  66.678  1.00  0.00    -0.300 A  
HETATM   12  N   UNL     1     -11.286  13.697  67.947  1.00  0.00    -0.280 NA 
HETATM   13  C   UNL     1     -10.750  13.060  65.681  1.00  0.00    -0.293 A  
HETATM   14  C   UNL     1     -11.310  11.374  67.294  1.00  0.00    -0.347 A  
BRANCH  11  15
HETATM   15  C   UNL     1     -10.708  15.437  66.378  1.00  0.00    -0.311 C  
HETATM   16  C   UNL     1     -10.471  16.351  67.330  1.00  0.00    -0.309 C  
HETATM   17  C   UNL     1     -10.248  17.758  66.961  1.00  0.00    -0.346 C  
HETATM   18  O   UNL     1     -10.037  18.534  68.043  1.00  0.00    -0.335 OA 
HETATM   19  O   UNL     1     -10.248  18.185  65.818  1.00  0.00    -0.580 OA 
ENDBRANCH  11  15
ENDBRANCH   2   9
BRANCH   2  20
HETATM   20  C   UNL     1     -12.183  13.085  70.634  1.00  0.00    -0.390 A  
HETATM   21  C   UNL     1     -13.544  13.909  72.471  1.00  0.00    -0.680 A  
HETATM   22  C   UNL     1     -13.142  16.181  73.492  1.00  0.00    -0.594 C  
HETATM   23  C   UNL     1     -13.240  12.914  71.537  1.00  0.00    -0.346 A  
HETATM   24  C   UNL     1     -11.729  15.254  71.627  1.00  0.00    -0.463 A  
HETATM   25  C   UNL     1     -12.797  15.091  72.519  1.00  0.00    -0.446 A  
HETATM   26  C   UNL     1     -11.423  14.258  70.693  1.00  0.00    -0.125 A  
ENDBRANCH   2  20
TORSDOF 5
ENDMDL
MODEL       37
REMARK 921   NORMALIZED FREE ENERGY PREDICTED BY IDOCK:   -6.24 KCAL/MOL
REMARK 922        TOTAL FREE ENERGY PREDICTED BY IDOCK:   -9.41 KCAL/MOL
REMARK 923 INTER-LIGAND FREE ENERGY PREDICTED BY IDOCK:   -8.60 KCAL/MOL
REMARK 924 INTRA-LIGAND FREE ENERGY PREDICTED BY IDOCK:   -0.81 KCAL/MOL
REMARK 927      BINDING AFFINITY PREDICTED BY RF-SCORE:    0.00 PKD
ROOT
HETATM    1  C   UNL     1     -10.850  10.495  67.291  1.00  0.00    -0.338 C  
HETATM    2  C   UNL     1     -11.028  11.074  68.502  1.00  0.00    -0.276 C  
ENDROOT
BRANCH   1   3
HETATM    3  C   UNL     1     -10.590   9.042  66.991  1.00  0.00    -0.200 C  
BRANCH   3   4
HETATM    4  N   UNL     1      -9.270   8.815  66.386  1.00  0.00    -0.174 NA 
HETATM    5  C   UNL     1      -8.233   8.627  64.235  1.00  0.00    -0.160 C  
HETATM    6  C   UNL     1      -7.821   7.487  65.148  1.00  0.00    -0.122 C  
HETATM    7  C   UNL     1      -9.152   9.498  65.088  1.00  0.00    -0.228 C  
HETATM    8  C   UNL     1      -8.969   7.404  66.137  1.00  0.00    -0.149 C  
ENDBRANCH   3   4
ENDBRANCH   1   3
BRANCH   2   9
HETATM    9  C   UNL     1     -11.234  12.541  68.512  1.00  0.00    -0.283 A  
HETATM   10  C   UNL     1     -11.065  14.676  67.446  1.00  0.00    -0.331 A  
HETATM   11  C   UNL     1     -12.096  14.403  69.589  1.00  0.00    -0.334 A  
HETATM   12  N   UNL     1     -11.868  13.065  69.588  1.00  0.00    -0.320 NA 
HETATM   13  C   UNL     1     -11.717  15.235  68.540  1.00  0.00    -0.352 A  
HETATM   14  C   UNL     1     -10.816  13.308  67.430  1.00  0.00    -0.279 A  
BRANCH  11  15
HETATM   15  C   UNL     1     -12.771  14.968  70.766  1.00  0.00    -0.438 C  
HETATM   16  C   UNL     1     -12.243  14.920  71.998  1.00  0.00    -0.434 C  
HETATM   17  C   UNL     1     -12.964  15.519  73.132  1.00  0.00    -0.521 C  
HETATM   18  O   UNL     1     -12.292  15.368  74.290  1.00  0.00    -0.631 OA 
HETATM   19  O   UNL     1     -14.039  16.089  73.048  1.00  0.00    -0.508 OA 
ENDBRANCH  11  15
ENDBRANCH   2   9
BRANCH   2  20
HETATM   20  C   UNL     1     -10.955  10.267  69.738  1.00  0.00    -0.338 A  
HETATM   21  C   UNL     1      -9.657   8.943  71.310  1.00  0.00    -0.348 A  
HETATM   22  C   UNL     1     -10.753   7.725  73.227  1.00  0.00    -0.335 C  
HETATM   23  C   UNL     1      -9.726   9.756  70.174  1.00  0.00    -0.299 A  
HETATM   24  C   UNL     1     -12.041   9.153  71.604  1.00  0.00    -0.432 A  
HETATM   25  C   UNL     1     -10.814   8.629  72.030  1.00  0.00    -0.430 A  
HETATM   26  C   UNL     1     -12.111   9.968  70.468  1.00  0.00    -0.338 A  
ENDBRANCH   2  20
TORSDOF 5
ENDMDL
MODEL       38
REMARK 921   NORMALIZED FREE ENERGY PREDICTED BY IDOCK:   -6.23 KCAL/MOL
REMARK 922        TOTAL FREE ENERGY PREDICTED BY IDOCK:   -9.39 KCAL/MOL
REMARK 923 INTER-LIGAND FREE ENERGY PREDICTED BY IDOCK:   -8.40 KCAL/MOL
REMARK 924 INTRA-LIGAND FREE ENERGY PREDICTED BY IDOCK:   -0.99 KCAL/MOL
REMARK 927      BINDING AFFINITY PREDICTED BY RF-SCORE:    0.00 PKD
ROOT
HETATM    1  C   UNL     1     -12.213  12.759  70.573  1.00  0.00    -0.389 C  
HETATM    2  C   UNL     1     -11.869  11.575  70.011  1.00  0.00    -0.435 C  
ENDROOT
BRANCH   1   3
HETATM    3  C   UNL     1     -11.967  14.143  70.035  1.00  0.00    -0.340 C  
BRANCH   3   4
HETATM    4  N   UNL     1     -12.575  15.191  70.867  1.00  0.00    -0.348 NA 
HETATM    5  C   UNL     1     -12.619  15.952  73.138  1.00  0.00    -0.622 C  
HETATM    6  C   UNL     1     -14.021  15.828  72.570  1.00  0.00    -0.535 C  
HETATM    7  C   UNL     1     -11.696  15.564  71.986  1.00  0.00    -0.455 C  
HETATM    8  C   UNL     1     -13.856  14.805  71.463  1.00  0.00    -0.450 C  
ENDBRANCH   3   4
ENDBRANCH   1   3
BRANCH   2   9
HETATM    9  C   UNL     1     -12.205  10.354  70.779  1.00  0.00    -0.359 A  
HETATM   10  C   UNL     1     -13.474   9.243  72.476  1.00  0.00    -0.471 A  
HETATM   11  C   UNL     1     -11.917   8.074  71.083  1.00  0.00    -0.277 A  
HETATM   12  N   UNL     1     -11.588   9.207  70.410  1.00  0.00    -0.202 NA 
HETATM   13  C   UNL     1     -12.854   8.052  72.111  1.00  0.00    -0.269 A  
HETATM   14  C   UNL     1     -13.145  10.414  71.803  1.00  0.00    -0.567 A  
BRANCH  11  15
HETATM   15  C   UNL     1     -11.233   6.836  70.687  1.00  0.00    -0.361 C  
HETATM   16  C   UNL     1     -10.709   5.980  71.577  1.00  0.00    -0.309 C  
HETATM   17  C   UNL     1     -10.050   4.748  71.115  1.00  0.00    -0.191 C  
HETATM   18  O   UNL     1      -9.575   4.017  72.142  1.00  0.00    -0.133 OA 
HETATM   19  O   UNL     1      -9.943   4.414  69.946  1.00  0.00    -0.222 OA 
ENDBRANCH  11  15
ENDBRANCH   2   9
BRANCH   2  20
HETATM   20  C   UNL     1     -11.144  11.538  68.724  1.00  0.00    -0.288 A  
HETATM   21  C   UNL     1     -11.177  11.540  66.294  1.00  0.00    -0.286 A  
HETATM   22  C   UNL     1      -9.068  11.213  64.948  1.00  0.00    -0.111 C  
HETATM   23  C   UNL     1     -11.848  11.633  67.517  1.00  0.00    -0.196 A  
HETATM   24  C   UNL     1      -9.084  11.276  67.463  1.00  0.00    -0.151 A  
HETATM   25  C   UNL     1      -9.791  11.354  66.257  1.00  0.00    -0.250 A  
HETATM   26  C   UNL     1      -9.755  11.370  68.689  1.00  0.00    -0.182 A  
ENDBRANCH   2  20
TORSDOF 5
ENDMDL
MODEL       39
REMARK 921   NORMALIZED FREE ENERGY PREDICTED BY IDOCK:   -6.21 KCAL/MOL
REMARK 922        TOTAL FREE ENERGY PREDICTED BY IDOCK:   -9.37 KCAL/MOL
REMARK 923 INTER-LIGAND FREE ENERGY PREDICTED BY IDOCK:   -8.96 KCAL/MOL
REMARK 924 INTRA-LIGAND FREE ENERGY PREDICTED BY IDOCK:   -0.41 KCAL/MOL
REMARK 927      BINDING AFFINITY PREDICTED BY RF-SCORE:    0.00 PKD
ROOT
HETATM    1  C   UNL     1     -11.572  11.203  69.467  1.00  0.00    -0.392 C  
HETATM    2  C   UNL     1     -11.765  12.522  69.231  1.00  0.00    -0.379 C  
ENDROOT
BRANCH   1   3
HETATM    3  C   UNL     1     -11.646  10.479  70.786  1.00  0.00    -0.338 C  
BRANCH   3   4
HETATM    4  N   UNL     1     -12.576   9.342  70.757  1.00  0.00    -0.126 NA 
HETATM    5  C   UNL     1     -14.209   8.258  72.134  1.00  0.00    -0.460 C  
HETATM    6  C   UNL     1     -13.236   7.257  71.541  1.00  0.00    -0.434 C  
HETATM    7  C   UNL     1     -13.771   9.608  71.572  1.00  0.00    -0.235 C  
HETATM    8  C   UNL     1     -12.001   8.095  71.266  1.00  0.00    -0.291 C  
ENDBRANCH   3   4
ENDBRANCH   1   3
BRANCH   2   9
HETATM    9  C   UNL     1     -11.596  12.976  67.831  1.00  0.00    -0.342 A  
HETATM   10  C   UNL     1     -11.730  14.689  66.166  1.00  0.00    -0.316 A  
HETATM   11  C   UNL     1     -10.872  12.508  65.680  1.00  0.00    -0.277 A  
HETATM   12  N   UNL     1     -11.066  12.089  66.956  1.00  0.00    -0.280 NA 
HETATM   13  C   UNL     1     -11.184  13.794  65.251  1.00  0.00    -0.311 A  
HETATM   14  C   UNL     1     -11.942  14.276  67.477  1.00  0.00    -0.411 A  
BRANCH  11  15
HETATM   15  C   UNL     1     -10.311  11.535  64.732  1.00  0.00    -0.341 C  
HETATM   16  C   UNL     1      -9.556  10.497  65.121  1.00  0.00    -0.316 C  
HETATM   17  C   UNL     1      -9.036   9.549  64.122  1.00  0.00    -0.153 C  
HETATM   18  O   UNL     1      -8.293   8.579  64.689  1.00  0.00    -0.166 OA 
HETATM   19  O   UNL     1      -9.248   9.619  62.923  1.00  0.00    -0.266 OA 
ENDBRANCH  11  15
ENDBRANCH   2   9
BRANCH   2  20
HETATM   20  C   UNL     1     -12.070  13.447  70.343  1.00  0.00    -0.405 A  
HETATM   21  C   UNL     1     -11.558  15.464  71.597  1.00  0.00    -0.492 A  
HETATM   22  C   UNL     1     -12.803  16.052  73.711  1.00  0.00    -0.690 C  
HETATM   23  C   UNL     1     -11.315  14.613  70.515  1.00  0.00    -0.209 A  
HETATM   24  C   UNL     1     -13.329  14.007  72.343  1.00  0.00    -0.617 A  
HETATM   25  C   UNL     1     -12.562  15.165  72.525  1.00  0.00    -0.439 A  
HETATM   26  C   UNL     1     -13.087  13.155  71.259  1.00  0.00    -0.275 A  
ENDBRANCH   2  20
TORSDOF 5
ENDMDL
MODEL       40
REMARK 921   NORMALIZED FREE ENERGY PREDICTED BY IDOCK:   -6.19 KCAL/MOL
REMARK 922        TOTAL FREE ENERGY PREDICTED BY IDOCK:   -9.35 KCAL/MOL
REMARK 923 INTER-LIGAND FREE ENERGY PREDICTED BY IDOCK:   -8.17 KCAL/MOL
REMARK 924 INTRA-LIGAND FREE ENERGY PREDICTED BY IDOCK:   -1.17 KCAL/MOL
REMARK 927      BINDING AFFINITY PREDICTED BY RF-SCORE:    0.00 PKD
ROOT
HETATM    1  C   UNL     1     -10.931  14.666  66.647  1.00  0.00    -0.323 C  
HETATM    2  C   UNL     1     -10.528  14.995  67.897  1.00  0.00    -0.247 C  
ENDROOT
BRANCH   1   3
HETATM    3  C   UNL     1     -12.213  13.990  66.236  1.00  0.00    -0.462 C  
BRANCH   3   4
HETATM    4  N   UNL     1     -11.990  12.849  65.339  1.00  0.00    -0.399 NA 
HETATM    5  C   UNL     1     -10.341  11.182  64.847  1.00  0.00    -0.375 C  
HETATM    6  C   UNL     1     -10.834  11.860  63.583  1.00  0.00    -0.510 C  
HETATM    7  C   UNL     1     -11.145  11.826  65.974  1.00  0.00    -0.312 C  
HETATM    8  C   UNL     1     -11.328  13.205  64.082  1.00  0.00    -0.398 C  
ENDBRANCH   3   4
ENDBRANCH   1   3
BRANCH   2   9
HETATM    9  C   UNL     1      -9.195  15.628  68.019  1.00  0.00    -0.184 A  
HETATM   10  C   UNL     1      -7.003  15.703  68.976  1.00  0.00    -0.145 A  
HETATM   11  C   UNL     1      -7.703  17.240  67.279  1.00  0.00    -0.188 A  
HETATM   12  N   UNL     1      -8.935  16.677  67.202  1.00  0.00    -0.205 NA 
HETATM   13  C   UNL     1      -6.715  16.781  68.144  1.00  0.00    -0.152 A  
HETATM   14  C   UNL     1      -8.263  15.117  68.916  1.00  0.00    -0.181 A  
BRANCH  11  15
HETATM   15  C   UNL     1      -7.433  18.387  66.401  1.00  0.00    -0.278 C  
HETATM   16  C   UNL     1      -6.439  18.392  65.500  1.00  0.00    -0.303 C  
HETATM   17  C   UNL     1      -6.232  19.567  64.639  1.00  0.00    -0.231 C  
HETATM   18  O   UNL     1      -5.186  19.401  63.806  1.00  0.00    -0.190 OA 
HETATM   19  O   UNL     1      -6.918  20.575  64.662  1.00  0.00    -0.207 OA 
ENDBRANCH  11  15
ENDBRANCH   2   9
BRANCH   2  20
HETATM   20  C   UNL     1     -11.372  14.671  69.067  1.00  0.00    -0.299 A  
HETATM   21  C   UNL     1     -12.371  13.020  70.543  1.00  0.00    -0.365 A  
HETATM   22  C   UNL     1     -14.005  13.684  72.348  1.00  0.00    -0.651 C  
HETATM   23  C   UNL     1     -11.529  13.341  69.474  1.00  0.00    -0.299 A  
HETATM   24  C   UNL     1     -12.898  15.356  70.828  1.00  0.00    -0.524 A  
HETATM   25  C   UNL     1     -13.068  14.023  71.224  1.00  0.00    -0.399 A  
HETATM   26  C   UNL     1     -12.054  15.678  69.759  1.00  0.00    -0.346 A  
ENDBRANCH   2  20
TORSDOF 5
ENDMDL
MODEL       41
REMARK 921   NORMALIZED FREE ENERGY PREDICTED BY IDOCK:   -6.17 KCAL/MOL
REMARK 922        TOTAL FREE ENERGY PREDICTED BY IDOCK:   -9.32 KCAL/MOL
REMARK 923 INTER-LIGAND FREE ENERGY PREDICTED BY IDOCK:   -9.11 KCAL/MOL
REMARK 924 INTRA-LIGAND FREE ENERGY PREDICTED BY IDOCK:   -0.21 KCAL/MOL
REMARK 927      BINDING AFFINITY PREDICTED BY RF-SCORE:    0.00 PKD
ROOT
HETATM    1  C   UNL     1     -11.229  11.503  69.199  1.00  0.00    -0.337 C  
HETATM    2  C   UNL     1     -11.518  12.813  69.011  1.00  0.00    -0.360 C  
ENDROOT
BRANCH   1   3
HETATM    3  C   UNL     1     -11.302  10.716  70.480  1.00  0.00    -0.267 C  
BRANCH   3   4
HETATM    4  N   UNL     1     -11.903   9.388  70.297  1.00  0.00    -0.099 NA 
HETATM    5  C   UNL     1     -12.885   7.615  71.573  1.00  0.00    -0.376 C  
HETATM    6  C   UNL     1     -11.842   7.087  70.607  1.00  0.00    -0.377 C  
HETATM    7  C   UNL     1     -12.927   9.119  71.319  1.00  0.00    -0.251 C  
HETATM    8  C   UNL     1     -10.942   8.287  70.380  1.00  0.00    -0.239 C  
ENDBRANCH   3   4
ENDBRANCH   1   3
BRANCH   2   9
HETATM    9  C   UNL     1     -11.326  13.344  67.641  1.00  0.00    -0.290 A  
HETATM   10  C   UNL     1     -11.841  13.317  65.305  1.00  0.00    -0.386 A  
HETATM   11  C   UNL     1     -10.351  14.930  66.260  1.00  0.00    -0.294 A  
HETATM   12  N   UNL     1     -10.505  14.412  67.506  1.00  0.00    -0.252 NA 
HETATM   13  C   UNL     1     -11.003  14.416  65.143  1.00  0.00    -0.380 A  
HETATM   14  C   UNL     1     -12.005  12.769  66.572  1.00  0.00    -0.428 A  
BRANCH  11  15
HETATM   15  C   UNL     1      -9.448  16.079  66.118  1.00  0.00    -0.371 C  
HETATM   16  C   UNL     1      -8.152  16.031  66.464  1.00  0.00    -0.304 C  
HETATM   17  C   UNL     1      -7.297  17.214  66.281  1.00  0.00    -0.291 C  
HETATM   18  O   UNL     1      -6.033  16.988  66.691  1.00  0.00    -0.188 OA 
HETATM   19  O   UNL     1      -7.671  18.277  65.813  1.00  0.00    -0.517 OA 
ENDBRANCH  11  15
ENDBRANCH   2   9
BRANCH   2  20
HETATM   20  C   UNL     1     -11.945  13.658  70.146  1.00  0.00    -0.407 A  
HETATM   21  C   UNL     1     -11.675  15.667  71.486  1.00  0.00    -0.504 A  
HETATM   22  C   UNL     1     -13.028  16.044  73.582  1.00  0.00    -0.673 C  
HETATM   23  C   UNL     1     -11.318  14.888  70.382  1.00  0.00    -0.287 A  
HETATM   24  C   UNL     1     -13.306  14.010  72.127  1.00  0.00    -0.545 A  
HETATM   25  C   UNL     1     -12.666  15.232  72.372  1.00  0.00    -0.449 A  
HETATM   26  C   UNL     1     -12.950  13.230  71.020  1.00  0.00    -0.233 A  
ENDBRANCH   2  20
TORSDOF 5
ENDMDL
MODEL       42
REMARK 921   NORMALIZED FREE ENERGY PREDICTED BY IDOCK:   -6.13 KCAL/MOL
REMARK 922        TOTAL FREE ENERGY PREDICTED BY IDOCK:   -9.26 KCAL/MOL
REMARK 923 INTER-LIGAND FREE ENERGY PREDICTED BY IDOCK:   -8.04 KCAL/MOL
REMARK 924 INTRA-LIGAND FREE ENERGY PREDICTED BY IDOCK:   -1.22 KCAL/MOL
REMARK 927      BINDING AFFINITY PREDICTED BY RF-SCORE:    0.00 PKD
ROOT
HETATM    1  C   UNL     1     -11.557  14.766  68.921  1.00  0.00    -0.340 C  
HETATM    2  C   UNL     1     -10.754  14.856  67.835  1.00  0.00    -0.265 C  
ENDROOT
BRANCH   1   3
HETATM    3  C   UNL     1     -11.822  15.818  69.965  1.00  0.00    -0.354 C  
BRANCH   3   4
HETATM    4  N   UNL     1     -12.748  15.360  71.009  1.00  0.00    -0.415 NA 
HETATM    5  C   UNL     1     -12.758  14.721  73.318  1.00  0.00    -0.596 C  
HETATM    6  C   UNL     1     -13.492  13.707  72.462  1.00  0.00    -0.675 C  
HETATM    7  C   UNL     1     -12.316  15.809  72.342  1.00  0.00    -0.456 C  
HETATM    8  C   UNL     1     -12.879  13.904  71.089  1.00  0.00    -0.351 C  
ENDBRANCH   3   4
ENDBRANCH   1   3
BRANCH   2   9
HETATM    9  C   UNL     1     -10.650  13.647  66.985  1.00  0.00    -0.274 A  
HETATM   10  C   UNL     1     -10.322  12.626  64.847  1.00  0.00    -0.330 A  
HETATM   11  C   UNL     1     -10.575  11.335  66.847  1.00  0.00    -0.257 A  
HETATM   12  N   UNL     1     -10.707  12.448  67.612  1.00  0.00    -0.216 NA 
HETATM   13  C   UNL     1     -10.377  11.383  65.471  1.00  0.00    -0.317 A  
HETATM   14  C   UNL     1     -10.463  13.777  65.613  1.00  0.00    -0.312 A  
BRANCH  11  15
HETATM   15  C   UNL     1     -10.653  10.037  67.531  1.00  0.00    -0.336 C  
HETATM   16  C   UNL     1     -10.216   9.851  68.786  1.00  0.00    -0.205 C  
HETATM   17  C   UNL     1     -10.338   8.529  69.420  1.00  0.00    -0.215 C  
HETATM   18  O   UNL     1      -9.839   8.524  70.672  1.00  0.00    -0.177 OA 
HETATM   19  O   UNL     1     -10.832   7.548  68.890  1.00  0.00    -0.155 OA 
ENDBRANCH  11  15
ENDBRANCH   2   9
BRANCH   2  20
HETATM   20  C   UNL     1      -9.988  16.092  67.568  1.00  0.00    -0.240 A  
HETATM   21  C   UNL     1      -7.965  17.409  67.846  1.00  0.00    -0.218 A  
HETATM   22  C   UNL     1      -7.807  19.777  66.991  1.00  0.00    -0.316 C  
HETATM   23  C   UNL     1      -8.677  16.222  68.042  1.00  0.00    -0.178 A  
HETATM   24  C   UNL     1      -9.856  18.349  66.682  1.00  0.00    -0.362 A  
HETATM   25  C   UNL     1      -8.550  18.485  67.171  1.00  0.00    -0.273 A  
HETATM   26  C   UNL     1     -10.569  17.160  66.877  1.00  0.00    -0.209 A  
ENDBRANCH   2  20
TORSDOF 5
ENDMDL
MODEL       43
REMARK 921   NORMALIZED FREE ENERGY PREDICTED BY IDOCK:   -6.10 KCAL/MOL
REMARK 922        TOTAL FREE ENERGY PREDICTED BY IDOCK:   -9.23 KCAL/MOL
REMARK 923 INTER-LIGAND FREE ENERGY PREDICTED BY IDOCK:   -8.12 KCAL/MOL
REMARK 924 INTRA-LIGAND FREE ENERGY PREDICTED BY IDOCK:   -1.11 KCAL/MOL
REMARK 927      BINDING AFFINITY PREDICTED BY RF-SCORE:    0.00 PKD
ROOT
HETATM    1  C   UNL     1     -12.239  13.175  70.501  1.00  0.00    -0.405 C  
HETATM    2  C   UNL     1     -11.815  12.044  69.888  1.00  0.00    -0.405 C  
ENDROOT
BRANCH   1   3
HETATM    3  C   UNL     1     -12.220  14.580  69.961  1.00  0.00    -0.342 C  
BRANCH   3   4
HETATM    4  N   UNL     1     -12.686  15.570  70.941  1.00  0.00    -0.454 NA 
HETATM    5  C   UNL     1     -12.318  16.233  73.214  1.00  0.00    -0.615 C  
HETATM    6  C   UNL     1     -13.798  16.085  72.915  1.00  0.00    -0.409 C  
HETATM    7  C   UNL     1     -11.620  15.925  71.891  1.00  0.00    -0.449 C  
HETATM    8  C   UNL     1     -13.820  15.116  71.748  1.00  0.00    -0.506 C  
ENDBRANCH   3   4
ENDBRANCH   1   3
BRANCH   2   9
HETATM    9  C   UNL     1     -11.918  10.789  70.668  1.00  0.00    -0.367 A  
HETATM   10  C   UNL     1     -13.019   9.440  72.309  1.00  0.00    -0.479 A  
HETATM   11  C   UNL     1     -11.141   8.640  71.058  1.00  0.00    -0.264 A  
HETATM   12  N   UNL     1     -11.032   9.808  70.375  1.00  0.00    -0.287 NA 
HETATM   13  C   UNL     1     -12.120   8.418  72.022  1.00  0.00    -0.417 A  
HETATM   14  C   UNL     1     -12.918  10.646  71.625  1.00  0.00    -0.582 A  
BRANCH  11  15
HETATM   15  C   UNL     1     -10.167   7.585  70.745  1.00  0.00    -0.194 C  
HETATM   16  C   UNL     1     -10.427   6.590  69.885  1.00  0.00    -0.258 C  
HETATM   17  C   UNL     1      -9.402   5.573  69.603  1.00  0.00    -0.134 C  
HETATM   18  O   UNL     1      -9.840   4.647  68.726  1.00  0.00    -0.167 OA 
HETATM   19  O   UNL     1      -8.285   5.559  70.093  1.00  0.00    -0.098 OA 
ENDBRANCH  11  15
ENDBRANCH   2   9
BRANCH   2  20
HETATM   20  C   UNL     1     -11.229  12.098  68.532  1.00  0.00    -0.307 A  
HETATM   21  C   UNL     1      -9.325  12.521  67.082  1.00  0.00    -0.201 A  
HETATM   22  C   UNL     1      -9.547  12.478  64.570  1.00  0.00     0.178 C  
HETATM   23  C   UNL     1      -9.874  12.409  68.363  1.00  0.00    -0.198 A  
HETATM   24  C   UNL     1     -11.471  11.993  66.117  1.00  0.00    -0.401 A  
HETATM   25  C   UNL     1     -10.120  12.321  65.949  1.00  0.00    -0.272 A  
HETATM   26  C   UNL     1     -12.022  11.880  67.400  1.00  0.00    -0.090 A  
ENDBRANCH   2  20
TORSDOF 5
ENDMDL
MODEL       44
REMARK 921   NORMALIZED FREE ENERGY PREDICTED BY IDOCK:   -6.08 KCAL/MOL
REMARK 922        TOTAL FREE ENERGY PREDICTED BY IDOCK:   -9.20 KCAL/MOL
REMARK 923 INTER-LIGAND FREE ENERGY PREDICTED BY IDOCK:   -8.06 KCAL/MOL
REMARK 924 INTRA-LIGAND FREE ENERGY PREDICTED BY IDOCK:   -1.14 KCAL/MOL
REMARK 927      BINDING AFFINITY PREDICTED BY RF-SCORE:    0.00 PKD
ROOT
HETATM    1  C   UNL     1     -11.366  11.845  65.967  1.00  0.00    -0.375 C  
HETATM    2  C   UNL     1     -11.060  12.633  67.025  1.00  0.00    -0.322 C  
ENDROOT
BRANCH   1   3
HETATM    3  C   UNL     1     -11.092  12.106  64.510  1.00  0.00    -0.325 C  
BRANCH   3   4
HETATM    4  N   UNL     1     -10.303  11.038  63.881  1.00  0.00    -0.362 NA 
HETATM    5  C   UNL     1      -8.536   9.503  64.390  1.00  0.00    -0.191 C  
HETATM    6  C   UNL     1      -8.275  10.231  63.085  1.00  0.00    -0.163 C  
HETATM    7  C   UNL     1      -9.888  10.027  64.866  1.00  0.00    -0.281 C  
HETATM    8  C   UNL     1      -9.076  11.510  63.236  1.00  0.00    -0.034 C  
ENDBRANCH   3   4
ENDBRANCH   1   3
BRANCH   2   9
HETATM    9  C   UNL     1     -11.479  12.144  68.359  1.00  0.00    -0.304 A  
HETATM   10  C   UNL     1     -11.681  10.381  69.963  1.00  0.00    -0.366 A  
HETATM   11  C   UNL     1     -12.326  12.632  70.461  1.00  0.00    -0.268 A  
HETATM   12  N   UNL     1     -11.974  13.063  69.223  1.00  0.00    -0.302 NA 
HETATM   13  C   UNL     1     -12.189  11.309  70.867  1.00  0.00    -0.460 A  
HETATM   14  C   UNL     1     -11.322  10.802  68.688  1.00  0.00    -0.356 A  
BRANCH  11  15
HETATM   15  C   UNL     1     -12.875  13.631  71.388  1.00  0.00    -0.442 C  
HETATM   16  C   UNL     1     -12.202  14.735  71.747  1.00  0.00    -0.416 C  
HETATM   17  C   UNL     1     -12.816  15.705  72.668  1.00  0.00    -0.445 C  
HETATM   18  O   UNL     1     -11.995  16.742  72.925  1.00  0.00    -0.439 OA 
HETATM   19  O   UNL     1     -13.933  15.597  73.146  1.00  0.00    -0.399 OA 
ENDBRANCH  11  15
ENDBRANCH   2   9
BRANCH   2  20
HETATM   20  C   UNL     1     -10.394  13.937  66.822  1.00  0.00    -0.272 A  
HETATM   21  C   UNL     1     -10.529  16.301  66.273  1.00  0.00    -0.314 A  
HETATM   22  C   UNL     1      -8.454  17.711  66.009  1.00  0.00    -0.078 C  
HETATM   23  C   UNL     1     -11.153  15.076  66.524  1.00  0.00    -0.329 A  
HETATM   24  C   UNL     1      -8.376  15.275  66.631  1.00  0.00    -0.216 A  
HETATM   25  C   UNL     1      -9.135  16.409  66.317  1.00  0.00    -0.362 A  
HETATM   26  C   UNL     1      -9.001  14.048  66.884  1.00  0.00    -0.243 A  
ENDBRANCH   2  20
TORSDOF 5
ENDMDL
MODEL       45
REMARK 921   NORMALIZED FREE ENERGY PREDICTED BY IDOCK:   -6.08 KCAL/MOL
REMARK 922        TOTAL FREE ENERGY PREDICTED BY IDOCK:   -9.20 KCAL/MOL
REMARK 923 INTER-LIGAND FREE ENERGY PREDICTED BY IDOCK:   -8.05 KCAL/MOL
REMARK 924 INTRA-LIGAND FREE ENERGY PREDICTED BY IDOCK:   -1.15 KCAL/MOL
REMARK 927      BINDING AFFINITY PREDICTED BY RF-SCORE:    0.00 PKD
ROOT
HETATM    1  C   UNL     1     -11.441  11.183  68.614  1.00  0.00    -0.363 C  
HETATM    2  C   UNL     1     -10.526  10.470  67.915  1.00  0.00    -0.247 C  
ENDROOT
BRANCH   1   3
HETATM    3  C   UNL     1     -11.872  10.983  70.043  1.00  0.00    -0.355 C  
BRANCH   3   4
HETATM    4  N   UNL     1     -12.867  11.973  70.479  1.00  0.00     0.034 NA 
HETATM    5  C   UNL     1     -13.018  14.271  71.136  1.00  0.00    -0.423 C  
HETATM    6  C   UNL     1     -13.738  13.368  72.119  1.00  0.00    -0.646 C  
HETATM    7  C   UNL     1     -12.492  13.331  70.055  1.00  0.00    -0.100 C  
HETATM    8  C   UNL     1     -13.047  12.031  71.931  1.00  0.00    -0.370 C  
ENDBRANCH   3   4
ENDBRANCH   1   3
BRANCH   2   9
HETATM    9  C   UNL     1     -10.319  10.863  66.502  1.00  0.00    -0.247 A  
HETATM   10  C   UNL     1      -9.736  10.308  64.249  1.00  0.00    -0.373 A  
HETATM   11  C   UNL     1     -10.459  12.504  64.871  1.00  0.00    -0.303 A  
HETATM   12  N   UNL     1     -10.610  12.144  66.171  1.00  0.00    -0.248 NA 
HETATM   13  C   UNL     1     -10.033  11.619  63.886  1.00  0.00    -0.358 A  
HETATM   14  C   UNL     1      -9.878   9.922  65.577  1.00  0.00    -0.381 A  
BRANCH  11  15
HETATM   15  C   UNL     1     -10.763  13.898  64.522  1.00  0.00    -0.382 C  
HETATM   16  C   UNL     1     -10.346  14.939  65.258  1.00  0.00    -0.424 C  
HETATM   17  C   UNL     1     -10.671  16.313  64.844  1.00  0.00    -0.234 C  
HETATM   18  O   UNL     1     -10.182  17.226  65.705  1.00  0.00    -0.533 OA 
HETATM   19  O   UNL     1     -11.304  16.605  63.843  1.00  0.00    -1.104 OA 
ENDBRANCH  11  15
ENDBRANCH   2   9
BRANCH   2  20
HETATM   20  C   UNL     1      -9.829   9.325  68.539  1.00  0.00    -0.173 A  
HETATM   21  C   UNL     1      -7.857   8.402  69.618  1.00  0.00    -0.100 A  
HETATM   22  C   UNL     1      -7.686   5.947  70.172  1.00  0.00    -0.095 C  
HETATM   23  C   UNL     1      -8.547   9.491  69.078  1.00  0.00    -0.133 A  
HETATM   24  C   UNL     1      -9.726   6.966  69.107  1.00  0.00    -0.155 A  
HETATM   25  C   UNL     1      -8.437   7.129  69.630  1.00  0.00    -0.134 A  
HETATM   26  C   UNL     1     -10.418   8.056  68.567  1.00  0.00    -0.200 A  
ENDBRANCH   2  20
TORSDOF 5
ENDMDL
MODEL       46
REMARK 921   NORMALIZED FREE ENERGY PREDICTED BY IDOCK:   -6.07 KCAL/MOL
REMARK 922        TOTAL FREE ENERGY PREDICTED BY IDOCK:   -9.19 KCAL/MOL
REMARK 923 INTER-LIGAND FREE ENERGY PREDICTED BY IDOCK:   -7.80 KCAL/MOL
REMARK 924 INTRA-LIGAND FREE ENERGY PREDICTED BY IDOCK:   -1.39 KCAL/MOL
REMARK 927      BINDING AFFINITY PREDICTED BY RF-SCORE:    0.00 PKD
ROOT
HETATM    1  C   UNL     1     -10.301   9.289  70.227  1.00  0.00    -0.272 C  
HETATM    2  C   UNL     1      -9.832   8.477  69.251  1.00  0.00    -0.185 C  
ENDROOT
BRANCH   1   3
HETATM    3  C   UNL     1     -10.482   8.971  71.687  1.00  0.00    -0.355 C  
BRANCH   3   4
HETATM    4  N   UNL     1     -11.891   8.788  72.058  1.00  0.00    -0.356 NA 
HETATM    5  C   UNL     1     -13.789   7.440  71.491  1.00  0.00    -0.483 C  
HETATM    6  C   UNL     1     -14.149   8.914  71.525  1.00  0.00    -0.344 C  
HETATM    7  C   UNL     1     -12.314   7.390  71.881  1.00  0.00    -0.310 C  
HETATM    8  C   UNL     1     -12.821   9.601  71.270  1.00  0.00    -0.350 C  
ENDBRANCH   3   4
ENDBRANCH   1   3
BRANCH   2   9
HETATM    9  C   UNL     1      -9.790   9.041  67.882  1.00  0.00    -0.171 A  
HETATM   10  C   UNL     1      -8.999   8.976  65.625  1.00  0.00    -0.249 A  
HETATM   11  C   UNL     1     -10.586  10.606  66.369  1.00  0.00    -0.175 A  
HETATM   12  N   UNL     1     -10.589  10.105  67.631  1.00  0.00    -0.245 NA 
HETATM   13  C   UNL     1      -9.814  10.068  65.345  1.00  0.00    -0.384 A  
HETATM   14  C   UNL     1      -8.982   8.454  66.913  1.00  0.00    -0.168 A  
BRANCH  11  15
HETATM   15  C   UNL     1     -11.444  11.770  66.107  1.00  0.00    -0.288 C  
HETATM   16  C   UNL     1     -11.612  12.286  64.881  1.00  0.00    -0.395 C  
HETATM   17  C   UNL     1     -12.499  13.444  64.683  1.00  0.00    -0.331 C  
HETATM   18  O   UNL     1     -12.538  13.832  63.394  1.00  0.00    -0.842 OA 
HETATM   19  O   UNL     1     -13.131  13.993  65.570  1.00  0.00    -0.713 OA 
ENDBRANCH  11  15
ENDBRANCH   2   9
BRANCH   2  20
HETATM   20  C   UNL     1      -9.444   7.083  69.556  1.00  0.00    -0.147 A  
HETATM   21  C   UNL     1     -10.012   4.724  69.679  1.00  0.00    -0.297 A  
HETATM   22  C   UNL     1      -8.410   3.031  70.644  1.00  0.00    -0.085 C  
HETATM   23  C   UNL     1     -10.349   6.037  69.339  1.00  0.00    -0.298 A  
HETATM   24  C   UNL     1      -7.851   5.476  70.441  1.00  0.00    -0.101 A  
HETATM   25  C   UNL     1      -8.764   4.433  70.240  1.00  0.00    -0.119 A  
HETATM   26  C   UNL     1      -8.187   6.792  70.099  1.00  0.00    -0.133 A  
ENDBRANCH   2  20
TORSDOF 5
ENDMDL
MODEL       47
REMARK 921   NORMALIZED FREE ENERGY PREDICTED BY IDOCK:   -6.07 KCAL/MOL
REMARK 922        TOTAL FREE ENERGY PREDICTED BY IDOCK:   -9.19 KCAL/MOL
REMARK 923 INTER-LIGAND FREE ENERGY PREDICTED BY IDOCK:   -8.28 KCAL/MOL
REMARK 924 INTRA-LIGAND FREE ENERGY PREDICTED BY IDOCK:   -0.90 KCAL/MOL
REMARK 927      BINDING AFFINITY PREDICTED BY RF-SCORE:    0.00 PKD
ROOT
HETATM    1  C   UNL     1     -10.958  11.223  67.451  1.00  0.00    -0.337 C  
HETATM    2  C   UNL     1     -11.115  11.917  68.603  1.00  0.00    -0.295 C  
ENDROOT
BRANCH   1   3
HETATM    3  C   UNL     1     -10.510  11.744  66.111  1.00  0.00    -0.245 C  
BRANCH   3   4
HETATM    4  N   UNL     1     -11.544  12.540  65.438  1.00  0.00    -0.357 NA 
HETATM    5  C   UNL     1     -12.310  13.087  63.235  1.00  0.00    -0.392 C  
HETATM    6  C   UNL     1     -12.151  14.331  64.088  1.00  0.00    -0.423 C  
HETATM    7  C   UNL     1     -11.941  11.930  64.159  1.00  0.00    -0.307 C  
HETATM    8  C   UNL     1     -11.129  13.910  65.127  1.00  0.00    -0.334 C  
ENDBRANCH   3   4
ENDBRANCH   1   3
BRANCH   2   9
HETATM    9  C   UNL     1     -11.604  11.155  69.775  1.00  0.00    -0.334 A  
HETATM   10  C   UNL     1     -12.953  11.000  71.745  1.00  0.00    -0.544 A  
HETATM   11  C   UNL     1     -11.668   9.149  70.936  1.00  0.00    -0.284 A  
HETATM   12  N   UNL     1     -11.196   9.868  69.886  1.00  0.00    -0.251 NA 
HETATM   13  C   UNL     1     -12.548   9.676  71.877  1.00  0.00    -0.481 A  
HETATM   14  C   UNL     1     -12.473  11.755  70.680  1.00  0.00    -0.364 A  
BRANCH  11  15
HETATM   15  C   UNL     1     -11.210   7.759  71.058  1.00  0.00    -0.282 C  
HETATM   16  C   UNL     1     -11.581   6.959  72.069  1.00  0.00    -0.322 C  
HETATM   17  C   UNL     1     -11.098   5.570  72.125  1.00  0.00    -0.210 C  
HETATM   18  O   UNL     1     -11.561   4.921  73.211  1.00  0.00    -0.336 OA 
HETATM   19  O   UNL     1     -10.370   5.054  71.293  1.00  0.00    -0.217 OA 
ENDBRANCH  11  15
ENDBRANCH   2   9
BRANCH   2  20
HETATM   20  C   UNL     1     -10.859  13.372  68.643  1.00  0.00    -0.287 A  
HETATM   21  C   UNL     1     -11.699  15.653  68.632  1.00  0.00    -0.364 A  
HETATM   22  C   UNL     1     -10.136  17.631  68.540  1.00  0.00    -0.375 C  
HETATM   23  C   UNL     1     -11.930  14.274  68.653  1.00  0.00    -0.348 A  
HETATM   24  C   UNL     1      -9.321  15.252  68.610  1.00  0.00    -0.201 A  
HETATM   25  C   UNL     1     -10.393  16.153  68.603  1.00  0.00    -0.252 A  
HETATM   26  C   UNL     1      -9.552  13.871  68.633  1.00  0.00    -0.142 A  
ENDBRANCH   2  20
TORSDOF 5
ENDMDL
MODEL       48
REMARK 921   NORMALIZED FREE ENERGY PREDICTED BY IDOCK:   -6.07 KCAL/MOL
REMARK 922        TOTAL FREE ENERGY PREDICTED BY IDOCK:   -9.19 KCAL/MOL
REMARK 923 INTER-LIGAND FREE ENERGY PREDICTED BY IDOCK:   -7.90 KCAL/MOL
REMARK 924 INTRA-LIGAND FREE ENERGY PREDICTED BY IDOCK:   -1.29 KCAL/MOL
REMARK 927      BINDING AFFINITY PREDICTED BY RF-SCORE:    0.00 PKD
ROOT
HETATM    1  C   UNL     1     -10.244   9.740  67.963  1.00  0.00    -0.229 C  
HETATM    2  C   UNL     1     -10.525   8.543  68.531  1.00  0.00    -0.205 C  
ENDROOT
BRANCH   1   3
HETATM    3  C   UNL     1      -9.551  10.000  66.652  1.00  0.00    -0.186 C  
BRANCH   3   4
HETATM    4  N   UNL     1      -9.993  11.248  66.014  1.00  0.00    -0.222 NA 
HETATM    5  C   UNL     1     -11.966  12.575  65.726  1.00  0.00    -0.482 C  
HETATM    6  C   UNL     1     -11.252  12.354  64.406  1.00  0.00    -0.384 C  
HETATM    7  C   UNL     1     -11.096  11.870  66.763  1.00  0.00    -0.308 C  
HETATM    8  C   UNL     1     -10.475  11.073  64.643  1.00  0.00    -0.329 C  
ENDBRANCH   3   4
ENDBRANCH   1   3
BRANCH   2   9
HETATM    9  C   UNL     1     -11.191   8.577  69.854  1.00  0.00    -0.032 A  
HETATM   10  C   UNL     1     -11.795   7.515  71.911  1.00  0.00    -0.331 A  
HETATM   11  C   UNL     1     -12.314   9.809  71.464  1.00  0.00    -0.405 A  
HETATM   12  N   UNL     1     -11.735   9.757  70.238  1.00  0.00    -0.228 NA 
HETATM   13  C   UNL     1     -12.359   8.718  72.326  1.00  0.00    -0.448 A  
HETATM   14  C   UNL     1     -11.204   7.440  70.655  1.00  0.00    -0.292 A  
BRANCH  11  15
HETATM   15  C   UNL     1     -12.916  11.087  71.869  1.00  0.00    -0.485 C  
HETATM   16  C   UNL     1     -12.574  12.258  71.311  1.00  0.00    -0.336 C  
HETATM   17  C   UNL     1     -13.226  13.502  71.751  1.00  0.00    -0.404 C  
HETATM   18  O   UNL     1     -12.752  14.578  71.092  1.00  0.00    -0.299 OA 
HETATM   19  O   UNL     1     -14.095  13.566  72.605  1.00  0.00    -0.762 OA 
ENDBRANCH  11  15
ENDBRANCH   2   9
BRANCH   2  20
HETATM   20  C   UNL     1     -10.124   7.284  67.868  1.00  0.00    -0.217 A  
HETATM   21  C   UNL     1     -10.682   5.374  66.474  1.00  0.00    -0.309 A  
HETATM   22  C   UNL     1      -9.043   3.493  66.099  1.00  0.00    -0.159 C  
HETATM   23  C   UNL     1     -11.033   6.595  67.057  1.00  0.00    -0.463 A  
HETATM   24  C   UNL     1      -8.498   5.520  67.487  1.00  0.00    -0.106 A  
HETATM   25  C   UNL     1      -9.414   4.823  66.689  1.00  0.00    -0.161 A  
HETATM   26  C   UNL     1      -8.849   6.744  68.070  1.00  0.00    -0.119 A  
ENDBRANCH   2  20
TORSDOF 5
ENDMDL
MODEL       49
REMARK 921   NORMALIZED FREE ENERGY PREDICTED BY IDOCK:   -6.05 KCAL/MOL
REMARK 922        TOTAL FREE ENERGY PREDICTED BY IDOCK:   -9.16 KCAL/MOL
REMARK 923 INTER-LIGAND FREE ENERGY PREDICTED BY IDOCK:   -8.04 KCAL/MOL
REMARK 924 INTRA-LIGAND FREE ENERGY PREDICTED BY IDOCK:   -1.13 KCAL/MOL
REMARK 927      BINDING AFFINITY PREDICTED BY RF-SCORE:    0.00 PKD
ROOT
HETATM    1  C   UNL     1     -10.897  15.425  67.487  1.00  0.00    -0.305 C  
HETATM    2  C   UNL     1     -11.260  14.513  68.420  1.00  0.00    -0.290 C  
ENDROOT
BRANCH   1   3
HETATM    3  C   UNL     1     -10.896  16.925  67.613  1.00  0.00    -0.244 C  
BRANCH   3   4
HETATM    4  N   UNL     1      -9.852  17.563  66.800  1.00  0.00    -0.292 NA 
HETATM    5  C   UNL     1      -7.576  17.233  66.128  1.00  0.00    -0.318 C  
HETATM    6  C   UNL     1      -7.803  18.645  66.636  1.00  0.00    -0.271 C  
HETATM    7  C   UNL     1      -8.945  16.563  66.214  1.00  0.00    -0.324 C  
HETATM    8  C   UNL     1      -9.007  18.496  67.547  1.00  0.00    -0.276 C  
ENDBRANCH   3   4
ENDBRANCH   1   3
BRANCH   2   9
HETATM    9  C   UNL     1     -11.195  13.089  68.015  1.00  0.00    -0.278 A  
HETATM   10  C   UNL     1     -10.733  11.408  66.377  1.00  0.00    -0.325 A  
HETATM   11  C   UNL     1     -11.374  10.858  68.617  1.00  0.00    -0.295 A  
HETATM   12  N   UNL     1     -11.467  12.166  68.968  1.00  0.00    -0.274 NA 
HETATM   13  C   UNL     1     -11.006  10.442  67.341  1.00  0.00    -0.335 A  
HETATM   14  C   UNL     1     -10.830  12.753  66.716  1.00  0.00    -0.289 A  
BRANCH  11  15
HETATM   15  C   UNL     1     -11.685   9.862  69.652  1.00  0.00    -0.026 C  
HETATM   16  C   UNL     1     -10.885   9.635  70.704  1.00  0.00    -0.386 C  
HETATM   17  C   UNL     1     -11.262   8.634  71.714  1.00  0.00    -0.326 C  
HETATM   18  O   UNL     1     -10.338   8.532  72.690  1.00  0.00    -0.297 OA 
HETATM   19  O   UNL     1     -12.286   7.972  71.687  1.00  0.00    -0.294 OA 
ENDBRANCH  11  15
ENDBRANCH   2   9
BRANCH   2  20
HETATM   20  C   UNL     1     -11.747  14.947  69.745  1.00  0.00    -0.344 A  
HETATM   21  C   UNL     1     -11.293  15.571  72.050  1.00  0.00    -0.445 A  
HETATM   22  C   UNL     1     -13.160  16.008  73.689  1.00  0.00    -0.609 C  
HETATM   23  C   UNL     1     -10.838  15.216  70.776  1.00  0.00    -0.193 A  
HETATM   24  C   UNL     1     -13.572  15.414  71.279  1.00  0.00    -0.585 A  
HETATM   25  C   UNL     1     -12.663  15.666  72.314  1.00  0.00    -0.513 A  
HETATM   26  C   UNL     1     -13.118  15.060  70.003  1.00  0.00     0.094 A  
ENDBRANCH   2  20
TORSDOF 5
ENDMDL
MODEL       50
REMARK 921   NORMALIZED FREE ENERGY PREDICTED BY IDOCK:   -6.05 KCAL/MOL
REMARK 922        TOTAL FREE ENERGY PREDICTED BY IDOCK:   -9.16 KCAL/MOL
REMARK 923 INTER-LIGAND FREE ENERGY PREDICTED BY IDOCK:   -8.07 KCAL/MOL
REMARK 924 INTRA-LIGAND FREE ENERGY PREDICTED BY IDOCK:   -1.09 KCAL/MOL
REMARK 927      BINDING AFFINITY PREDICTED BY RF-SCORE:    0.00 PKD
ROOT
HETATM    1  C   UNL     1      -9.918   9.932  66.185  1.00  0.00    -0.331 C  
HETATM    2  C   UNL     1     -10.477  10.886  66.967  1.00  0.00    -0.291 C  
ENDROOT
BRANCH   1   3
HETATM    3  C   UNL     1      -9.466  10.057  64.754  1.00  0.00    -0.304 C  
BRANCH   3   4
HETATM    4  N   UNL     1      -8.126   9.496  64.532  1.00  0.00    -0.132 NA 
HETATM    5  C   UNL     1      -6.843   8.400  62.832  1.00  0.00    -0.090 C  
HETATM    6  C   UNL     1      -6.742   7.668  64.157  1.00  0.00    -0.053 C  
HETATM    7  C   UNL     1      -7.725   9.611  63.121  1.00  0.00    -0.128 C  
HETATM    8  C   UNL     1      -8.014   8.077  64.876  1.00  0.00    -0.138 C  
ENDBRANCH   3   4
ENDBRANCH   1   3
BRANCH   2   9
HETATM    9  C   UNL     1     -10.861  10.478  68.338  1.00  0.00    -0.240 A  
HETATM   10  C   UNL     1     -10.769   8.921  70.152  1.00  0.00    -0.245 A  
HETATM   11  C   UNL     1     -11.927  11.009  70.327  1.00  0.00    -0.365 A  
HETATM   12  N   UNL     1     -11.601  11.357  69.056  1.00  0.00    -0.286 NA 
HETATM   13  C   UNL     1     -11.527   9.810  70.908  1.00  0.00    -0.447 A  
HETATM   14  C   UNL     1     -10.432   9.257  68.845  1.00  0.00    -0.235 A  
BRANCH  11  15
HETATM   15  C   UNL     1     -12.743  11.960  71.095  1.00  0.00    -0.384 C  
HETATM   16  C   UNL     1     -12.605  13.290  70.982  1.00  0.00    -0.408 C  
HETATM   17  C   UNL     1     -13.464  14.189  71.769  1.00  0.00    -0.390 C  
HETATM   18  O   UNL     1     -13.179  15.485  71.538  1.00  0.00    -0.458 OA 
HETATM   19  O   UNL     1     -14.336  13.819  72.538  1.00  0.00    -0.696 OA 
ENDBRANCH  11  15
ENDBRANCH   2   9
BRANCH   2  20
HETATM   20  C   UNL     1     -10.732  12.240  66.432  1.00  0.00    -0.284 A  
HETATM   21  C   UNL     1     -12.155  13.778  65.201  1.00  0.00    -0.416 A  
HETATM   22  C   UNL     1     -11.407  16.128  64.671  1.00  0.00    -0.287 C  
HETATM   23  C   UNL     1     -11.930  12.517  65.761  1.00  0.00    -0.482 A  
HETATM   24  C   UNL     1      -9.998  14.513  65.989  1.00  0.00    -0.343 A  
HETATM   25  C   UNL     1     -11.189  14.784  65.304  1.00  0.00    -0.366 A  
HETATM   26  C   UNL     1      -9.772  13.251  66.552  1.00  0.00    -0.273 A  
ENDBRANCH   2  20
TORSDOF 5
ENDMDL
MODEL       51
REMARK 921   NORMALIZED FREE ENERGY PREDICTED BY IDOCK:   -6.04 KCAL/MOL
REMARK 922        TOTAL FREE ENERGY PREDICTED BY IDOCK:   -9.14 KCAL/MOL
REMARK 923 INTER-LIGAND FREE ENERGY PREDICTED BY IDOCK:   -7.98 KCAL/MOL
REMARK 924 INTRA-LIGAND FREE ENERGY PREDICTED BY IDOCK:   -1.16 KCAL/MOL
REMARK 927      BINDING AFFINITY PREDICTED BY RF-SCORE:    0.00 PKD
ROOT
HETATM    1  C   UNL     1     -11.738  11.546  68.041  1.00  0.00    -0.343 C  
HETATM    2  C   UNL     1     -11.001  11.355  66.921  1.00  0.00    -0.355 C  
ENDROOT
BRANCH   1   3
HETATM    3  C   UNL     1     -11.670  10.779  69.335  1.00  0.00    -0.306 C  
BRANCH   3   4
HETATM    4  N   UNL     1     -11.838  11.638  70.514  1.00  0.00    -0.309 NA 
HETATM    5  C   UNL     1     -13.529  12.344  72.058  1.00  0.00    -0.460 C  
HETATM    6  C   UNL     1     -12.744  13.526  71.521  1.00  0.00    -0.412 C  
HETATM    7  C   UNL     1     -12.886  11.122  71.408  1.00  0.00    -0.439 C  
HETATM    8  C   UNL     1     -12.216  13.016  70.193  1.00  0.00    -0.272 C  
ENDBRANCH   3   4
ENDBRANCH   1   3
BRANCH   2   9
HETATM    9  C   UNL     1     -11.300  12.240  65.772  1.00  0.00    -0.355 A  
HETATM   10  C   UNL     1     -12.142  12.565  63.556  1.00  0.00    -0.653 A  
HETATM   11  C   UNL     1     -11.376  14.388  64.904  1.00  0.00    -0.380 A  
HETATM   12  N   UNL     1     -11.070  13.564  65.939  1.00  0.00    -0.284 NA 
HETATM   13  C   UNL     1     -11.915  13.929  63.707  1.00  0.00    -0.305 A  
HETATM   14  C   UNL     1     -11.828  11.704  64.602  1.00  0.00    -0.101 A  
BRANCH  11  15
HETATM   15  C   UNL     1     -11.110  15.822  65.087  1.00  0.00    -0.332 C  
HETATM   16  C   UNL     1     -10.671  16.336  66.246  1.00  0.00    -0.185 C  
HETATM   17  C   UNL     1     -10.409  17.779  66.358  1.00  0.00    -0.351 C  
HETATM   18  O   UNL     1      -9.986  18.118  67.592  1.00  0.00    -0.310 OA 
HETATM   19  O   UNL     1     -10.549  18.584  65.452  1.00  0.00    -0.589 OA 
ENDBRANCH  11  15
ENDBRANCH   2   9
BRANCH   2  20
HETATM   20  C   UNL     1      -9.998  10.271  66.859  1.00  0.00    -0.259 A  
HETATM   21  C   UNL     1      -7.675   9.558  66.860  1.00  0.00    -0.098 A  
HETATM   22  C   UNL     1      -7.037   7.150  66.462  1.00  0.00    -0.078 C  
HETATM   23  C   UNL     1      -8.634  10.568  66.976  1.00  0.00    -0.127 A  
HETATM   24  C   UNL     1      -9.427   7.934  66.527  1.00  0.00    -0.277 A  
HETATM   25  C   UNL     1      -8.062   8.234  66.627  1.00  0.00    -0.102 A  
HETATM   26  C   UNL     1     -10.388   8.945  66.645  1.00  0.00    -0.294 A  
ENDBRANCH   2  20
TORSDOF 5
ENDMDL
MODEL       52
REMARK 921   NORMALIZED FREE ENERGY PREDICTED BY IDOCK:   -6.02 KCAL/MOL
REMARK 922        TOTAL FREE ENERGY PREDICTED BY IDOCK:   -9.13 KCAL/MOL
REMARK 923 INTER-LIGAND FREE ENERGY PREDICTED BY IDOCK:   -8.10 KCAL/MOL
REMARK 924 INTRA-LIGAND FREE ENERGY PREDICTED BY IDOCK:   -1.02 KCAL/MOL
REMARK 927      BINDING AFFINITY PREDICTED BY RF-SCORE:    0.00 PKD
ROOT
HETATM    1  C   UNL     1     -10.776  16.492  67.515  1.00  0.00    -0.283 C  
HETATM    2  C   UNL     1     -11.291  15.409  68.144  1.00  0.00    -0.353 C  
ENDROOT
BRANCH   1   3
HETATM    3  C   UNL     1     -10.506  17.855  68.093  1.00  0.00    -0.372 C  
BRANCH   3   4
HETATM    4  N   UNL     1      -9.154  18.343  67.789  1.00  0.00    -0.274 NA 
HETATM    5  C   UNL     1      -7.992  19.668  66.167  1.00  0.00    -0.352 C  
HETATM    6  C   UNL     1      -7.275  18.356  66.423  1.00  0.00    -0.276 C  
HETATM    7  C   UNL     1      -9.197  19.644  67.104  1.00  0.00    -0.332 C  
HETATM    8  C   UNL     1      -8.383  17.448  66.923  1.00  0.00    -0.235 C  
ENDBRANCH   3   4
ENDBRANCH   1   3
BRANCH   2   9
HETATM    9  C   UNL     1     -11.485  14.193  67.320  1.00  0.00    -0.350 A  
HETATM   10  C   UNL     1     -12.397  13.105  65.394  1.00  0.00    -0.532 A  
HETATM   11  C   UNL     1     -10.982  11.961  66.950  1.00  0.00    -0.289 A  
HETATM   12  N   UNL     1     -10.841  13.071  67.719  1.00  0.00    -0.235 NA 
HETATM   13  C   UNL     1     -11.742  11.941  65.785  1.00  0.00    -0.210 A  
HETATM   14  C   UNL     1     -12.270  14.250  66.173  1.00  0.00    -0.430 A  
BRANCH  11  15
HETATM   15  C   UNL     1     -10.292  10.743  67.397  1.00  0.00    -0.251 C  
HETATM   16  C   UNL     1     -10.856   9.527  67.339  1.00  0.00    -0.215 C  
HETATM   17  C   UNL     1     -10.105   8.345  67.788  1.00  0.00    -0.207 C  
HETATM   18  O   UNL     1     -10.829   7.215  67.669  1.00  0.00    -0.237 OA 
HETATM   19  O   UNL     1      -8.962   8.369  68.215  1.00  0.00    -0.139 OA 
ENDBRANCH  11  15
ENDBRANCH   2   9
BRANCH   2  20
HETATM   20  C   UNL     1     -11.685  15.484  69.566  1.00  0.00    -0.380 A  
HETATM   21  C   UNL     1     -11.068  15.555  71.916  1.00  0.00    -0.205 A  
HETATM   22  C   UNL     1     -12.811  15.483  73.738  1.00  0.00    -0.680 C  
HETATM   23  C   UNL     1     -10.706  15.543  70.565  1.00  0.00    -0.309 A  
HETATM   24  C   UNL     1     -13.396  15.468  71.291  1.00  0.00    -0.588 A  
HETATM   25  C   UNL     1     -12.415  15.511  72.290  1.00  0.00    -0.477 A  
HETATM   26  C   UNL     1     -13.034  15.458  69.938  1.00  0.00     0.111 A  
ENDBRANCH   2  20
TORSDOF 5
ENDMDL
MODEL       53
REMARK 921   NORMALIZED FREE ENERGY PREDICTED BY IDOCK:   -5.99 KCAL/MOL
REMARK 922        TOTAL FREE ENERGY PREDICTED BY IDOCK:   -9.08 KCAL/MOL
REMARK 923 INTER-LIGAND FREE ENERGY PREDICTED BY IDOCK:   -7.92 KCAL/MOL
REMARK 924 INTRA-LIGAND FREE ENERGY PREDICTED BY IDOCK:   -1.16 KCAL/MOL
REMARK 927      BINDING AFFINITY PREDICTED BY RF-SCORE:    0.00 PKD
ROOT
HETATM    1  C   UNL     1     -10.054   9.293  67.999  1.00  0.00    -0.234 C  
HETATM    2  C   UNL     1      -9.683   8.473  66.987  1.00  0.00    -0.266 C  
ENDROOT
BRANCH   1   3
HETATM    3  C   UNL     1     -10.373   8.919  69.422  1.00  0.00    -0.213 C  
BRANCH   3   4
HETATM    4  N   UNL     1     -11.656   9.469  69.879  1.00  0.00    -0.067 NA 
HETATM    5  C   UNL     1     -12.569  11.454  70.862  1.00  0.00    -0.453 C  
HETATM    6  C   UNL     1     -13.036  10.211  71.594  1.00  0.00    -0.561 C  
HETATM    7  C   UNL     1     -11.698  10.932  69.722  1.00  0.00    -0.338 C  
HETATM    8  C   UNL     1     -11.947   9.199  71.288  1.00  0.00    -0.325 C  
ENDBRANCH   3   4
ENDBRANCH   1   3
BRANCH   2   9
HETATM    9  C   UNL     1      -9.461   9.107  65.667  1.00  0.00    -0.240 A  
HETATM   10  C   UNL     1      -8.358   9.171  63.545  1.00  0.00    -0.188 A  
HETATM   11  C   UNL     1     -10.072  10.735  64.134  1.00  0.00    -0.353 A  
HETATM   12  N   UNL     1     -10.241  10.170  65.356  1.00  0.00    -0.272 NA 
HETATM   13  C   UNL     1      -9.150  10.263  63.205  1.00  0.00    -0.287 A  
HETATM   14  C   UNL     1      -8.512   8.584  64.796  1.00  0.00    -0.146 A  
BRANCH  11  15
HETATM   15  C   UNL     1     -10.911  11.897  63.809  1.00  0.00    -0.494 C  
HETATM   16  C   UNL     1     -11.654  12.534  64.727  1.00  0.00    -0.387 C  
HETATM   17  C   UNL     1     -12.461  13.701  64.339  1.00  0.00    -0.264 C  
HETATM   18  O   UNL     1     -13.149  14.205  65.383  1.00  0.00    -0.743 OA 
HETATM   19  O   UNL     1     -12.509  14.170  63.214  1.00  0.00    -0.758 OA 
ENDBRANCH  11  15
ENDBRANCH   2   9
BRANCH   2  20
HETATM   20  C   UNL     1      -9.571   7.015  67.205  1.00  0.00    -0.187 A  
HETATM   21  C   UNL     1     -10.530   4.788  67.043  1.00  0.00    -0.104 A  
HETATM   22  C   UNL     1      -9.364   2.778  68.027  1.00  0.00    -0.257 C  
HETATM   23  C   UNL     1     -10.600   6.161  66.789  1.00  0.00    -0.351 A  
HETATM   24  C   UNL     1      -8.392   5.097  68.116  1.00  0.00    -0.097 A  
HETATM   25  C   UNL     1      -9.429   4.245  67.715  1.00  0.00    -0.215 A  
HETATM   26  C   UNL     1      -8.461   6.472  67.860  1.00  0.00    -0.118 A  
ENDBRANCH   2  20
TORSDOF 5
ENDMDL
MODEL       54
REMARK 921   NORMALIZED FREE ENERGY PREDICTED BY IDOCK:   -5.97 KCAL/MOL
REMARK 922        TOTAL FREE ENERGY PREDICTED BY IDOCK:   -9.05 KCAL/MOL
REMARK 923 INTER-LIGAND FREE ENERGY PREDICTED BY IDOCK:   -7.77 KCAL/MOL
REMARK 924 INTRA-LIGAND FREE ENERGY PREDICTED BY IDOCK:   -1.28 KCAL/MOL
REMARK 927      BINDING AFFINITY PREDICTED BY RF-SCORE:    0.00 PKD
ROOT
HETATM    1  C   UNL     1      -8.482  13.236  68.119  1.00  0.00    -0.173 C  
HETATM    2  C   UNL     1      -9.373  12.240  67.905  1.00  0.00    -0.190 C  
ENDROOT
BRANCH   1   3
HETATM    3  C   UNL     1      -8.216  14.440  67.255  1.00  0.00    -0.203 C  
BRANCH   3   4
HETATM    4  N   UNL     1      -8.791  15.674  67.809  1.00  0.00    -0.170 NA 
HETATM    5  C   UNL     1     -10.616  16.409  69.175  1.00  0.00    -0.308 C  
HETATM    6  C   UNL     1     -10.513  17.230  67.903  1.00  0.00    -0.382 C  
HETATM    7  C   UNL     1      -9.453  15.424  69.099  1.00  0.00    -0.242 C  
HETATM    8  C   UNL     1      -9.797  16.297  66.945  1.00  0.00    -0.247 C  
ENDBRANCH   3   4
ENDBRANCH   1   3
BRANCH   2   9
HETATM    9  C   UNL     1      -9.403  11.150  68.908  1.00  0.00    -0.106 A  
HETATM   10  C   UNL     1      -8.303   9.418  70.137  1.00  0.00    -0.197 A  
HETATM   11  C   UNL     1     -10.596   9.988  70.520  1.00  0.00    -0.246 A  
HETATM   12  N   UNL     1     -10.568  10.959  69.572  1.00  0.00    -0.211 NA 
HETATM   13  C   UNL     1      -9.489   9.205  70.833  1.00  0.00    -0.343 A  
HETATM   14  C   UNL     1      -8.257  10.403  69.157  1.00  0.00    -0.157 A  
BRANCH  11  15
HETATM   15  C   UNL     1     -11.867   9.776  71.227  1.00  0.00    -0.481 C  
HETATM   16  C   UNL     1     -12.511   8.599  71.224  1.00  0.00    -0.284 C  
HETATM   17  C   UNL     1     -13.773   8.448  71.965  1.00  0.00    -0.374 C  
HETATM   18  O   UNL     1     -14.283   7.207  71.842  1.00  0.00    -0.368 OA 
HETATM   19  O   UNL     1     -14.303   9.330  72.620  1.00  0.00    -0.497 OA 
ENDBRANCH  11  15
ENDBRANCH   2   9
BRANCH   2  20
HETATM   20  C   UNL     1     -10.217  12.236  66.692  1.00  0.00    -0.235 A  
HETATM   21  C   UNL     1     -12.274  12.867  65.562  1.00  0.00    -0.527 A  
HETATM   22  C   UNL     1     -12.801  12.056  63.232  1.00  0.00    -0.330 C  
HETATM   23  C   UNL     1     -11.442  12.914  66.685  1.00  0.00    -0.393 A  
HETATM   24  C   UNL     1     -10.662  11.479  64.427  1.00  0.00    -0.404 A  
HETATM   25  C   UNL     1     -11.895  12.144  64.427  1.00  0.00    -0.436 A  
HETATM   26  C   UNL     1      -9.828  11.526  65.550  1.00  0.00    -0.269 A  
ENDBRANCH   2  20
TORSDOF 5
ENDMDL
MODEL       55
REMARK 921   NORMALIZED FREE ENERGY PREDICTED BY IDOCK:   -5.90 KCAL/MOL
REMARK 922        TOTAL FREE ENERGY PREDICTED BY IDOCK:   -8.96 KCAL/MOL
REMARK 923 INTER-LIGAND FREE ENERGY PREDICTED BY IDOCK:   -8.86 KCAL/MOL
REMARK 924 INTRA-LIGAND FREE ENERGY PREDICTED BY IDOCK:   -0.10 KCAL/MOL
REMARK 927      BINDING AFFINITY PREDICTED BY RF-SCORE:    0.00 PKD
ROOT
HETATM    1  C   UNL     1     -10.102  10.451  67.983  1.00  0.00    -0.189 C  
HETATM    2  C   UNL     1     -10.797  11.612  67.923  1.00  0.00    -0.255 C  
ENDROOT
BRANCH   1   3
HETATM    3  C   UNL     1      -9.973   9.510  69.151  1.00  0.00    -0.183 C  
BRANCH   3   4
HETATM    4  N   UNL     1      -9.925   8.100  68.740  1.00  0.00    -0.184 NA 
HETATM    5  C   UNL     1     -11.102   6.539  67.356  1.00  0.00    -0.411 C  
HETATM    6  C   UNL     1     -10.847   5.968  68.738  1.00  0.00    -0.391 C  
HETATM    7  C   UNL     1     -10.453   7.920  67.379  1.00  0.00    -0.290 C  
HETATM    8  C   UNL     1     -10.701   7.206  69.602  1.00  0.00    -0.239 C  
ENDBRANCH   3   4
ENDBRANCH   1   3
BRANCH   2   9
HETATM    9  C   UNL     1     -10.723  12.364  66.649  1.00  0.00    -0.235 A  
HETATM   10  C   UNL     1     -11.024  12.482  64.279  1.00  0.00    -0.401 A  
HETATM   11  C   UNL     1     -10.325  14.375  65.567  1.00  0.00    -0.362 A  
HETATM   12  N   UNL     1     -10.359  13.667  66.724  1.00  0.00    -0.265 NA 
HETATM   13  C   UNL     1     -10.654  13.822  64.333  1.00  0.00    -0.316 A  
HETATM   14  C   UNL     1     -11.057  11.738  65.453  1.00  0.00    -0.336 A  
BRANCH  11  15
HETATM   15  C   UNL     1      -9.915  15.783  65.654  1.00  0.00    -0.378 C  
HETATM   16  C   UNL     1     -10.488  16.655  66.497  1.00  0.00    -0.262 C  
HETATM   17  C   UNL     1     -10.020  18.049  66.546  1.00  0.00    -0.371 C  
HETATM   18  O   UNL     1     -10.715  18.781  67.438  1.00  0.00    -0.438 OA 
HETATM   19  O   UNL     1      -9.110  18.500  65.869  1.00  0.00    -0.477 OA 
ENDBRANCH  11  15
ENDBRANCH   2   9
BRANCH   2  20
HETATM   20  C   UNL     1     -11.534  12.107  69.105  1.00  0.00    -0.352 A  
HETATM   21  C   UNL     1     -12.182  13.944  70.558  1.00  0.00    -0.443 A  
HETATM   22  C   UNL     1     -13.498  13.549  72.674  1.00  0.00    -0.572 C  
HETATM   23  C   UNL     1     -11.536  13.474  69.411  1.00  0.00    -0.369 A  
HETATM   24  C   UNL     1     -12.849  11.692  71.105  1.00  0.00    -0.392 A  
HETATM   25  C   UNL     1     -12.837  13.057  71.419  1.00  0.00    -0.385 A  
HETATM   26  C   UNL     1     -12.204  11.220  69.955  1.00  0.00    -0.358 A  
ENDBRANCH   2  20
TORSDOF 5
ENDMDL
MODEL       56
REMARK 921   NORMALIZED FREE ENERGY PREDICTED BY IDOCK:   -5.89 KCAL/MOL
REMARK 922        TOTAL FREE ENERGY PREDICTED BY IDOCK:   -8.95 KCAL/MOL
REMARK 923 INTER-LIGAND FREE ENERGY PREDICTED BY IDOCK:   -7.80 KCAL/MOL
REMARK 924 INTRA-LIGAND FREE ENERGY PREDICTED BY IDOCK:   -1.15 KCAL/MOL
REMARK 927      BINDING AFFINITY PREDICTED BY RF-SCORE:    0.00 PKD
ROOT
HETATM    1  C   UNL     1     -10.241   9.942  68.147  1.00  0.00    -0.210 C  
HETATM    2  C   UNL     1     -10.653   9.151  69.166  1.00  0.00    -0.224 C  
ENDROOT
BRANCH   1   3
HETATM    3  C   UNL     1      -9.290   9.594  67.034  1.00  0.00    -0.147 C  
BRANCH   3   4
HETATM    4  N   UNL     1      -9.427  10.482  65.872  1.00  0.00    -0.180 NA 
HETATM    5  C   UNL     1     -11.105  11.348  64.398  1.00  0.00    -0.329 C  
HETATM    6  C   UNL     1      -9.921  10.801  63.624  1.00  0.00    -0.405 C  
HETATM    7  C   UNL     1     -10.734  11.158  65.866  1.00  0.00    -0.198 C  
HETATM    8  C   UNL     1      -9.316   9.794  64.584  1.00  0.00    -0.256 C  
ENDBRANCH   3   4
ENDBRANCH   1   3
BRANCH   2   9
HETATM    9  C   UNL     1     -11.575   9.764  70.151  1.00  0.00    -0.182 A  
HETATM   10  C   UNL     1     -13.027   9.577  72.043  1.00  0.00    -0.514 A  
HETATM   11  C   UNL     1     -12.546  11.684  71.013  1.00  0.00    -0.331 A  
HETATM   12  N   UNL     1     -11.732  11.108  70.091  1.00  0.00    -0.331 NA 
HETATM   13  C   UNL     1     -13.201  10.957  72.001  1.00  0.00    -0.456 A  
HETATM   14  C   UNL     1     -12.203   8.968  71.102  1.00  0.00    -0.331 A  
BRANCH  11  15
HETATM   15  C   UNL     1     -12.724  13.140  70.934  1.00  0.00    -0.313 C  
HETATM   16  C   UNL     1     -13.322  13.851  71.901  1.00  0.00    -0.496 C  
HETATM   17  C   UNL     1     -13.455  15.311  71.767  1.00  0.00    -0.463 C  
HETATM   18  O   UNL     1     -14.089  15.856  72.824  1.00  0.00    -0.567 OA 
HETATM   19  O   UNL     1     -13.041  15.962  70.822  1.00  0.00    -0.490 OA 
ENDBRANCH  11  15
ENDBRANCH   2   9
BRANCH   2  20
HETATM   20  C   UNL     1     -10.145   7.769  69.296  1.00  0.00    -0.199 A  
HETATM   21  C   UNL     1     -10.411   5.387  68.891  1.00  0.00    -0.260 A  
HETATM   22  C   UNL     1      -8.798   3.700  69.849  1.00  0.00    -0.151 C  
HETATM   23  C   UNL     1     -10.851   6.703  68.724  1.00  0.00    -0.321 A  
HETATM   24  C   UNL     1      -8.540   6.180  70.189  1.00  0.00    -0.133 A  
HETATM   25  C   UNL     1      -9.256   5.114  69.631  1.00  0.00    -0.164 A  
HETATM   26  C   UNL     1      -8.979   7.498  70.021  1.00  0.00    -0.144 A  
ENDBRANCH   2  20
TORSDOF 5
ENDMDL
MODEL       57
REMARK 921   NORMALIZED FREE ENERGY PREDICTED BY IDOCK:   -5.87 KCAL/MOL
REMARK 922        TOTAL FREE ENERGY PREDICTED BY IDOCK:   -8.93 KCAL/MOL
REMARK 923 INTER-LIGAND FREE ENERGY PREDICTED BY IDOCK:   -7.79 KCAL/MOL
REMARK 924 INTRA-LIGAND FREE ENERGY PREDICTED BY IDOCK:   -1.14 KCAL/MOL
REMARK 927      BINDING AFFINITY PREDICTED BY RF-SCORE:    0.00 PKD
ROOT
HETATM    1  C   UNL     1     -12.033  12.157  70.252  1.00  0.00    -0.389 C  
HETATM    2  C   UNL     1     -11.251  11.892  69.179  1.00  0.00    -0.314 C  
ENDROOT
BRANCH   1   3
HETATM    3  C   UNL     1     -12.929  13.348  70.471  1.00  0.00     0.091 C  
BRANCH   3   4
HETATM    4  N   UNL     1     -12.557  14.126  71.660  1.00  0.00    -0.341 NA 
HETATM    5  C   UNL     1     -13.424  15.842  73.089  1.00  0.00    -0.652 C  
HETATM    6  C   UNL     1     -12.005  16.153  72.652  1.00  0.00    -0.653 C  
HETATM    7  C   UNL     1     -13.741  14.491  72.453  1.00  0.00    -0.480 C  
HETATM    8  C   UNL     1     -11.865  15.380  71.354  1.00  0.00    -0.384 C  
ENDBRANCH   3   4
ENDBRANCH   1   3
BRANCH   2   9
HETATM    9  C   UNL     1     -10.439  10.655  69.240  1.00  0.00    -0.227 A  
HETATM   10  C   UNL     1      -8.800   9.189  68.297  1.00  0.00    -0.129 A  
HETATM   11  C   UNL     1      -9.782   8.785  70.442  1.00  0.00    -0.180 A  
HETATM   12  N   UNL     1     -10.550   9.901  70.360  1.00  0.00    -0.291 NA 
HETATM   13  C   UNL     1      -8.897   8.402  69.440  1.00  0.00    -0.142 A  
HETATM   14  C   UNL     1      -9.584  10.332  68.191  1.00  0.00    -0.151 A  
BRANCH  11  15
HETATM   15  C   UNL     1      -9.918   7.965  71.654  1.00  0.00    -0.227 C  
HETATM   16  C   UNL     1     -10.827   6.985  71.768  1.00  0.00    -0.250 C  
HETATM   17  C   UNL     1     -10.901   6.189  73.004  1.00  0.00    -0.257 C  
HETATM   18  O   UNL     1     -11.876   5.261  72.946  1.00  0.00    -0.271 OA 
HETATM   19  O   UNL     1     -10.171   6.338  73.970  1.00  0.00    -0.255 OA 
ENDBRANCH  11  15
ENDBRANCH   2   9
BRANCH   2  20
HETATM   20  C   UNL     1     -11.186  12.838  68.045  1.00  0.00    -0.310 A  
HETATM   21  C   UNL     1     -10.230  14.822  67.017  1.00  0.00    -0.253 A  
HETATM   22  C   UNL     1     -11.126  15.741  64.845  1.00  0.00    -0.411 C  
HETATM   23  C   UNL     1     -10.260  13.888  68.057  1.00  0.00    -0.246 A  
HETATM   24  C   UNL     1     -12.039  13.660  65.924  1.00  0.00    -0.476 A  
HETATM   25  C   UNL     1     -11.124  14.720  65.946  1.00  0.00    -0.340 A  
HETATM   26  C   UNL     1     -12.068  12.724  66.965  1.00  0.00    -0.252 A  
ENDBRANCH   2  20
TORSDOF 5
ENDMDL
MODEL       58
REMARK 921   NORMALIZED FREE ENERGY PREDICTED BY IDOCK:   -5.84 KCAL/MOL
REMARK 922        TOTAL FREE ENERGY PREDICTED BY IDOCK:   -8.89 KCAL/MOL
REMARK 923 INTER-LIGAND FREE ENERGY PREDICTED BY IDOCK:   -7.65 KCAL/MOL
REMARK 924 INTRA-LIGAND FREE ENERGY PREDICTED BY IDOCK:   -1.24 KCAL/MOL
REMARK 927      BINDING AFFINITY PREDICTED BY RF-SCORE:    0.00 PKD
ROOT
HETATM    1  C   UNL     1     -11.745  12.118  68.267  1.00  0.00    -0.401 C  
HETATM    2  C   UNL     1     -11.239  12.952  67.328  1.00  0.00    -0.329 C  
ENDROOT
BRANCH   1   3
HETATM    3  C   UNL     1     -11.882  12.366  69.746  1.00  0.00    -0.317 C  
BRANCH   3   4
HETATM    4  N   UNL     1     -11.598  11.170  70.550  1.00  0.00    -0.272 NA 
HETATM    5  C   UNL     1     -11.065   8.850  70.284  1.00  0.00    -0.251 C  
HETATM    6  C   UNL     1     -12.188   9.047  71.284  1.00  0.00    -0.373 C  
HETATM    7  C   UNL     1     -10.676  10.261  69.851  1.00  0.00    -0.294 C  
HETATM    8  C   UNL     1     -12.787  10.379  70.875  1.00  0.00    -0.392 C  
ENDBRANCH   3   4
ENDBRANCH   1   3
BRANCH   2   9
HETATM    9  C   UNL     1     -11.192  12.436  65.940  1.00  0.00    -0.336 A  
HETATM   10  C   UNL     1     -11.942  12.494  63.669  1.00  0.00    -0.621 A  
HETATM   11  C   UNL     1     -10.198  11.023  64.394  1.00  0.00    -0.346 A  
HETATM   12  N   UNL     1     -10.275  11.476  65.671  1.00  0.00    -0.238 NA 
HETATM   13  C   UNL     1     -11.006  11.509  63.371  1.00  0.00    -0.397 A  
HETATM   14  C   UNL     1     -12.041  12.965  64.973  1.00  0.00    -0.480 A  
BRANCH  11  15
HETATM   15  C   UNL     1      -9.212   9.971  64.113  1.00  0.00    -0.319 C  
HETATM   16  C   UNL     1      -8.767   9.124  65.053  1.00  0.00    -0.222 C  
HETATM   17  C   UNL     1      -7.789   8.082  64.702  1.00  0.00    -0.140 C  
HETATM   18  O   UNL     1      -7.448   7.333  65.770  1.00  0.00    -0.079 OA 
HETATM   19  O   UNL     1      -7.336   7.903  63.584  1.00  0.00    -0.090 OA 
ENDBRANCH  11  15
ENDBRANCH   2   9
BRANCH   2  20
HETATM   20  C   UNL     1     -10.713  14.280  67.707  1.00  0.00    -0.253 A  
HETATM   21  C   UNL     1     -11.090  16.639  68.154  1.00  0.00    -0.285 A  
HETATM   22  C   UNL     1      -9.174  18.217  68.603  1.00  0.00    -0.309 C  
HETATM   23  C   UNL     1     -11.584  15.366  67.852  1.00  0.00    -0.267 A  
HETATM   24  C   UNL     1      -8.846  15.757  68.190  1.00  0.00    -0.178 A  
HETATM   25  C   UNL     1      -9.717  16.846  68.318  1.00  0.00    -0.256 A  
HETATM   26  C   UNL     1      -9.340  14.482  67.889  1.00  0.00    -0.201 A  
ENDBRANCH   2  20
TORSDOF 5
ENDMDL
MODEL       59
REMARK 921   NORMALIZED FREE ENERGY PREDICTED BY IDOCK:   -5.84 KCAL/MOL
REMARK 922        TOTAL FREE ENERGY PREDICTED BY IDOCK:   -8.88 KCAL/MOL
REMARK 923 INTER-LIGAND FREE ENERGY PREDICTED BY IDOCK:   -7.52 KCAL/MOL
REMARK 924 INTRA-LIGAND FREE ENERGY PREDICTED BY IDOCK:   -1.37 KCAL/MOL
REMARK 927      BINDING AFFINITY PREDICTED BY RF-SCORE:    0.00 PKD
ROOT
HETATM    1  C   UNL     1     -10.402  12.973  68.278  1.00  0.00    -0.256 C  
HETATM    2  C   UNL     1     -10.409  11.621  68.343  1.00  0.00    -0.215 C  
ENDROOT
BRANCH   1   3
HETATM    3  C   UNL     1      -9.741  13.846  67.245  1.00  0.00    -0.245 C  
BRANCH   3   4
HETATM    4  N   UNL     1     -10.695  14.402  66.277  1.00  0.00    -0.301 NA 
HETATM    5  C   UNL     1     -12.854  13.946  65.343  1.00  0.00    -0.466 C  
HETATM    6  C   UNL     1     -11.838  14.254  64.259  1.00  0.00    -0.401 C  
HETATM    7  C   UNL     1     -12.083  14.088  66.653  1.00  0.00    -0.456 C  
HETATM    8  C   UNL     1     -10.516  13.898  64.913  1.00  0.00    -0.426 C  
ENDBRANCH   3   4
ENDBRANCH   1   3
BRANCH   2   9
HETATM    9  C   UNL     1     -11.115  11.016  69.496  1.00  0.00    -0.263 A  
HETATM   10  C   UNL     1     -12.700  11.166  71.281  1.00  0.00    -0.531 A  
HETATM   11  C   UNL     1     -11.531   9.136  70.787  1.00  0.00    -0.282 A  
HETATM   12  N   UNL     1     -10.861   9.711  69.756  1.00  0.00    -0.240 NA 
HETATM   13  C   UNL     1     -12.457   9.826  71.564  1.00  0.00    -0.495 A  
HETATM   14  C   UNL     1     -12.018  11.774  70.233  1.00  0.00    -0.429 A  
BRANCH  11  15
HETATM   15  C   UNL     1     -11.241   7.725  71.073  1.00  0.00    -0.282 C  
HETATM   16  C   UNL     1     -10.804   6.870  70.136  1.00  0.00    -0.300 C  
HETATM   17  C   UNL     1     -10.517   5.471  70.491  1.00  0.00    -0.277 C  
HETATM   18  O   UNL     1     -10.099   4.758  69.426  1.00  0.00    -0.218 OA 
HETATM   19  O   UNL     1     -10.633   5.001  71.610  1.00  0.00    -0.194 OA 
ENDBRANCH  11  15
ENDBRANCH   2   9
BRANCH   2  20
HETATM   20  C   UNL     1      -9.690  10.817  67.332  1.00  0.00    -0.194 A  
HETATM   21  C   UNL     1      -7.637   9.784  66.542  1.00  0.00    -0.098 A  
HETATM   22  C   UNL     1      -7.511   8.657  64.289  1.00  0.00    -0.109 C  
HETATM   23  C   UNL     1      -8.340  10.494  67.520  1.00  0.00    -0.118 A  
HETATM   24  C   UNL     1      -9.624   9.693  65.179  1.00  0.00    -0.324 A  
HETATM   25  C   UNL     1      -8.270   9.384  65.361  1.00  0.00    -0.126 A  
HETATM   26  C   UNL     1     -10.330  10.402  66.159  1.00  0.00    -0.269 A  
ENDBRANCH   2  20
TORSDOF 5
ENDMDL
MODEL       60
REMARK 921   NORMALIZED FREE ENERGY PREDICTED BY IDOCK:   -5.83 KCAL/MOL
REMARK 922        TOTAL FREE ENERGY PREDICTED BY IDOCK:   -8.87 KCAL/MOL
REMARK 923 INTER-LIGAND FREE ENERGY PREDICTED BY IDOCK:   -7.44 KCAL/MOL
REMARK 924 INTRA-LIGAND FREE ENERGY PREDICTED BY IDOCK:   -1.43 KCAL/MOL
REMARK 927      BINDING AFFINITY PREDICTED BY RF-SCORE:    0.00 PKD
ROOT
HETATM    1  C   UNL     1     -10.617   9.456  70.778  1.00  0.00    -0.371 C  
HETATM    2  C   UNL     1     -10.266   9.102  69.519  1.00  0.00    -0.208 C  
ENDROOT
BRANCH   1   3
HETATM    3  C   UNL     1     -10.712   8.574  71.994  1.00  0.00    -0.340 C  
BRANCH   3   4
HETATM    4  N   UNL     1     -12.100   8.302  72.391  1.00  0.00    -0.377 NA 
HETATM    5  C   UNL     1     -14.088   7.259  71.556  1.00  0.00    -0.515 C  
HETATM    6  C   UNL     1     -14.381   8.641  72.110  1.00  0.00    -0.518 C  
HETATM    7  C   UNL     1     -12.594   7.054  71.789  1.00  0.00    -0.350 C  
HETATM    8  C   UNL     1     -13.044   9.349  71.997  1.00  0.00    -0.433 C  
ENDBRANCH   3   4
ENDBRANCH   1   3
BRANCH   2   9
HETATM    9  C   UNL     1     -10.289  10.175  68.497  1.00  0.00    -0.180 A  
HETATM   10  C   UNL     1     -10.094  10.891  66.223  1.00  0.00    -0.284 A  
HETATM   11  C   UNL     1     -10.676  12.402  67.986  1.00  0.00    -0.223 A  
HETATM   12  N   UNL     1     -10.616  11.419  68.920  1.00  0.00    -0.203 NA 
HETATM   13  C   UNL     1     -10.429  12.176  66.635  1.00  0.00    -0.248 A  
HETATM   14  C   UNL     1     -10.019   9.872  67.167  1.00  0.00    -0.252 A  
BRANCH  11  15
HETATM   15  C   UNL     1     -11.017  13.753  68.453  1.00  0.00    -0.275 C  
HETATM   16  C   UNL     1     -11.867  13.977  69.467  1.00  0.00    -0.378 C  
HETATM   17  C   UNL     1     -12.153  15.354  69.897  1.00  0.00    -0.355 C  
HETATM   18  O   UNL     1     -13.034  15.389  70.916  1.00  0.00    -0.437 OA 
HETATM   19  O   UNL     1     -11.658  16.354  69.402  1.00  0.00    -0.225 OA 
ENDBRANCH  11  15
ENDBRANCH   2   9
BRANCH   2  20
HETATM   20  C   UNL     1      -9.939   7.697  69.198  1.00  0.00    -0.181 A  
HETATM   21  C   UNL     1     -10.658   5.470  68.543  1.00  0.00    -0.208 A  
HETATM   22  C   UNL     1      -9.043   3.533  68.466  1.00  0.00    -0.202 C  
HETATM   23  C   UNL     1     -10.948   6.814  68.792  1.00  0.00    -0.267 A  
HETATM   24  C   UNL     1      -8.342   5.870  69.083  1.00  0.00    -0.106 A  
HETATM   25  C   UNL     1      -9.355   4.984  68.693  1.00  0.00    -0.173 A  
HETATM   26  C   UNL     1      -8.631   7.217  69.331  1.00  0.00    -0.134 A  
ENDBRANCH   2  20
TORSDOF 5
ENDMDL
MODEL       61
REMARK 921   NORMALIZED FREE ENERGY PREDICTED BY IDOCK:   -5.83 KCAL/MOL
REMARK 922        TOTAL FREE ENERGY PREDICTED BY IDOCK:   -8.87 KCAL/MOL
REMARK 923 INTER-LIGAND FREE ENERGY PREDICTED BY IDOCK:   -7.35 KCAL/MOL
REMARK 924 INTRA-LIGAND FREE ENERGY PREDICTED BY IDOCK:   -1.52 KCAL/MOL
REMARK 927      BINDING AFFINITY PREDICTED BY RF-SCORE:    0.00 PKD
ROOT
HETATM    1  C   UNL     1      -9.028  10.821  68.793  1.00  0.00    -0.171 C  
HETATM    2  C   UNL     1     -10.285  11.327  68.797  1.00  0.00    -0.215 C  
ENDROOT
BRANCH   1   3
HETATM    3  C   UNL     1      -7.940  11.058  67.780  1.00  0.00    -0.115 C  
BRANCH   3   4
HETATM    4  N   UNL     1      -7.838   9.975  66.793  1.00  0.00    -0.109 NA 
HETATM    5  C   UNL     1      -8.812   9.266  64.723  1.00  0.00    -0.225 C  
HETATM    6  C   UNL     1      -8.755   8.128  65.724  1.00  0.00    -0.183 C  
HETATM    7  C   UNL     1      -8.170  10.450  65.441  1.00  0.00    -0.159 C  
HETATM    8  C   UNL     1      -8.729   8.844  67.061  1.00  0.00    -0.123 C  
ENDBRANCH   3   4
ENDBRANCH   1   3
BRANCH   2   9
HETATM    9  C   UNL     1     -11.168  10.898  69.906  1.00  0.00    -0.282 A  
HETATM   10  C   UNL     1     -13.004  11.307  71.384  1.00  0.00    -0.482 A  
HETATM   11  C   UNL     1     -11.809   9.233  71.385  1.00  0.00    -0.358 A  
HETATM   12  N   UNL     1     -10.980   9.649  70.394  1.00  0.00    -0.275 NA 
HETATM   13  C   UNL     1     -12.830  10.026  71.899  1.00  0.00    -0.524 A  
HETATM   14  C   UNL     1     -12.160  11.754  70.374  1.00  0.00    -0.440 A  
BRANCH  11  15
HETATM   15  C   UNL     1     -11.591   7.882  71.920  1.00  0.00    -0.338 C  
HETATM   16  C   UNL     1     -11.068   6.887  71.187  1.00  0.00    -0.297 C  
HETATM   17  C   UNL     1     -10.860   5.560  71.788  1.00  0.00    -0.211 C  
HETATM   18  O   UNL     1     -10.338   4.686  70.905  1.00  0.00    -0.177 OA 
HETATM   19  O   UNL     1     -11.120   5.273  72.945  1.00  0.00    -0.264 OA 
ENDBRANCH  11  15
ENDBRANCH   2   9
BRANCH   2  20
HETATM   20  C   UNL     1     -10.741  12.213  67.705  1.00  0.00    -0.241 A  
HETATM   21  C   UNL     1     -11.023  14.447  66.792  1.00  0.00    -0.314 A  
HETATM   22  C   UNL     1     -12.260  14.840  64.629  1.00  0.00    -0.405 C  
HETATM   23  C   UNL     1     -10.543  13.596  67.792  1.00  0.00    -0.247 A  
HETATM   24  C   UNL     1     -11.891  12.544  65.592  1.00  0.00    -0.493 A  
HETATM   25  C   UNL     1     -11.707  13.930  65.688  1.00  0.00    -0.362 A  
HETATM   26  C   UNL     1     -11.409  11.691  66.592  1.00  0.00    -0.338 A  
ENDBRANCH   2  20
TORSDOF 5
ENDMDL
MODEL       62
REMARK 921   NORMALIZED FREE ENERGY PREDICTED BY IDOCK:   -5.81 KCAL/MOL
REMARK 922        TOTAL FREE ENERGY PREDICTED BY IDOCK:   -8.85 KCAL/MOL
REMARK 923 INTER-LIGAND FREE ENERGY PREDICTED BY IDOCK:   -7.77 KCAL/MOL
REMARK 924 INTRA-LIGAND FREE ENERGY PREDICTED BY IDOCK:   -1.08 KCAL/MOL
REMARK 927      BINDING AFFINITY PREDICTED BY RF-SCORE:    0.00 PKD
ROOT
HETATM    1  C   UNL     1     -11.112  11.130  68.193  1.00  0.00    -0.324 C  
HETATM    2  C   UNL     1     -10.447  11.375  67.040  1.00  0.00    -0.271 C  
ENDROOT
BRANCH   1   3
HETATM    3  C   UNL     1     -10.890  10.002  69.165  1.00  0.00    -0.222 C  
BRANCH   3   4
HETATM    4  N   UNL     1     -11.413  10.297  70.506  1.00  0.00    -0.321 NA 
HETATM    5  C   UNL     1     -13.212   9.682  71.963  1.00  0.00    -0.546 C  
HETATM    6  C   UNL     1     -13.065  11.189  71.875  1.00  0.00    -0.513 C  
HETATM    7  C   UNL     1     -12.093   9.128  71.085  1.00  0.00    -0.299 C  
HETATM    8  C   UNL     1     -12.385  11.393  70.534  1.00  0.00    -0.349 C  
ENDBRANCH   3   4
ENDBRANCH   1   3
BRANCH   2   9
HETATM    9  C   UNL     1     -10.896  12.546  66.252  1.00  0.00    -0.268 A  
HETATM   10  C   UNL     1     -12.505  13.614  64.839  1.00  0.00    -0.423 A  
HETATM   11  C   UNL     1     -10.545  14.747  65.616  1.00  0.00    -0.340 A  
HETATM   12  N   UNL     1     -10.122  13.657  66.304  1.00  0.00    -0.292 NA 
HETATM   13  C   UNL     1     -11.726  14.766  64.881  1.00  0.00    -0.390 A  
HETATM   14  C   UNL     1     -12.085  12.484  65.532  1.00  0.00    -0.481 A  
BRANCH  11  15
HETATM   15  C   UNL     1      -9.693  15.944  65.665  1.00  0.00    -0.306 C  
HETATM   16  C   UNL     1     -10.075  17.082  66.264  1.00  0.00    -0.330 C  
HETATM   17  C   UNL     1      -9.168  18.240  66.292  1.00  0.00    -0.203 C  
HETATM   18  O   UNL     1      -9.719  19.295  66.924  1.00  0.00    -0.305 OA 
HETATM   19  O   UNL     1      -8.047  18.256  65.810  1.00  0.00    -0.513 OA 
ENDBRANCH  11  15
ENDBRANCH   2   9
BRANCH   2  20
HETATM   20  C   UNL     1      -9.371  10.469  66.586  1.00  0.00    -0.186 A  
HETATM   21  C   UNL     1      -7.022   9.847  66.558  1.00  0.00    -0.090 A  
HETATM   22  C   UNL     1      -6.175   7.968  65.102  1.00  0.00    -0.045 C  
HETATM   23  C   UNL     1      -8.056  10.662  67.027  1.00  0.00    -0.120 A  
HETATM   24  C   UNL     1      -8.603   8.619  65.213  1.00  0.00    -0.206 A  
HETATM   25  C   UNL     1      -7.285   8.823  65.641  1.00  0.00    -0.084 A  
HETATM   26  C   UNL     1      -9.639   9.434  65.683  1.00  0.00    -0.345 A  
ENDBRANCH   2  20
TORSDOF 5
ENDMDL
MODEL       63
REMARK 921   NORMALIZED FREE ENERGY PREDICTED BY IDOCK:   -5.81 KCAL/MOL
REMARK 922        TOTAL FREE ENERGY PREDICTED BY IDOCK:   -8.85 KCAL/MOL
REMARK 923 INTER-LIGAND FREE ENERGY PREDICTED BY IDOCK:   -8.51 KCAL/MOL
REMARK 924 INTRA-LIGAND FREE ENERGY PREDICTED BY IDOCK:   -0.34 KCAL/MOL
REMARK 927      BINDING AFFINITY PREDICTED BY RF-SCORE:    0.00 PKD
ROOT
HETATM    1  C   UNL     1     -11.845  11.051  68.903  1.00  0.00    -0.378 C  
HETATM    2  C   UNL     1     -12.142  11.050  70.225  1.00  0.00    -0.448 C  
ENDROOT
BRANCH   1   3
HETATM    3  C   UNL     1     -11.802  12.229  67.967  1.00  0.00    -0.305 C  
BRANCH   3   4
HETATM    4  N   UNL     1     -10.918  12.007  66.815  1.00  0.00    -0.270 NA 
HETATM    5  C   UNL     1     -11.025  11.524  64.471  1.00  0.00    -0.367 C  
HETATM    6  C   UNL     1     -10.051  10.602  65.180  1.00  0.00    -0.374 C  
HETATM    7  C   UNL     1     -11.546  12.455  65.563  1.00  0.00    -0.385 C  
HETATM    8  C   UNL     1     -10.553  10.603  66.612  1.00  0.00    -0.214 C  
ENDBRANCH   3   4
ENDBRANCH   1   3
BRANCH   2   9
HETATM    9  C   UNL     1     -12.143   9.733  70.903  1.00  0.00    -0.321 A  
HETATM   10  C   UNL     1     -13.283   7.749  71.599  1.00  0.00    -0.381 A  
HETATM   11  C   UNL     1     -10.939   8.063  71.966  1.00  0.00    -0.282 A  
HETATM   12  N   UNL     1     -10.956   9.285  71.376  1.00  0.00    -0.335 NA 
HETATM   13  C   UNL     1     -12.074   7.268  72.090  1.00  0.00    -0.287 A  
HETATM   14  C   UNL     1     -13.322   9.002  70.998  1.00  0.00    -0.037 A  
BRANCH  11  15
HETATM   15  C   UNL     1      -9.650   7.588  72.490  1.00  0.00    -0.214 C  
HETATM   16  C   UNL     1      -8.652   8.420  72.823  1.00  0.00    -0.240 C  
HETATM   17  C   UNL     1      -7.391   7.882  73.357  1.00  0.00    -0.122 C  
HETATM   18  O   UNL     1      -6.501   8.858  73.625  1.00  0.00    -0.297 OA 
HETATM   19  O   UNL     1      -7.166   6.697  73.545  1.00  0.00    -0.080 OA 
ENDBRANCH  11  15
ENDBRANCH   2   9
BRANCH   2  20
HETATM   20  C   UNL     1     -12.501  12.307  70.914  1.00  0.00    -0.371 A  
HETATM   21  C   UNL     1     -12.198  14.700  71.211  1.00  0.00    -0.410 A  
HETATM   22  C   UNL     1     -13.371  15.957  73.058  1.00  0.00    -0.663 C  
HETATM   23  C   UNL     1     -11.909  13.516  70.527  1.00  0.00    -0.254 A  
HETATM   24  C   UNL     1     -13.690  13.491  72.670  1.00  0.00    -0.533 A  
HETATM   25  C   UNL     1     -13.085  14.697  72.293  1.00  0.00    -0.448 A  
HETATM   26  C   UNL     1     -13.403  12.305  71.984  1.00  0.00    -0.491 A  
ENDBRANCH   2  20
TORSDOF 5
ENDMDL
MODEL       64
REMARK 921   NORMALIZED FREE ENERGY PREDICTED BY IDOCK:   -5.81 KCAL/MOL
REMARK 922        TOTAL FREE ENERGY PREDICTED BY IDOCK:   -8.84 KCAL/MOL
REMARK 923 INTER-LIGAND FREE ENERGY PREDICTED BY IDOCK:   -8.39 KCAL/MOL
REMARK 924 INTRA-LIGAND FREE ENERGY PREDICTED BY IDOCK:   -0.45 KCAL/MOL
REMARK 927      BINDING AFFINITY PREDICTED BY RF-SCORE:    0.00 PKD
ROOT
HETATM    1  C   UNL     1      -9.313   9.858  69.251  1.00  0.00    -0.215 C  
HETATM    2  C   UNL     1     -10.241  10.742  68.813  1.00  0.00    -0.207 C  
ENDROOT
BRANCH   1   3
HETATM    3  C   UNL     1      -9.054   9.414  70.666  1.00  0.00    -0.233 C  
BRANCH   3   4
HETATM    4  N   UNL     1      -9.632   8.096  70.962  1.00  0.00    -0.156 NA 
HETATM    5  C   UNL     1     -11.422   6.666  70.263  1.00  0.00    -0.449 C  
HETATM    6  C   UNL     1     -11.377   6.795  71.774  1.00  0.00    -0.307 C  
HETATM    7  C   UNL     1     -10.245   7.499  69.765  1.00  0.00    -0.211 C  
HETATM    8  C   UNL     1     -10.677   8.124  71.987  1.00  0.00    -0.278 C  
ENDBRANCH   3   4
ENDBRANCH   1   3
BRANCH   2   9
HETATM    9  C   UNL     1     -10.255  11.023  67.359  1.00  0.00    -0.195 A  
HETATM   10  C   UNL     1     -10.076  10.281  65.092  1.00  0.00    -0.355 A  
HETATM   11  C   UNL     1     -10.602  12.549  65.649  1.00  0.00    -0.269 A  
HETATM   12  N   UNL     1     -10.549  12.290  66.981  1.00  0.00    -0.220 NA 
HETATM   13  C   UNL     1     -10.378  11.576  64.681  1.00  0.00    -0.349 A  
HETATM   14  C   UNL     1     -10.010   9.998  66.451  1.00  0.00    -0.300 A  
BRANCH  11  15
HETATM   15  C   UNL     1     -10.907  13.929  65.246  1.00  0.00    -0.337 C  
HETATM   16  C   UNL     1     -10.237  14.989  65.722  1.00  0.00    -0.361 C  
HETATM   17  C   UNL     1     -10.582  16.344  65.265  1.00  0.00    -0.299 C  
HETATM   18  O   UNL     1      -9.816  17.283  65.854  1.00  0.00    -0.494 OA 
HETATM   19  O   UNL     1     -11.451  16.601  64.449  1.00  0.00    -0.959 OA 
ENDBRANCH  11  15
ENDBRANCH   2   9
BRANCH   2  20
HETATM   20  C   UNL     1     -11.141  11.420  69.770  1.00  0.00    -0.198 A  
HETATM   21  C   UNL     1     -12.914  11.307  71.427  1.00  0.00    -0.482 A  
HETATM   22  C   UNL     1     -13.932  13.395  72.412  1.00  0.00    -0.605 C  
HETATM   23  C   UNL     1     -12.019  10.671  70.562  1.00  0.00    -0.446 A  
HETATM   24  C   UNL     1     -12.056  13.452  70.736  1.00  0.00    -0.333 A  
HETATM   25  C   UNL     1     -12.946  12.703  71.516  1.00  0.00    -0.380 A  
HETATM   26  C   UNL     1     -11.158  12.816  69.871  1.00  0.00     0.249 A  
ENDBRANCH   2  20
TORSDOF 5
ENDMDL
MODEL       65
REMARK 921   NORMALIZED FREE ENERGY PREDICTED BY IDOCK:   -5.80 KCAL/MOL
REMARK 922        TOTAL FREE ENERGY PREDICTED BY IDOCK:   -8.84 KCAL/MOL
REMARK 923 INTER-LIGAND FREE ENERGY PREDICTED BY IDOCK:   -7.77 KCAL/MOL
REMARK 924 INTRA-LIGAND FREE ENERGY PREDICTED BY IDOCK:   -1.07 KCAL/MOL
REMARK 927      BINDING AFFINITY PREDICTED BY RF-SCORE:    0.00 PKD
ROOT
HETATM    1  C   UNL     1     -12.058  12.728  70.036  1.00  0.00    -0.355 C  
HETATM    2  C   UNL     1     -11.493  12.293  68.885  1.00  0.00    -0.355 C  
ENDROOT
BRANCH   1   3
HETATM    3  C   UNL     1     -12.665  14.077  70.316  1.00  0.00    -0.210 C  
BRANCH   3   4
HETATM    4  N   UNL     1     -12.295  14.602  71.637  1.00  0.00    -0.338 NA 
HETATM    5  C   UNL     1     -13.280  15.674  73.539  1.00  0.00    -0.561 C  
HETATM    6  C   UNL     1     -12.022  16.394  73.091  1.00  0.00    -0.536 C  
HETATM    7  C   UNL     1     -13.409  14.486  72.591  1.00  0.00    -0.495 C  
HETATM    8  C   UNL     1     -11.911  16.015  71.626  1.00  0.00    -0.499 C  
ENDBRANCH   3   4
ENDBRANCH   1   3
BRANCH   2   9
HETATM    9  C   UNL     1     -10.939  10.920  68.895  1.00  0.00    -0.229 A  
HETATM   10  C   UNL     1     -10.502   8.858  70.027  1.00  0.00    -0.227 A  
HETATM   11  C   UNL     1      -9.957   9.181  67.719  1.00  0.00    -0.189 A  
HETATM   12  N   UNL     1     -10.433  10.452  67.729  1.00  0.00    -0.209 NA 
HETATM   13  C   UNL     1      -9.980   8.356  68.839  1.00  0.00    -0.194 A  
HETATM   14  C   UNL     1     -10.988  10.160  70.059  1.00  0.00    -0.364 A  
BRANCH  11  15
HETATM   15  C   UNL     1      -9.396   8.685  66.454  1.00  0.00    -0.271 C  
HETATM   16  C   UNL     1      -9.011   9.501  65.462  1.00  0.00    -0.236 C  
HETATM   17  C   UNL     1      -8.442   8.941  64.226  1.00  0.00    -0.149 C  
HETATM   18  O   UNL     1      -8.123   9.903  63.338  1.00  0.00    -0.139 OA 
HETATM   19  O   UNL     1      -8.269   7.751  64.018  1.00  0.00    -0.106 OA 
ENDBRANCH  11  15
ENDBRANCH   2   9
BRANCH   2  20
HETATM   20  C   UNL     1     -11.396  13.188  67.712  1.00  0.00    -0.326 A  
HETATM   21  C   UNL     1     -10.246  14.960  66.512  1.00  0.00    -0.281 A  
HETATM   22  C   UNL     1     -11.205  15.962  64.405  1.00  0.00    -0.242 C  
HETATM   23  C   UNL     1     -10.316  14.070  67.587  1.00  0.00    -0.242 A  
HETATM   24  C   UNL     1     -12.325  14.089  65.656  1.00  0.00    -0.502 A  
HETATM   25  C   UNL     1     -11.253  14.982  65.541  1.00  0.00    -0.344 A  
HETATM   26  C   UNL     1     -12.396  13.195  66.732  1.00  0.00    -0.173 A  
ENDBRANCH   2  20
TORSDOF 5
ENDMDL
MODEL       66
REMARK 921   NORMALIZED FREE ENERGY PREDICTED BY IDOCK:   -5.79 KCAL/MOL
REMARK 922        TOTAL FREE ENERGY PREDICTED BY IDOCK:   -8.83 KCAL/MOL
REMARK 923 INTER-LIGAND FREE ENERGY PREDICTED BY IDOCK:   -8.08 KCAL/MOL
REMARK 924 INTRA-LIGAND FREE ENERGY PREDICTED BY IDOCK:   -0.75 KCAL/MOL
REMARK 927      BINDING AFFINITY PREDICTED BY RF-SCORE:    0.00 PKD
ROOT
HETATM    1  C   UNL     1     -10.102  13.664  68.436  1.00  0.00    -0.241 C  
HETATM    2  C   UNL     1     -10.855  14.726  68.806  1.00  0.00    -0.259 C  
ENDROOT
BRANCH   1   3
HETATM    3  C   UNL     1      -9.064  13.602  67.347  1.00  0.00    -0.222 C  
BRANCH   3   4
HETATM    4  N   UNL     1      -7.766  14.145  67.768  1.00  0.00    -0.151 NA 
HETATM    5  C   UNL     1      -6.823  15.601  69.421  1.00  0.00    -0.186 C  
HETATM    6  C   UNL     1      -6.324  15.948  68.031  1.00  0.00    -0.144 C  
HETATM    7  C   UNL     1      -7.735  14.394  69.218  1.00  0.00    -0.002 C  
HETATM    8  C   UNL     1      -7.420  15.416  67.127  1.00  0.00    -0.189 C  
ENDBRANCH   3   4
ENDBRANCH   1   3
BRANCH   2   9
HETATM    9  C   UNL     1     -11.832  14.498  69.897  1.00  0.00    -0.317 A  
HETATM   10  C   UNL     1     -13.495  15.317  71.409  1.00  0.00    -0.588 A  
HETATM   11  C   UNL     1     -12.920  12.996  71.286  1.00  0.00    -0.243 A  
HETATM   12  N   UNL     1     -12.001  13.220  70.314  1.00  0.00    -0.327 NA 
HETATM   13  C   UNL     1     -13.686  14.011  71.851  1.00  0.00    -0.532 A  
HETATM   14  C   UNL     1     -12.552  15.567  70.419  1.00  0.00    -0.421 A  
BRANCH  11  15
HETATM   15  C   UNL     1     -13.088  11.610  71.744  1.00  0.00    -0.487 C  
HETATM   16  C   UNL     1     -12.233  10.629  71.417  1.00  0.00    -0.405 C  
HETATM   17  C   UNL     1     -12.450   9.264  71.922  1.00  0.00    -0.382 C  
HETATM   18  O   UNL     1     -11.503   8.411  71.485  1.00  0.00    -0.255 OA 
HETATM   19  O   UNL     1     -13.369   8.931  72.651  1.00  0.00    -0.433 OA 
ENDBRANCH  11  15
ENDBRANCH   2   9
BRANCH   2  20
HETATM   20  C   UNL     1     -10.729  16.018  68.101  1.00  0.00    -0.311 A  
HETATM   21  C   UNL     1     -10.746  17.292  66.031  1.00  0.00    -0.110 A  
HETATM   22  C   UNL     1     -10.152  19.743  65.987  1.00  0.00    -0.574 C  
HETATM   23  C   UNL     1     -10.921  16.085  66.715  1.00  0.00    -0.112 A  
HETATM   24  C   UNL     1     -10.204  18.390  68.108  1.00  0.00    -0.410 A  
HETATM   25  C   UNL     1     -10.380  18.452  66.720  1.00  0.00    -0.420 A  
HETATM   26  C   UNL     1     -10.380  17.183  68.794  1.00  0.00    -0.353 A  
ENDBRANCH   2  20
TORSDOF 5
ENDMDL
MODEL       67
REMARK 921   NORMALIZED FREE ENERGY PREDICTED BY IDOCK:   -5.77 KCAL/MOL
REMARK 922        TOTAL FREE ENERGY PREDICTED BY IDOCK:   -8.80 KCAL/MOL
REMARK 923 INTER-LIGAND FREE ENERGY PREDICTED BY IDOCK:   -7.71 KCAL/MOL
REMARK 924 INTRA-LIGAND FREE ENERGY PREDICTED BY IDOCK:   -1.09 KCAL/MOL
REMARK 927      BINDING AFFINITY PREDICTED BY RF-SCORE:    0.00 PKD
ROOT
HETATM    1  C   UNL     1      -9.870  10.099  69.964  1.00  0.00    -0.179 C  
HETATM    2  C   UNL     1      -9.477  10.054  68.669  1.00  0.00    -0.156 C  
ENDROOT
BRANCH   1   3
HETATM    3  C   UNL     1     -10.283   8.949  70.844  1.00  0.00    -0.240 C  
BRANCH   3   4
HETATM    4  N   UNL     1     -11.726   8.679  70.785  1.00  0.00    -0.253 NA 
HETATM    5  C   UNL     1     -13.684   8.798  72.158  1.00  0.00    -0.498 C  
HETATM    6  C   UNL     1     -13.577   7.452  71.467  1.00  0.00    -0.454 C  
HETATM    7  C   UNL     1     -12.478   9.590  71.661  1.00  0.00    -0.391 C  
HETATM    8  C   UNL     1     -12.090   7.321  71.195  1.00  0.00    -0.340 C  
ENDBRANCH   3   4
ENDBRANCH   1   3
BRANCH   2   9
HETATM    9  C   UNL     1      -9.157  11.351  68.028  1.00  0.00    -0.171 A  
HETATM   10  C   UNL     1      -7.675  13.199  67.691  1.00  0.00    -0.168 A  
HETATM   11  C   UNL     1      -9.742  12.993  66.500  1.00  0.00    -0.266 A  
HETATM   12  N   UNL     1     -10.044  11.824  67.120  1.00  0.00    -0.202 NA 
HETATM   13  C   UNL     1      -8.572  13.702  66.753  1.00  0.00    -0.050 A  
HETATM   14  C   UNL     1      -7.971  12.007  68.342  1.00  0.00    -0.152 A  
BRANCH  11  15
HETATM   15  C   UNL     1     -10.715  13.507  65.527  1.00  0.00    -0.293 C  
HETATM   16  C   UNL     1     -10.797  14.806  65.201  1.00  0.00    -0.417 C  
HETATM   17  C   UNL     1     -11.785  15.254  64.206  1.00  0.00    -0.215 C  
HETATM   18  O   UNL     1     -11.733  16.587  64.012  1.00  0.00    -1.111 OA 
HETATM   19  O   UNL     1     -12.561  14.519  63.618  1.00  0.00    -0.798 OA 
ENDBRANCH  11  15
ENDBRANCH   2   9
BRANCH   2  20
HETATM   20  C   UNL     1      -9.435   8.769  67.940  1.00  0.00    -0.160 A  
HETATM   21  C   UNL     1     -10.585   7.003  66.729  1.00  0.00    -0.297 A  
HETATM   22  C   UNL     1      -9.382   4.910  65.996  1.00  0.00    -0.158 C  
HETATM   23  C   UNL     1     -10.602   8.246  67.369  1.00  0.00    -0.324 A  
HETATM   24  C   UNL     1      -8.230   6.793  67.203  1.00  0.00    -0.121 A  
HETATM   25  C   UNL     1      -9.401   6.263  66.647  1.00  0.00    -0.167 A  
HETATM   26  C   UNL     1      -8.246   8.038  67.843  1.00  0.00    -0.129 A  
ENDBRANCH   2  20
TORSDOF 5
ENDMDL
MODEL       68
REMARK 921   NORMALIZED FREE ENERGY PREDICTED BY IDOCK:   -5.77 KCAL/MOL
REMARK 922        TOTAL FREE ENERGY PREDICTED BY IDOCK:   -8.80 KCAL/MOL
REMARK 923 INTER-LIGAND FREE ENERGY PREDICTED BY IDOCK:   -7.56 KCAL/MOL
REMARK 924 INTRA-LIGAND FREE ENERGY PREDICTED BY IDOCK:   -1.24 KCAL/MOL
REMARK 927      BINDING AFFINITY PREDICTED BY RF-SCORE:    0.00 PKD
ROOT
HETATM    1  C   UNL     1     -10.394  10.105  66.793  1.00  0.00    -0.285 C  
HETATM    2  C   UNL     1     -10.874  11.244  67.346  1.00  0.00    -0.311 C  
ENDROOT
BRANCH   1   3
HETATM    3  C   UNL     1      -9.870   9.905  65.396  1.00  0.00    -0.313 C  
BRANCH   3   4
HETATM    4  N   UNL     1      -8.657   9.079  65.357  1.00  0.00    -0.166 NA 
HETATM    5  C   UNL     1      -7.470   7.479  66.688  1.00  0.00    -0.092 C  
HETATM    6  C   UNL     1      -6.542   8.561  66.169  1.00  0.00    -0.057 C  
HETATM    7  C   UNL     1      -8.838   7.826  66.107  1.00  0.00    -0.162 C  
HETATM    8  C   UNL     1      -7.477   9.732  65.929  1.00  0.00    -0.103 C  
ENDBRANCH   3   4
ENDBRANCH   1   3
BRANCH   2   9
HETATM    9  C   UNL     1     -11.359  11.150  68.742  1.00  0.00    -0.277 A  
HETATM   10  C   UNL     1     -12.377  12.143  70.666  1.00  0.00    -0.385 A  
HETATM   11  C   UNL     1     -11.771   9.828  70.602  1.00  0.00    -0.300 A  
HETATM   12  N   UNL     1     -11.295   9.933  69.335  1.00  0.00    -0.151 NA 
HETATM   13  C   UNL     1     -12.322  10.902  71.293  1.00  0.00    -0.448 A  
HETATM   14  C   UNL     1     -11.886  12.272  69.372  1.00  0.00    -0.370 A  
BRANCH  11  15
HETATM   15  C   UNL     1     -11.685   8.509  71.244  1.00  0.00    -0.331 C  
HETATM   16  C   UNL     1     -11.046   8.309  72.406  1.00  0.00    -0.447 C  
HETATM   17  C   UNL     1     -11.009   6.965  73.005  1.00  0.00    -0.274 C  
HETATM   18  O   UNL     1     -10.318   6.949  74.161  1.00  0.00    -0.373 OA 
HETATM   19  O   UNL     1     -11.540   5.977  72.525  1.00  0.00    -0.295 OA 
ENDBRANCH  11  15
ENDBRANCH   2   9
BRANCH   2  20
HETATM   20  C   UNL     1     -10.952  12.489  66.553  1.00  0.00    -0.303 A  
HETATM   21  C   UNL     1      -9.924  14.545  65.765  1.00  0.00    -0.361 A  
HETATM   22  C   UNL     1     -11.226  16.237  64.421  1.00  0.00    -0.119 C  
HETATM   23  C   UNL     1      -9.842  13.337  66.464  1.00  0.00    -0.281 A  
HETATM   24  C   UNL     1     -12.223  14.068  65.214  1.00  0.00    -0.451 A  
HETATM   25  C   UNL     1     -11.117  14.924  65.140  1.00  0.00    -0.399 A  
HETATM   26  C   UNL     1     -12.141  12.857  65.913  1.00  0.00    -0.503 A  
ENDBRANCH   2  20
TORSDOF 5
ENDMDL
MODEL       69
REMARK 921   NORMALIZED FREE ENERGY PREDICTED BY IDOCK:   -5.73 KCAL/MOL
REMARK 922        TOTAL FREE ENERGY PREDICTED BY IDOCK:   -8.74 KCAL/MOL
REMARK 923 INTER-LIGAND FREE ENERGY PREDICTED BY IDOCK:   -7.70 KCAL/MOL
REMARK 924 INTRA-LIGAND FREE ENERGY PREDICTED BY IDOCK:   -1.05 KCAL/MOL
REMARK 927      BINDING AFFINITY PREDICTED BY RF-SCORE:    0.00 PKD
ROOT
HETATM    1  C   UNL     1     -11.215  11.037  68.019  1.00  0.00    -0.372 C  
HETATM    2  C   UNL     1     -10.965   9.886  68.686  1.00  0.00    -0.222 C  
ENDROOT
BRANCH   1   3
HETATM    3  C   UNL     1     -10.673  11.467  66.682  1.00  0.00    -0.268 C  
BRANCH   3   4
HETATM    4  N   UNL     1     -11.684  12.127  65.845  1.00  0.00    -0.482 NA 
HETATM    5  C   UNL     1     -11.912  13.167  63.699  1.00  0.00    -0.580 C  
HETATM    6  C   UNL     1     -12.503  14.032  64.797  1.00  0.00    -0.392 C  
HETATM    7  C   UNL     1     -11.419  11.912  64.414  1.00  0.00    -0.320 C  
HETATM    8  C   UNL     1     -11.755  13.578  66.036  1.00  0.00    -0.359 C  
ENDBRANCH   3   4
ENDBRANCH   1   3
BRANCH   2   9
HETATM    9  C   UNL     1     -11.609   9.734  70.011  1.00  0.00    -0.130 A  
HETATM   10  C   UNL     1     -13.114  10.516  71.698  1.00  0.00    -0.551 A  
HETATM   11  C   UNL     1     -11.941   8.440  71.905  1.00  0.00    -0.338 A  
HETATM   12  N   UNL     1     -11.327   8.606  70.706  1.00  0.00    -0.263 NA 
HETATM   13  C   UNL     1     -12.840   9.364  72.428  1.00  0.00    -0.394 A  
HETATM   14  C   UNL     1     -12.489  10.708  70.471  1.00  0.00    -0.445 A  
BRANCH  11  15
HETATM   15  C   UNL     1     -11.619   7.221  72.661  1.00  0.00    -0.259 C  
HETATM   16  C   UNL     1     -11.172   6.101  72.074  1.00  0.00    -0.335 C  
HETATM   17  C   UNL     1     -10.852   4.919  72.890  1.00  0.00    -0.248 C  
HETATM   18  O   UNL     1     -10.429   3.886  72.135  1.00  0.00    -0.117 OA 
HETATM   19  O   UNL     1     -10.950   4.867  74.105  1.00  0.00    -0.310 OA 
ENDBRANCH  11  15
ENDBRANCH   2   9
BRANCH   2  20
HETATM   20  C   UNL     1     -10.044   8.876  68.122  1.00  0.00    -0.227 A  
HETATM   21  C   UNL     1      -9.672   6.916  66.735  1.00  0.00    -0.232 A  
HETATM   22  C   UNL     1      -7.420   5.784  66.631  1.00  0.00    -0.084 C  
HETATM   23  C   UNL     1     -10.522   7.910  67.228  1.00  0.00    -0.390 A  
HETATM   24  C   UNL     1      -7.847   7.848  68.005  1.00  0.00    -0.127 A  
HETATM   25  C   UNL     1      -8.330   6.872  67.125  1.00  0.00    -0.121 A  
HETATM   26  C   UNL     1      -8.697   8.845  68.499  1.00  0.00    -0.134 A  
ENDBRANCH   2  20
TORSDOF 5
ENDMDL
MODEL       70
REMARK 921   NORMALIZED FREE ENERGY PREDICTED BY IDOCK:   -5.72 KCAL/MOL
REMARK 922        TOTAL FREE ENERGY PREDICTED BY IDOCK:   -8.74 KCAL/MOL
REMARK 923 INTER-LIGAND FREE ENERGY PREDICTED BY IDOCK:   -7.40 KCAL/MOL
REMARK 924 INTRA-LIGAND FREE ENERGY PREDICTED BY IDOCK:   -1.34 KCAL/MOL
REMARK 927      BINDING AFFINITY PREDICTED BY RF-SCORE:    0.00 PKD
ROOT
HETATM    1  C   UNL     1     -11.100  10.412  67.792  1.00  0.00    -0.365 C  
HETATM    2  C   UNL     1     -10.655   9.865  68.948  1.00  0.00    -0.239 C  
ENDROOT
BRANCH   1   3
HETATM    3  C   UNL     1     -10.385  10.486  66.469  1.00  0.00    -0.233 C  
BRANCH   3   4
HETATM    4  N   UNL     1     -10.463  11.818  65.855  1.00  0.00    -0.246 NA 
HETATM    5  C   UNL     1     -10.317  14.135  66.446  1.00  0.00    -0.287 C  
HETATM    6  C   UNL     1     -11.543  13.859  65.596  1.00  0.00    -0.338 C  
HETATM    7  C   UNL     1      -9.613  12.786  66.566  1.00  0.00    -0.257 C  
HETATM    8  C   UNL     1     -11.813  12.387  65.846  1.00  0.00    -0.405 C  
ENDBRANCH   3   4
ENDBRANCH   1   3
BRANCH   2   9
HETATM    9  C   UNL     1     -11.558   9.962  70.118  1.00  0.00    -0.218 A  
HETATM   10  C   UNL     1     -12.670   8.954  71.981  1.00  0.00    -0.456 A  
HETATM   11  C   UNL     1     -12.828  11.298  71.523  1.00  0.00    -0.414 A  
HETATM   12  N   UNL     1     -12.030  11.192  70.431  1.00  0.00    -0.353 NA 
HETATM   13  C   UNL     1     -13.164  10.209  72.322  1.00  0.00    -0.359 A  
HETATM   14  C   UNL     1     -11.857   8.824  70.861  1.00  0.00    -0.267 A  
BRANCH  11  15
HETATM   15  C   UNL     1     -13.348  12.633  71.848  1.00  0.00    -0.485 C  
HETATM   16  C   UNL     1     -12.781  13.762  71.396  1.00  0.00    -0.450 C  
HETATM   17  C   UNL     1     -13.361  15.069  71.745  1.00  0.00    -0.386 C  
HETATM   18  O   UNL     1     -12.657  16.088  71.215  1.00  0.00    -0.428 OA 
HETATM   19  O   UNL     1     -14.359  15.225  72.428  1.00  0.00    -0.514 OA 
ENDBRANCH  11  15
ENDBRANCH   2   9
BRANCH   2  20
HETATM   20  C   UNL     1      -9.308   9.260  69.023  1.00  0.00    -0.151 A  
HETATM   21  C   UNL     1      -7.844   7.347  68.705  1.00  0.00    -0.121 A  
HETATM   22  C   UNL     1      -5.430   7.400  69.435  1.00  0.00    -0.015 C  
HETATM   23  C   UNL     1      -9.101   7.947  68.584  1.00  0.00    -0.136 A  
HETATM   24  C   UNL     1      -6.975   9.370  69.689  1.00  0.00    -0.058 A  
HETATM   25  C   UNL     1      -6.772   8.050  69.265  1.00  0.00    -0.040 A  
HETATM   26  C   UNL     1      -8.233   9.972  69.567  1.00  0.00    -0.173 A  
ENDBRANCH   2  20
TORSDOF 5
ENDMDL
MODEL       71
REMARK 921   NORMALIZED FREE ENERGY PREDICTED BY IDOCK:   -5.71 KCAL/MOL
REMARK 922        TOTAL FREE ENERGY PREDICTED BY IDOCK:   -8.72 KCAL/MOL
REMARK 923 INTER-LIGAND FREE ENERGY PREDICTED BY IDOCK:   -7.79 KCAL/MOL
REMARK 924 INTRA-LIGAND FREE ENERGY PREDICTED BY IDOCK:   -0.93 KCAL/MOL
REMARK 927      BINDING AFFINITY PREDICTED BY RF-SCORE:    0.00 PKD
ROOT
HETATM    1  C   UNL     1     -11.915  14.956  68.443  1.00  0.00    -0.255 C  
HETATM    2  C   UNL     1     -10.952  14.620  67.553  1.00  0.00    -0.301 C  
ENDROOT
BRANCH   1   3
HETATM    3  C   UNL     1     -11.783  15.831  69.661  1.00  0.00    -0.355 C  
BRANCH   3   4
HETATM    4  N   UNL     1     -12.231  15.164  70.891  1.00  0.00    -0.312 NA 
HETATM    5  C   UNL     1     -13.930  15.335  72.571  1.00  0.00    -0.609 C  
HETATM    6  C   UNL     1     -12.555  15.180  73.191  1.00  0.00    -0.585 C  
HETATM    7  C   UNL     1     -13.687  15.283  71.065  1.00  0.00    -0.380 C  
HETATM    8  C   UNL     1     -11.626  15.703  72.111  1.00  0.00    -0.443 C  
ENDBRANCH   3   4
ENDBRANCH   1   3
BRANCH   2   9
HETATM    9  C   UNL     1     -11.352  13.708  66.456  1.00  0.00    -0.319 A  
HETATM   10  C   UNL     1     -12.875  13.075  64.724  1.00  0.00    -0.336 A  
HETATM   11  C   UNL     1     -10.830  11.893  65.112  1.00  0.00    -0.300 A  
HETATM   12  N   UNL     1     -10.490  12.712  66.140  1.00  0.00    -0.253 NA 
HETATM   13  C   UNL     1     -12.004  12.046  64.381  1.00  0.00    -0.385 A  
HETATM   14  C   UNL     1     -12.548  13.919  65.779  1.00  0.00    -0.533 A  
BRANCH  11  15
HETATM   15  C   UNL     1      -9.898  10.806  64.784  1.00  0.00    -0.358 C  
HETATM   16  C   UNL     1      -9.760   9.713  65.549  1.00  0.00    -0.372 C  
HETATM   17  C   UNL     1      -8.819   8.652  65.156  1.00  0.00    -0.103 C  
HETATM   18  O   UNL     1      -8.804   7.640  66.045  1.00  0.00    -0.161 OA 
HETATM   19  O   UNL     1      -8.133   8.671  64.148  1.00  0.00    -0.149 OA 
ENDBRANCH  11  15
ENDBRANCH   2   9
BRANCH   2  20
HETATM   20  C   UNL     1      -9.567  15.107  67.725  1.00  0.00    -0.203 A  
HETATM   21  C   UNL     1      -7.492  15.133  68.989  1.00  0.00    -0.161 A  
HETATM   22  C   UNL     1      -5.595  16.679  68.376  1.00  0.00    -0.121 C  
HETATM   23  C   UNL     1      -8.782  14.635  68.784  1.00  0.00    -0.166 A  
HETATM   24  C   UNL     1      -7.742  16.571  67.070  1.00  0.00    -0.244 A  
HETATM   25  C   UNL     1      -6.964  16.110  68.139  1.00  0.00    -0.135 A  
HETATM   26  C   UNL     1      -9.034  16.071  66.862  1.00  0.00    -0.253 A  
ENDBRANCH   2  20
TORSDOF 5
ENDMDL
MODEL       72
REMARK 921   NORMALIZED FREE ENERGY PREDICTED BY IDOCK:   -5.70 KCAL/MOL
REMARK 922        TOTAL FREE ENERGY PREDICTED BY IDOCK:   -8.70 KCAL/MOL
REMARK 923 INTER-LIGAND FREE ENERGY PREDICTED BY IDOCK:   -7.45 KCAL/MOL
REMARK 924 INTRA-LIGAND FREE ENERGY PREDICTED BY IDOCK:   -1.25 KCAL/MOL
REMARK 927      BINDING AFFINITY PREDICTED BY RF-SCORE:    0.00 PKD
ROOT
HETATM    1  C   UNL     1     -10.584   8.894  67.281  1.00  0.00    -0.304 C  
HETATM    2  C   UNL     1     -10.599   9.761  68.321  1.00  0.00    -0.271 C  
ENDROOT
BRANCH   1   3
HETATM    3  C   UNL     1     -10.351   7.407  67.319  1.00  0.00    -0.286 C  
BRANCH   3   4
HETATM    4  N   UNL     1      -8.926   7.055  67.270  1.00  0.00    -0.118 NA 
HETATM    5  C   UNL     1      -7.465   5.391  66.355  1.00  0.00    -0.087 C  
HETATM    6  C   UNL     1      -7.182   5.625  67.827  1.00  0.00    -0.072 C  
HETATM    7  C   UNL     1      -8.586   6.369  66.014  1.00  0.00    -0.147 C  
HETATM    8  C   UNL     1      -8.499   6.165  68.352  1.00  0.00    -0.114 C  
ENDBRANCH   3   4
ENDBRANCH   1   3
BRANCH   2   9
HETATM    9  C   UNL     1     -10.821  11.188  67.993  1.00  0.00    -0.225 A  
HETATM   10  C   UNL     1     -10.802  12.992  66.421  1.00  0.00    -0.294 A  
HETATM   11  C   UNL     1     -11.574  13.273  68.669  1.00  0.00    -0.327 A  
HETATM   12  N   UNL     1     -11.332  11.972  68.972  1.00  0.00    -0.255 NA 
HETATM   13  C   UNL     1     -11.329  13.814  67.412  1.00  0.00    -0.348 A  
HETATM   14  C   UNL     1     -10.540  11.658  66.714  1.00  0.00    -0.280 A  
BRANCH  11  15
HETATM   15  C   UNL     1     -12.114  14.121  69.740  1.00  0.00    -0.409 C  
HETATM   16  C   UNL     1     -12.786  13.624  70.790  1.00  0.00    -0.338 C  
HETATM   17  C   UNL     1     -13.288  14.528  71.837  1.00  0.00    -0.365 C  
HETATM   18  O   UNL     1     -13.945  13.858  72.805  1.00  0.00    -0.697 OA 
HETATM   19  O   UNL     1     -13.133  15.738  71.844  1.00  0.00    -0.449 OA 
ENDBRANCH  11  15
ENDBRANCH   2   9
BRANCH   2  20
HETATM   20  C   UNL     1     -10.344   9.285  69.697  1.00  0.00    -0.227 A  
HETATM   21  C   UNL     1      -8.784   8.792  71.494  1.00  0.00    -0.274 A  
HETATM   22  C   UNL     1      -9.545   7.698  73.636  1.00  0.00    -0.333 C  
HETATM   23  C   UNL     1      -9.043   9.294  70.215  1.00  0.00    -0.271 A  
HETATM   24  C   UNL     1     -11.125   8.282  71.767  1.00  0.00    -0.342 A  
HETATM   25  C   UNL     1      -9.821   8.275  72.278  1.00  0.00    -0.364 A  
HETATM   26  C   UNL     1     -11.386   8.786  70.487  1.00  0.00    -0.255 A  
ENDBRANCH   2  20
TORSDOF 5
ENDMDL
MODEL       73
REMARK 921   NORMALIZED FREE ENERGY PREDICTED BY IDOCK:   -5.65 KCAL/MOL
REMARK 922        TOTAL FREE ENERGY PREDICTED BY IDOCK:   -8.64 KCAL/MOL
REMARK 923 INTER-LIGAND FREE ENERGY PREDICTED BY IDOCK:   -7.48 KCAL/MOL
REMARK 924 INTRA-LIGAND FREE ENERGY PREDICTED BY IDOCK:   -1.16 KCAL/MOL
REMARK 927      BINDING AFFINITY PREDICTED BY RF-SCORE:    0.00 PKD
ROOT
HETATM    1  C   UNL     1     -10.834  13.808  67.759  1.00  0.00    -0.262 C  
HETATM    2  C   UNL     1     -10.840  12.535  68.220  1.00  0.00    -0.258 C  
ENDROOT
BRANCH   1   3
HETATM    3  C   UNL     1     -10.122  14.350  66.549  1.00  0.00    -0.276 C  
BRANCH   3   4
HETATM    4  N   UNL     1      -9.758  15.766  66.691  1.00  0.00    -0.238 NA 
HETATM    5  C   UNL     1     -10.461  17.746  67.843  1.00  0.00    -0.401 C  
HETATM    6  C   UNL     1     -10.243  18.015  66.366  1.00  0.00    -0.393 C  
HETATM    7  C   UNL     1     -10.099  16.275  68.029  1.00  0.00    -0.245 C  
HETATM    8  C   UNL     1     -10.429  16.649  65.734  1.00  0.00    -0.311 C  
ENDBRANCH   3   4
ENDBRANCH   1   3
BRANCH   2   9
HETATM    9  C   UNL     1     -11.604  12.282  69.463  1.00  0.00    -0.298 A  
HETATM   10  C   UNL     1     -12.841  13.084  71.347  1.00  0.00    -0.385 A  
HETATM   11  C   UNL     1     -12.559  10.747  70.914  1.00  0.00    -0.401 A  
HETATM   12  N   UNL     1     -11.827  10.989  69.796  1.00  0.00    -0.316 NA 
HETATM   13  C   UNL     1     -13.084  11.762  71.707  1.00  0.00    -0.480 A  
HETATM   14  C   UNL     1     -12.087  13.352  70.210  1.00  0.00    -0.419 A  
BRANCH  11  15
HETATM   15  C   UNL     1     -12.785   9.341  71.277  1.00  0.00    -0.368 C  
HETATM   16  C   UNL     1     -11.801   8.535  71.704  1.00  0.00    -0.370 C  
HETATM   17  C   UNL     1     -12.098   7.141  72.067  1.00  0.00    -0.292 C  
HETATM   18  O   UNL     1     -10.992   6.479  72.463  1.00  0.00    -0.229 OA 
HETATM   19  O   UNL     1     -13.206   6.632  72.024  1.00  0.00    -0.214 OA 
ENDBRANCH  11  15
ENDBRANCH   2   9
BRANCH   2  20
HETATM   20  C   UNL     1     -10.064  11.483  67.528  1.00  0.00    -0.203 A  
HETATM   21  C   UNL     1      -9.940   9.717  65.863  1.00  0.00    -0.345 A  
HETATM   22  C   UNL     1      -7.894   8.259  65.640  1.00  0.00    -0.104 C  
HETATM   23  C   UNL     1     -10.645  10.753  66.484  1.00  0.00    -0.279 A  
HETATM   24  C   UNL     1      -8.055  10.136  67.307  1.00  0.00    -0.114 A  
HETATM   25  C   UNL     1      -8.642   9.395  66.274  1.00  0.00    -0.142 A  
HETATM   26  C   UNL     1      -8.759  11.175  67.928  1.00  0.00    -0.136 A  
ENDBRANCH   2  20
TORSDOF 5
ENDMDL
MODEL       74
REMARK 921   NORMALIZED FREE ENERGY PREDICTED BY IDOCK:   -5.63 KCAL/MOL
REMARK 922        TOTAL FREE ENERGY PREDICTED BY IDOCK:   -8.62 KCAL/MOL
REMARK 923 INTER-LIGAND FREE ENERGY PREDICTED BY IDOCK:   -7.41 KCAL/MOL
REMARK 924 INTRA-LIGAND FREE ENERGY PREDICTED BY IDOCK:   -1.21 KCAL/MOL
REMARK 927      BINDING AFFINITY PREDICTED BY RF-SCORE:    0.00 PKD
ROOT
HETATM    1  C   UNL     1     -10.256   9.270  69.340  1.00  0.00    -0.214 C  
HETATM    2  C   UNL     1     -10.958   9.282  70.498  1.00  0.00    -0.318 C  
ENDROOT
BRANCH   1   3
HETATM    3  C   UNL     1      -9.316   8.205  68.841  1.00  0.00    -0.147 C  
BRANCH   3   4
HETATM    4  N   UNL     1      -9.765   7.598  67.581  1.00  0.00    -0.147 NA 
HETATM    5  C   UNL     1     -10.513   5.496  66.708  1.00  0.00    -0.355 C  
HETATM    6  C   UNL     1      -9.434   6.104  65.832  1.00  0.00     0.025 C  
HETATM    7  C   UNL     1     -10.732   6.516  67.823  1.00  0.00    -0.296 C  
HETATM    8  C   UNL     1      -8.682   7.011  66.788  1.00  0.00    -0.123 C  
ENDBRANCH   3   4
ENDBRANCH   1   3
BRANCH   2   9
HETATM    9  C   UNL     1     -11.790  10.480  70.757  1.00  0.00    -0.365 A  
HETATM   10  C   UNL     1     -13.523  11.590  71.978  1.00  0.00    -0.298 A  
HETATM   11  C   UNL     1     -12.232  12.709  70.301  1.00  0.00    -0.271 A  
HETATM   12  N   UNL     1     -11.500  11.595  70.045  1.00  0.00    -0.233 NA 
HETATM   13  C   UNL     1     -13.241  12.747  71.258  1.00  0.00    -0.139 A  
HETATM   14  C   UNL     1     -12.789  10.436  71.724  1.00  0.00    -0.561 A  
BRANCH  11  15
HETATM   15  C   UNL     1     -11.922  13.911  69.514  1.00  0.00    -0.396 C  
HETATM   16  C   UNL     1     -11.512  13.856  68.238  1.00  0.00    -0.346 C  
HETATM   17  C   UNL     1     -11.233  15.098  67.500  1.00  0.00    -0.330 C  
HETATM   18  O   UNL     1     -10.822  14.853  66.241  1.00  0.00    -0.318 OA 
HETATM   19  O   UNL     1     -11.359  16.222  67.959  1.00  0.00    -0.313 OA 
ENDBRANCH  11  15
ENDBRANCH   2   9
BRANCH   2  20
HETATM   20  C   UNL     1     -10.835   8.168  71.462  1.00  0.00    -0.290 A  
HETATM   21  C   UNL     1     -11.542   5.978  72.243  1.00  0.00    -0.359 A  
HETATM   22  C   UNL     1     -10.652   4.993  74.388  1.00  0.00    -0.252 C  
HETATM   23  C   UNL     1     -11.609   7.012  71.304  1.00  0.00    -0.342 A  
HETATM   24  C   UNL     1      -9.913   7.230  73.505  1.00  0.00    -0.366 A  
HETATM   25  C   UNL     1     -10.700   6.081  73.354  1.00  0.00    -0.282 A  
HETATM   26  C   UNL     1      -9.978   8.265  72.564  1.00  0.00    -0.373 A  
ENDBRANCH   2  20
TORSDOF 5
ENDMDL
MODEL       75
REMARK 921   NORMALIZED FREE ENERGY PREDICTED BY IDOCK:   -5.61 KCAL/MOL
REMARK 922        TOTAL FREE ENERGY PREDICTED BY IDOCK:   -8.59 KCAL/MOL
REMARK 923 INTER-LIGAND FREE ENERGY PREDICTED BY IDOCK:   -7.28 KCAL/MOL
REMARK 924 INTRA-LIGAND FREE ENERGY PREDICTED BY IDOCK:   -1.32 KCAL/MOL
REMARK 927      BINDING AFFINITY PREDICTED BY RF-SCORE:    0.00 PKD
ROOT
HETATM    1  C   UNL     1     -10.837   9.551  70.405  1.00  0.00    -0.338 C  
HETATM    2  C   UNL     1     -10.579   9.255  69.109  1.00  0.00    -0.228 C  
ENDROOT
BRANCH   1   3
HETATM    3  C   UNL     1     -10.747   8.637  71.598  1.00  0.00    -0.303 C  
BRANCH   3   4
HETATM    4  N   UNL     1     -12.060   8.337  72.183  1.00  0.00    -0.345 NA 
HETATM    5  C   UNL     1     -14.179   7.396  71.580  1.00  0.00    -0.583 C  
HETATM    6  C   UNL     1     -14.349   8.718  72.304  1.00  0.00    -0.468 C  
HETATM    7  C   UNL     1     -12.672   7.158  71.551  1.00  0.00    -0.393 C  
HETATM    8  C   UNL     1     -13.031   9.425  72.048  1.00  0.00    -0.423 C  
ENDBRANCH   3   4
ENDBRANCH   1   3
BRANCH   2   9
HETATM    9  C   UNL     1     -10.783  10.344  68.126  1.00  0.00    -0.236 A  
HETATM   10  C   UNL     1     -11.786  12.423  67.499  1.00  0.00    -0.425 A  
HETATM   11  C   UNL     1     -10.219  11.291  66.087  1.00  0.00    -0.245 A  
HETATM   12  N   UNL     1     -10.068  10.278  66.978  1.00  0.00    -0.208 NA 
HETATM   13  C   UNL     1     -11.059  12.376  66.313  1.00  0.00    -0.344 A  
HETATM   14  C   UNL     1     -11.650  11.391  68.420  1.00  0.00    -0.385 A  
BRANCH  11  15
HETATM   15  C   UNL     1      -9.452  11.205  64.837  1.00  0.00    -0.251 C  
HETATM   16  C   UNL     1      -9.317  10.064  64.145  1.00  0.00    -0.335 C  
HETATM   17  C   UNL     1      -8.547  10.049  62.891  1.00  0.00    -0.193 C  
HETATM   18  O   UNL     1      -8.509   8.820  62.340  1.00  0.00    -0.194 OA 
HETATM   19  O   UNL     1      -8.007  11.025  62.396  1.00  0.00    -0.172 OA 
ENDBRANCH  11  15
ENDBRANCH   2   9
BRANCH   2  20
HETATM   20  C   UNL     1     -10.172   7.888  68.718  1.00  0.00    -0.218 A  
HETATM   21  C   UNL     1     -10.731   5.721  67.771  1.00  0.00    -0.306 A  
HETATM   22  C   UNL     1      -9.073   3.820  67.764  1.00  0.00    -0.192 C  
HETATM   23  C   UNL     1     -11.088   7.034  68.092  1.00  0.00    -0.097 A  
HETATM   24  C   UNL     1      -8.530   6.099  68.680  1.00  0.00    -0.114 A  
HETATM   25  C   UNL     1      -9.452   5.240  68.069  1.00  0.00    -0.147 A  
HETATM   26  C   UNL     1      -8.886   7.415  69.000  1.00  0.00    -0.132 A  
ENDBRANCH   2  20
TORSDOF 5
ENDMDL
MODEL       76
REMARK 921   NORMALIZED FREE ENERGY PREDICTED BY IDOCK:   -5.61 KCAL/MOL
REMARK 922        TOTAL FREE ENERGY PREDICTED BY IDOCK:   -8.59 KCAL/MOL
REMARK 923 INTER-LIGAND FREE ENERGY PREDICTED BY IDOCK:   -7.60 KCAL/MOL
REMARK 924 INTRA-LIGAND FREE ENERGY PREDICTED BY IDOCK:   -0.99 KCAL/MOL
REMARK 927      BINDING AFFINITY PREDICTED BY RF-SCORE:    0.00 PKD
ROOT
HETATM    1  C   UNL     1     -10.869   9.104  67.663  1.00  0.00    -0.160 C  
HETATM    2  C   UNL     1     -10.339  10.236  67.143  1.00  0.00    -0.292 C  
ENDROOT
BRANCH   1   3
HETATM    3  C   UNL     1     -10.651   7.686  67.206  1.00  0.00    -0.318 C  
BRANCH   3   4
HETATM    4  N   UNL     1     -10.097   6.828  68.262  1.00  0.00    -0.154 NA 
HETATM    5  C   UNL     1      -9.728   4.513  68.756  1.00  0.00    -0.213 C  
HETATM    6  C   UNL     1     -10.390   5.227  69.920  1.00  0.00    -0.374 C  
HETATM    7  C   UNL     1      -9.517   5.597  67.703  1.00  0.00    -0.115 C  
HETATM    8  C   UNL     1     -11.084   6.402  69.256  1.00  0.00    -0.373 C  
ENDBRANCH   3   4
ENDBRANCH   1   3
BRANCH   2   9
HETATM    9  C   UNL     1     -10.752  11.512  67.771  1.00  0.00    -0.207 A  
HETATM   10  C   UNL     1     -11.636  12.727  69.633  1.00  0.00    -0.322 A  
HETATM   11  C   UNL     1     -10.878  13.823  67.644  1.00  0.00    -0.254 A  
HETATM   12  N   UNL     1     -10.537  12.645  67.062  1.00  0.00    -0.238 NA 
HETATM   13  C   UNL     1     -11.421  13.904  68.922  1.00  0.00    -0.340 A  
HETATM   14  C   UNL     1     -11.300  11.511  69.050  1.00  0.00    -0.339 A  
BRANCH  11  15
HETATM   15  C   UNL     1     -10.655  15.047  66.863  1.00  0.00    -0.297 C  
HETATM   16  C   UNL     1     -11.189  15.240  65.648  1.00  0.00    -0.256 C  
HETATM   17  C   UNL     1     -10.940  16.496  64.924  1.00  0.00    -0.209 C  
HETATM   18  O   UNL     1     -11.543  16.511  63.719  1.00  0.00    -1.109 OA 
HETATM   19  O   UNL     1     -10.272  17.424  65.352  1.00  0.00    -0.603 OA 
ENDBRANCH  11  15
ENDBRANCH   2   9
BRANCH   2  20
HETATM   20  C   UNL     1      -9.442  10.175  65.969  1.00  0.00    -0.248 A  
HETATM   21  C   UNL     1      -9.132  10.208  63.559  1.00  0.00    -0.302 A  
HETATM   22  C   UNL     1      -6.875   9.782  62.515  1.00  0.00    -0.109 C  
HETATM   23  C   UNL     1      -9.963  10.323  64.677  1.00  0.00    -0.377 A  
HETATM   24  C   UNL     1      -7.242   9.814  65.004  1.00  0.00    -0.127 A  
HETATM   25  C   UNL     1      -7.766   9.946  63.712  1.00  0.00    -0.143 A  
HETATM   26  C   UNL     1      -8.073   9.931  66.125  1.00  0.00    -0.119 A  
ENDBRANCH   2  20
TORSDOF 5
ENDMDL
MODEL       77
REMARK 921   NORMALIZED FREE ENERGY PREDICTED BY IDOCK:   -5.60 KCAL/MOL
REMARK 922        TOTAL FREE ENERGY PREDICTED BY IDOCK:   -8.58 KCAL/MOL
REMARK 923 INTER-LIGAND FREE ENERGY PREDICTED BY IDOCK:   -7.52 KCAL/MOL
REMARK 924 INTRA-LIGAND FREE ENERGY PREDICTED BY IDOCK:   -1.05 KCAL/MOL
REMARK 927      BINDING AFFINITY PREDICTED BY RF-SCORE:    0.00 PKD
ROOT
HETATM    1  C   UNL     1     -11.592  13.880  68.432  1.00  0.00    -0.368 C  
HETATM    2  C   UNL     1     -11.413  12.546  68.286  1.00  0.00    -0.355 C  
ENDROOT
BRANCH   1   3
HETATM    3  C   UNL     1     -11.300  14.968  67.433  1.00  0.00    -0.332 C  
BRANCH   3   4
HETATM    4  N   UNL     1      -9.958  15.542  67.596  1.00  0.00    -0.232 NA 
HETATM    5  C   UNL     1      -7.655  14.981  67.249  1.00  0.00    -0.227 C  
HETATM    6  C   UNL     1      -7.881  15.551  68.637  1.00  0.00    -0.143 C  
HETATM    7  C   UNL     1      -9.026  15.024  66.582  1.00  0.00    -0.281 C  
HETATM    8  C   UNL     1      -9.347  15.259  68.897  1.00  0.00    -0.213 C  
ENDBRANCH   3   4
ENDBRANCH   1   3
BRANCH   2   9
HETATM    9  C   UNL     1     -11.755  11.699  69.451  1.00  0.00    -0.340 A  
HETATM   10  C   UNL     1     -12.888  11.380  71.534  1.00  0.00    -0.508 A  
HETATM   11  C   UNL     1     -11.637   9.628  70.486  1.00  0.00    -0.272 A  
HETATM   12  N   UNL     1     -11.298  10.424  69.440  1.00  0.00    -0.250 NA 
HETATM   13  C   UNL     1     -12.430  10.066  71.542  1.00  0.00    -0.516 A  
HETATM   14  C   UNL     1     -12.544  12.212  70.475  1.00  0.00    -0.184 A  
BRANCH  11  15
HETATM   15  C   UNL     1     -11.125   8.251  70.475  1.00  0.00    -0.259 C  
HETATM   16  C   UNL     1     -11.379   7.375  71.459  1.00  0.00    -0.285 C  
HETATM   17  C   UNL     1     -10.849   6.004  71.379  1.00  0.00    -0.270 C  
HETATM   18  O   UNL     1     -11.193   5.270  72.455  1.00  0.00    -0.250 OA 
HETATM   19  O   UNL     1     -10.182   5.570  70.455  1.00  0.00    -0.212 OA 
ENDBRANCH  11  15
ENDBRANCH   2   9
BRANCH   2  20
HETATM   20  C   UNL     1     -10.847  11.998  67.035  1.00  0.00    -0.297 A  
HETATM   21  C   UNL     1     -11.106  11.421  64.688  1.00  0.00    -0.277 A  
HETATM   22  C   UNL     1      -9.295  10.203  63.424  1.00  0.00    -0.334 C  
HETATM   23  C   UNL     1     -11.611  11.990  65.861  1.00  0.00    -0.364 A  
HETATM   24  C   UNL     1      -9.057  10.874  65.837  1.00  0.00    -0.212 A  
HETATM   25  C   UNL     1      -9.829  10.852  64.668  1.00  0.00    -0.350 A  
HETATM   26  C   UNL     1      -9.562  11.445  67.012  1.00  0.00    -0.192 A  
ENDBRANCH   2  20
TORSDOF 5
ENDMDL
MODEL       78
REMARK 921   NORMALIZED FREE ENERGY PREDICTED BY IDOCK:   -5.60 KCAL/MOL
REMARK 922        TOTAL FREE ENERGY PREDICTED BY IDOCK:   -8.57 KCAL/MOL
REMARK 923 INTER-LIGAND FREE ENERGY PREDICTED BY IDOCK:   -8.53 KCAL/MOL
REMARK 924 INTRA-LIGAND FREE ENERGY PREDICTED BY IDOCK:   -0.05 KCAL/MOL
REMARK 927      BINDING AFFINITY PREDICTED BY RF-SCORE:    0.00 PKD
ROOT
HETATM    1  C   UNL     1      -9.930   8.865  70.661  1.00  0.00    -0.265 C  
HETATM    2  C   UNL     1     -10.435   9.809  69.832  1.00  0.00    -0.298 C  
ENDROOT
BRANCH   1   3
HETATM    3  C   UNL     1     -10.219   8.670  72.125  1.00  0.00    -0.323 C  
BRANCH   3   4
HETATM    4  N   UNL     1     -10.822   7.362  72.416  1.00  0.00    -0.244 NA 
HETATM    5  C   UNL     1     -10.429   5.400  73.733  1.00  0.00    -0.305 C  
HETATM    6  C   UNL     1     -10.762   5.043  72.297  1.00  0.00    -0.246 C  
HETATM    7  C   UNL     1     -10.513   6.923  73.786  1.00  0.00    -0.357 C  
HETATM    8  C   UNL     1     -10.365   6.290  71.529  1.00  0.00    -0.204 C  
ENDBRANCH   3   4
ENDBRANCH   1   3
BRANCH   2   9
HETATM    9  C   UNL     1      -9.951   9.791  68.433  1.00  0.00    -0.156 A  
HETATM   10  C   UNL     1      -8.472   8.950  66.750  1.00  0.00    -0.117 A  
HETATM   11  C   UNL     1     -10.207  10.521  66.247  1.00  0.00    -0.235 A  
HETATM   12  N   UNL     1     -10.620  10.559  67.540  1.00  0.00    -0.239 NA 
HETATM   13  C   UNL     1      -9.148   9.729  65.816  1.00  0.00    -0.221 A  
HETATM   14  C   UNL     1      -8.876   8.981  68.080  1.00  0.00    -0.133 A  
BRANCH  11  15
HETATM   15  C   UNL     1     -10.929  11.367  65.287  1.00  0.00    -0.251 C  
HETATM   16  C   UNL     1     -11.790  12.323  65.667  1.00  0.00    -0.423 C  
HETATM   17  C   UNL     1     -12.469  13.147  64.655  1.00  0.00    -0.373 C  
HETATM   18  O   UNL     1     -13.303  14.046  65.215  1.00  0.00    -0.741 OA 
HETATM   19  O   UNL     1     -12.304  13.044  63.450  1.00  0.00    -0.682 OA 
ENDBRANCH  11  15
ENDBRANCH   2   9
BRANCH   2  20
HETATM   20  C   UNL     1     -11.376  10.829  70.341  1.00  0.00    -0.342 A  
HETATM   21  C   UNL     1     -12.176  13.124  70.364  1.00  0.00    -0.389 A  
HETATM   22  C   UNL     1     -13.968  13.878  71.971  1.00  0.00    -0.585 C  
HETATM   23  C   UNL     1     -11.330  12.138  69.847  1.00  0.00    -0.109 A  
HETATM   24  C   UNL     1     -13.143  11.504  71.866  1.00  0.00    -0.492 A  
HETATM   25  C   UNL     1     -13.084  12.817  71.382  1.00  0.00    -0.318 A  
HETATM   26  C   UNL     1     -12.297  10.516  71.347  1.00  0.00    -0.477 A  
ENDBRANCH   2  20
TORSDOF 5
ENDMDL
MODEL       79
REMARK 921   NORMALIZED FREE ENERGY PREDICTED BY IDOCK:   -5.59 KCAL/MOL
REMARK 922        TOTAL FREE ENERGY PREDICTED BY IDOCK:   -8.56 KCAL/MOL
REMARK 923 INTER-LIGAND FREE ENERGY PREDICTED BY IDOCK:   -7.45 KCAL/MOL
REMARK 924 INTRA-LIGAND FREE ENERGY PREDICTED BY IDOCK:   -1.10 KCAL/MOL
REMARK 927      BINDING AFFINITY PREDICTED BY RF-SCORE:    0.00 PKD
ROOT
HETATM    1  C   UNL     1      -9.977  12.437  68.985  1.00  0.00     0.191 C  
HETATM    2  C   UNL     1      -9.807  13.240  67.908  1.00  0.00    -0.234 C  
ENDROOT
BRANCH   1   3
HETATM    3  C   UNL     1     -10.868  11.229  69.105  1.00  0.00    -0.222 C  
BRANCH   3   4
HETATM    4  N   UNL     1     -12.092  11.502  69.871  1.00  0.00    -0.319 NA 
HETATM    5  C   UNL     1     -12.894  12.919  71.628  1.00  0.00    -0.368 C  
HETATM    6  C   UNL     1     -13.267  11.469  71.875  1.00  0.00    -0.479 C  
HETATM    7  C   UNL     1     -12.159  12.910  70.290  1.00  0.00    -0.302 C  
HETATM    8  C   UNL     1     -12.216  10.703  71.092  1.00  0.00    -0.374 C  
ENDBRANCH   3   4
ENDBRANCH   1   3
BRANCH   2   9
HETATM    9  C   UNL     1      -8.886  14.388  68.076  1.00  0.00    -0.178 A  
HETATM   10  C   UNL     1      -6.724  15.265  68.604  1.00  0.00    -0.101 A  
HETATM   11  C   UNL     1      -8.523  16.669  67.880  1.00  0.00    -0.194 A  
HETATM   12  N   UNL     1      -9.370  15.615  67.765  1.00  0.00    -0.201 NA 
HETATM   13  C   UNL     1      -7.200  16.534  68.288  1.00  0.00    -0.159 A  
HETATM   14  C   UNL     1      -7.579  14.174  68.500  1.00  0.00    -0.129 A  
BRANCH  11  15
HETATM   15  C   UNL     1      -9.058  17.998  67.556  1.00  0.00    -0.253 C  
HETATM   16  C   UNL     1      -9.808  18.233  66.468  1.00  0.00    -0.363 C  
HETATM   17  C   UNL     1     -10.326  19.585  66.209  1.00  0.00    -0.506 C  
HETATM   18  O   UNL     1     -11.047  19.637  65.071  1.00  0.00    -0.276 OA 
HETATM   19  O   UNL     1     -10.139  20.551  66.930  1.00  0.00    -0.427 OA 
ENDBRANCH  11  15
ENDBRANCH   2   9
BRANCH   2  20
HETATM   20  C   UNL     1     -10.561  12.993  66.661  1.00  0.00    -0.275 A  
HETATM   21  C   UNL     1     -12.638  13.108  65.404  1.00  0.00    -0.512 A  
HETATM   22  C   UNL     1     -12.846  12.087  63.107  1.00  0.00    -0.184 C  
HETATM   23  C   UNL     1     -11.900  13.389  66.558  1.00  0.00    -0.443 A  
HETATM   24  C   UNL     1     -10.705  12.047  64.428  1.00  0.00    -0.369 A  
HETATM   25  C   UNL     1     -12.050  12.428  64.333  1.00  0.00    -0.505 A  
HETATM   26  C   UNL     1      -9.965  12.329  65.583  1.00  0.00    -0.271 A  
ENDBRANCH   2  20
TORSDOF 5
ENDMDL
MODEL       80
REMARK 921   NORMALIZED FREE ENERGY PREDICTED BY IDOCK:   -5.58 KCAL/MOL
REMARK 922        TOTAL FREE ENERGY PREDICTED BY IDOCK:   -8.55 KCAL/MOL
REMARK 923 INTER-LIGAND FREE ENERGY PREDICTED BY IDOCK:   -7.23 KCAL/MOL
REMARK 924 INTRA-LIGAND FREE ENERGY PREDICTED BY IDOCK:   -1.32 KCAL/MOL
REMARK 927      BINDING AFFINITY PREDICTED BY RF-SCORE:    0.00 PKD
ROOT
HETATM    1  C   UNL     1      -9.898   9.168  69.164  1.00  0.00    -0.171 C  
HETATM    2  C   UNL     1     -10.253   8.815  70.422  1.00  0.00    -0.228 C  
ENDROOT
BRANCH   1   3
HETATM    3  C   UNL     1      -8.704   8.700  68.375  1.00  0.00    -0.142 C  
BRANCH   3   4
HETATM    4  N   UNL     1      -9.049   7.686  67.370  1.00  0.00    -0.125 NA 
HETATM    5  C   UNL     1     -10.773   6.101  66.864  1.00  0.00    -0.413 C  
HETATM    6  C   UNL     1      -9.398   5.465  66.784  1.00  0.00    -0.136 C  
HETATM    7  C   UNL     1     -10.507   7.563  67.213  1.00  0.00    -0.321 C  
HETATM    8  C   UNL     1      -8.557   6.344  67.691  1.00  0.00    -0.115 C  
ENDBRANCH   3   4
ENDBRANCH   1   3
BRANCH   2   9
HETATM    9  C   UNL     1     -11.469   9.457  70.973  1.00  0.00    -0.334 A  
HETATM   10  C   UNL     1     -13.505   9.336  72.224  1.00  0.00    -0.548 A  
HETATM   11  C   UNL     1     -12.690  11.397  71.318  1.00  0.00    -0.393 A  
HETATM   12  N   UNL     1     -11.598  10.792  70.785  1.00  0.00    -0.299 NA 
HETATM   13  C   UNL     1     -13.656  10.708  72.044  1.00  0.00    -0.187 A  
HETATM   14  C   UNL     1     -12.396   8.698  71.679  1.00  0.00    -0.384 A  
BRANCH  11  15
HETATM   15  C   UNL     1     -12.831  12.843  71.098  1.00  0.00    -0.326 C  
HETATM   16  C   UNL     1     -13.467  13.650  71.961  1.00  0.00    -0.573 C  
HETATM   17  C   UNL     1     -13.560  15.093  71.688  1.00  0.00    -0.467 C  
HETATM   18  O   UNL     1     -14.240  15.743  72.653  1.00  0.00    -0.554 OA 
HETATM   19  O   UNL     1     -13.080  15.648  70.714  1.00  0.00    -0.477 OA 
ENDBRANCH  11  15
ENDBRANCH   2   9
BRANCH   2  20
HETATM   20  C   UNL     1      -9.417   7.879  71.204  1.00  0.00    -0.180 A  
HETATM   21  C   UNL     1      -8.865   5.606  71.865  1.00  0.00    -0.137 A  
HETATM   22  C   UNL     1      -7.135   5.134  73.639  1.00  0.00    -0.082 C  
HETATM   23  C   UNL     1      -9.611   6.497  71.087  1.00  0.00    -0.181 A  
HETATM   24  C   UNL     1      -7.706   7.463  72.876  1.00  0.00    -0.104 A  
HETATM   25  C   UNL     1      -7.912   6.082  72.771  1.00  0.00    -0.107 A  
HETATM   26  C   UNL     1      -8.451   8.356  72.096  1.00  0.00    -0.245 A  
ENDBRANCH   2  20
TORSDOF 5
ENDMDL
MODEL       81
REMARK 921   NORMALIZED FREE ENERGY PREDICTED BY IDOCK:   -5.56 KCAL/MOL
REMARK 922        TOTAL FREE ENERGY PREDICTED BY IDOCK:   -8.53 KCAL/MOL
REMARK 923 INTER-LIGAND FREE ENERGY PREDICTED BY IDOCK:   -7.68 KCAL/MOL
REMARK 924 INTRA-LIGAND FREE ENERGY PREDICTED BY IDOCK:   -0.85 KCAL/MOL
REMARK 927      BINDING AFFINITY PREDICTED BY RF-SCORE:    0.00 PKD
ROOT
HETATM    1  C   UNL     1      -9.625   9.827  66.857  1.00  0.00    -0.228 C  
HETATM    2  C   UNL     1      -9.852  10.750  67.822  1.00  0.00    -0.186 C  
ENDROOT
BRANCH   1   3
HETATM    3  C   UNL     1     -10.194   8.437  66.756  1.00  0.00    -0.306 C  
BRANCH   3   4
HETATM    4  N   UNL     1      -9.159   7.412  66.569  1.00  0.00    -0.157 NA 
HETATM    5  C   UNL     1      -8.153   6.099  64.836  1.00  0.00    -0.132 C  
HETATM    6  C   UNL     1      -8.548   5.238  66.021  1.00  0.00    -0.124 C  
HETATM    7  C   UNL     1      -8.532   7.520  65.242  1.00  0.00    -0.063 C  
HETATM    8  C   UNL     1      -9.658   6.039  66.676  1.00  0.00    -0.154 C  
ENDBRANCH   3   4
ENDBRANCH   1   3
BRANCH   2   9
HETATM    9  C   UNL     1      -9.129  12.036  67.692  1.00  0.00    -0.179 A  
HETATM   10  C   UNL     1      -7.184  13.380  68.056  1.00  0.00    -0.123 A  
HETATM   11  C   UNL     1      -9.081  14.193  66.844  1.00  0.00    -0.245 A  
HETATM   12  N   UNL     1      -9.750  13.023  67.002  1.00  0.00    -0.229 NA 
HETATM   13  C   UNL     1      -7.802  14.406  67.349  1.00  0.00    -0.211 A  
HETATM   14  C   UNL     1      -7.856  12.176  68.234  1.00  0.00    -0.153 A  
BRANCH  11  15
HETATM   15  C   UNL     1      -9.766  15.264  66.108  1.00  0.00    -0.343 C  
HETATM   16  C   UNL     1     -10.778  15.028  65.259  1.00  0.00    -0.406 C  
HETATM   17  C   UNL     1     -11.432  16.147  64.563  1.00  0.00    -0.230 C  
HETATM   18  O   UNL     1     -12.416  15.724  63.745  1.00  0.00    -0.674 OA 
HETATM   19  O   UNL     1     -11.134  17.322  64.704  1.00  0.00    -1.052 OA 
ENDBRANCH  11  15
ENDBRANCH   2   9
BRANCH   2  20
HETATM   20  C   UNL     1     -10.734  10.439  68.966  1.00  0.00    -0.260 A  
HETATM   21  C   UNL     1     -11.253   9.072  70.908  1.00  0.00    -0.348 A  
HETATM   22  C   UNL     1     -13.406   9.368  72.189  1.00  0.00    -0.545 C  
HETATM   23  C   UNL     1     -10.396   9.412  69.857  1.00  0.00    -0.252 A  
HETATM   24  C   UNL     1     -12.793  10.791  70.207  1.00  0.00    -0.226 A  
HETATM   25  C   UNL     1     -12.462   9.753  71.088  1.00  0.00    -0.443 A  
HETATM   26  C   UNL     1     -11.934  11.134  69.156  1.00  0.00    -0.413 A  
ENDBRANCH   2  20
TORSDOF 5
ENDMDL
MODEL       82
REMARK 921   NORMALIZED FREE ENERGY PREDICTED BY IDOCK:   -5.56 KCAL/MOL
REMARK 922        TOTAL FREE ENERGY PREDICTED BY IDOCK:   -8.53 KCAL/MOL
REMARK 923 INTER-LIGAND FREE ENERGY PREDICTED BY IDOCK:   -7.18 KCAL/MOL
REMARK 924 INTRA-LIGAND FREE ENERGY PREDICTED BY IDOCK:   -1.34 KCAL/MOL
REMARK 927      BINDING AFFINITY PREDICTED BY RF-SCORE:    0.00 PKD
ROOT
HETATM    1  C   UNL     1     -11.503   7.539  70.344  1.00  0.00    -0.219 C  
HETATM    2  C   UNL     1     -10.960   8.578  71.022  1.00  0.00    -0.296 C  
ENDROOT
BRANCH   1   3
HETATM    3  C   UNL     1     -11.073   6.097  70.364  1.00  0.00    -0.352 C  
BRANCH   3   4
HETATM    4  N   UNL     1     -10.486   5.662  69.090  1.00  0.00    -0.257 NA 
HETATM    5  C   UNL     1      -8.728   6.249  67.572  1.00  0.00    -0.105 C  
HETATM    6  C   UNL     1     -10.041   6.040  66.841  1.00  0.00    -0.229 C  
HETATM    7  C   UNL     1      -9.045   5.957  69.036  1.00  0.00    -0.121 C  
HETATM    8  C   UNL     1     -11.080   6.303  67.915  1.00  0.00    -0.258 C  
ENDBRANCH   3   4
ENDBRANCH   1   3
BRANCH   2   9
HETATM    9  C   UNL     1     -11.564   9.910  70.789  1.00  0.00    -0.349 A  
HETATM   10  C   UNL     1     -12.938  11.730  71.513  1.00  0.00    -0.446 A  
HETATM   11  C   UNL     1     -11.730  11.793  69.447  1.00  0.00    -0.341 A  
HETATM   12  N   UNL     1     -11.211  10.556  69.652  1.00  0.00    -0.262 NA 
HETATM   13  C   UNL     1     -12.587  12.412  70.352  1.00  0.00    -0.101 A  
HETATM   14  C   UNL     1     -12.422  10.459  71.737  1.00  0.00    -0.400 A  
BRANCH  11  15
HETATM   15  C   UNL     1     -11.355  12.481  68.204  1.00  0.00    -0.343 C  
HETATM   16  C   UNL     1     -12.258  12.894  67.302  1.00  0.00    -0.119 C  
HETATM   17  C   UNL     1     -11.817  13.592  66.085  1.00  0.00    -0.392 C  
HETATM   18  O   UNL     1     -12.854  13.922  65.291  1.00  0.00    -0.689 OA 
HETATM   19  O   UNL     1     -10.656  13.851  65.815  1.00  0.00    -0.284 OA 
ENDBRANCH  11  15
ENDBRANCH   2   9
BRANCH   2  20
HETATM   20  C   UNL     1      -9.786   8.372  71.896  1.00  0.00    -0.331 A  
HETATM   21  C   UNL     1      -7.379   8.418  72.226  1.00  0.00    -0.126 A  
HETATM   22  C   UNL     1      -6.325   7.573  74.356  1.00  0.00    -0.085 C  
HETATM   23  C   UNL     1      -8.499   8.665  71.427  1.00  0.00    -0.240 A  
HETATM   24  C   UNL     1      -8.813   7.601  73.984  1.00  0.00    -0.305 A  
HETATM   25  C   UNL     1      -7.525   7.878  73.508  1.00  0.00    -0.175 A  
HETATM   26  C   UNL     1      -9.936   7.849  73.185  1.00  0.00    -0.358 A  
ENDBRANCH   2  20
TORSDOF 5
ENDMDL
MODEL       83
REMARK 921   NORMALIZED FREE ENERGY PREDICTED BY IDOCK:   -5.56 KCAL/MOL
REMARK 922        TOTAL FREE ENERGY PREDICTED BY IDOCK:   -8.52 KCAL/MOL
REMARK 923 INTER-LIGAND FREE ENERGY PREDICTED BY IDOCK:   -7.42 KCAL/MOL
REMARK 924 INTRA-LIGAND FREE ENERGY PREDICTED BY IDOCK:   -1.10 KCAL/MOL
REMARK 927      BINDING AFFINITY PREDICTED BY RF-SCORE:    0.00 PKD
ROOT
HETATM    1  C   UNL     1     -11.117   8.457  70.263  1.00  0.00    -0.216 C  
HETATM    2  C   UNL     1     -10.372   8.483  69.132  1.00  0.00    -0.227 C  
ENDROOT
BRANCH   1   3
HETATM    3  C   UNL     1     -11.715   7.256  70.948  1.00  0.00    -0.315 C  
BRANCH   3   4
HETATM    4  N   UNL     1     -10.841   6.706  71.993  1.00  0.00    -0.227 NA 
HETATM    5  C   UNL     1     -10.878   5.111  73.779  1.00  0.00    -0.345 C  
HETATM    6  C   UNL     1     -10.302   6.438  74.237  1.00  0.00    -0.311 C  
HETATM    7  C   UNL     1     -11.185   5.309  72.298  1.00  0.00    -0.114 C  
HETATM    8  C   UNL     1     -10.907   7.432  73.263  1.00  0.00    -0.368 C  
ENDBRANCH   3   4
ENDBRANCH   1   3
BRANCH   2   9
HETATM    9  C   UNL     1      -9.937   9.816  68.656  1.00  0.00    -0.167 A  
HETATM   10  C   UNL     1      -8.250  11.496  68.419  1.00  0.00    -0.152 A  
HETATM   11  C   UNL     1     -10.432  11.744  67.467  1.00  0.00    -0.202 A  
HETATM   12  N   UNL     1     -10.834  10.536  67.940  1.00  0.00    -0.260 NA 
HETATM   13  C   UNL     1      -9.155  12.251  67.680  1.00  0.00    -0.184 A  
HETATM   14  C   UNL     1      -8.645  10.260  68.919  1.00  0.00    -0.150 A  
BRANCH  11  15
HETATM   15  C   UNL     1     -11.415  12.526  66.704  1.00  0.00    -0.417 C  
HETATM   16  C   UNL     1     -11.568  12.401  65.377  1.00  0.00    -0.426 C  
HETATM   17  C   UNL     1     -12.582  13.204  64.674  1.00  0.00    -0.322 C  
HETATM   18  O   UNL     1     -12.587  12.957  63.350  1.00  0.00    -0.709 OA 
HETATM   19  O   UNL     1     -13.336  13.997  65.214  1.00  0.00    -0.741 OA 
ENDBRANCH  11  15
ENDBRANCH   2   9
BRANCH   2  20
HETATM   20  C   UNL     1     -10.075   7.234  68.400  1.00  0.00    -0.188 A  
HETATM   21  C   UNL     1     -10.658   5.616  66.682  1.00  0.00    -0.361 A  
HETATM   22  C   UNL     1      -9.352   3.478  66.389  1.00  0.00    -0.184 C  
HETATM   23  C   UNL     1     -10.897   6.825  67.343  1.00  0.00    -0.417 A  
HETATM   24  C   UNL     1      -8.758   5.213  68.112  1.00  0.00    -0.103 A  
HETATM   25  C   UNL     1      -9.592   4.797  67.066  1.00  0.00    -0.187 A  
HETATM   26  C   UNL     1      -8.996   6.424  68.773  1.00  0.00    -0.126 A  
ENDBRANCH   2  20
TORSDOF 5
ENDMDL
MODEL       84
REMARK 921   NORMALIZED FREE ENERGY PREDICTED BY IDOCK:   -5.51 KCAL/MOL
REMARK 922        TOTAL FREE ENERGY PREDICTED BY IDOCK:   -8.46 KCAL/MOL
REMARK 923 INTER-LIGAND FREE ENERGY PREDICTED BY IDOCK:   -7.05 KCAL/MOL
REMARK 924 INTRA-LIGAND FREE ENERGY PREDICTED BY IDOCK:   -1.41 KCAL/MOL
REMARK 927      BINDING AFFINITY PREDICTED BY RF-SCORE:    0.00 PKD
ROOT
HETATM    1  C   UNL     1      -9.439   6.991  70.507  1.00  0.00    -0.166 C  
HETATM    2  C   UNL     1     -10.303   7.872  69.950  1.00  0.00    -0.224 C  
ENDROOT
BRANCH   1   3
HETATM    3  C   UNL     1      -8.118   6.520  69.959  1.00  0.00    -0.121 C  
BRANCH   3   4
HETATM    4  N   UNL     1      -8.193   5.172  69.379  1.00  0.00    -0.086 NA 
HETATM    5  C   UNL     1      -8.737   4.075  67.321  1.00  0.00    -0.120 C  
HETATM    6  C   UNL     1      -9.440   3.423  68.496  1.00  0.00    -0.209 C  
HETATM    7  C   UNL     1      -7.899   5.192  67.938  1.00  0.00    -0.091 C  
HETATM    8  C   UNL     1      -9.505   4.538  69.523  1.00  0.00    -0.174 C  
ENDBRANCH   3   4
ENDBRANCH   1   3
BRANCH   2   9
HETATM    9  C   UNL     1     -11.557   8.132  70.695  1.00  0.00    -0.194 A  
HETATM   10  C   UNL     1     -13.521   7.342  71.808  1.00  0.00    -0.373 A  
HETATM   11  C   UNL     1     -12.956   9.667  71.726  1.00  0.00    -0.420 A  
HETATM   12  N   UNL     1     -11.828   9.421  71.011  1.00  0.00    -0.305 NA 
HETATM   13  C   UNL     1     -13.818   8.659  72.145  1.00  0.00    -0.482 A  
HETATM   14  C   UNL     1     -12.375   7.072  71.069  1.00  0.00    -0.402 A  
BRANCH  11  15
HETATM   15  C   UNL     1     -13.252  11.068  72.052  1.00  0.00    -0.447 C  
HETATM   16  C   UNL     1     -12.844  12.093  71.288  1.00  0.00    -0.349 C  
HETATM   17  C   UNL     1     -13.188  13.473  71.663  1.00  0.00    -0.366 C  
HETATM   18  O   UNL     1     -12.688  14.370  70.789  1.00  0.00    -0.331 OA 
HETATM   19  O   UNL     1     -13.848  13.784  72.640  1.00  0.00    -0.691 OA 
ENDBRANCH  11  15
ENDBRANCH   2   9
BRANCH   2  20
HETATM   20  C   UNL     1     -10.010   8.483  68.636  1.00  0.00    -0.197 A  
HETATM   21  C   UNL     1      -9.107  10.322  67.329  1.00  0.00    -0.150 A  
HETATM   22  C   UNL     1      -9.337  10.391  64.818  1.00  0.00    -0.301 C  
HETATM   23  C   UNL     1      -9.337   9.708  68.564  1.00  0.00    -0.138 A  
HETATM   24  C   UNL     1     -10.203   8.486  66.215  1.00  0.00    -0.065 A  
HETATM   25  C   UNL     1      -9.545   9.720  66.145  1.00  0.00    -0.287 A  
HETATM   26  C   UNL     1     -10.432   7.870  67.451  1.00  0.00    -0.360 A  
ENDBRANCH   2  20
TORSDOF 5
ENDMDL
MODEL       85
REMARK 921   NORMALIZED FREE ENERGY PREDICTED BY IDOCK:   -5.49 KCAL/MOL
REMARK 922        TOTAL FREE ENERGY PREDICTED BY IDOCK:   -8.44 KCAL/MOL
REMARK 923 INTER-LIGAND FREE ENERGY PREDICTED BY IDOCK:   -7.20 KCAL/MOL
REMARK 924 INTRA-LIGAND FREE ENERGY PREDICTED BY IDOCK:   -1.23 KCAL/MOL
REMARK 927      BINDING AFFINITY PREDICTED BY RF-SCORE:    0.00 PKD
ROOT
HETATM    1  C   UNL     1     -11.375   8.724  70.335  1.00  0.00    -0.213 C  
HETATM    2  C   UNL     1     -10.776   8.906  69.135  1.00  0.00    -0.162 C  
ENDROOT
BRANCH   1   3
HETATM    3  C   UNL     1     -11.555   7.436  71.093  1.00  0.00    -0.286 C  
BRANCH   3   4
HETATM    4  N   UNL     1     -10.430   7.143  71.991  1.00  0.00    -0.206 NA 
HETATM    5  C   UNL     1      -9.983   6.651  74.292  1.00  0.00    -0.372 C  
HETATM    6  C   UNL     1      -9.064   7.740  73.773  1.00  0.00    -0.333 C  
HETATM    7  C   UNL     1     -10.839   6.257  73.091  1.00  0.00    -0.254 C  
HETATM    8  C   UNL     1      -9.848   8.333  72.617  1.00  0.00    -0.287 C  
ENDBRANCH   3   4
ENDBRANCH   1   3
BRANCH   2   9
HETATM    9  C   UNL     1     -10.768  10.287  68.599  1.00  0.00    -0.224 A  
HETATM   10  C   UNL     1     -10.253  11.843  66.857  1.00  0.00    -0.233 A  
HETATM   11  C   UNL     1     -11.387  12.505  68.858  1.00  0.00    -0.297 A  
HETATM   12  N   UNL     1     -11.356  11.243  69.357  1.00  0.00    -0.267 NA 
HETATM   13  C   UNL     1     -10.855  12.841  67.618  1.00  0.00    -0.252 A  
HETATM   14  C   UNL     1     -10.205  10.546  67.354  1.00  0.00    -0.253 A  
BRANCH  11  15
HETATM   15  C   UNL     1     -12.015  13.541  69.692  1.00  0.00    -0.397 C  
HETATM   16  C   UNL     1     -12.530  13.283  70.903  1.00  0.00    -0.424 C  
HETATM   17  C   UNL     1     -13.131  14.369  71.694  1.00  0.00    -0.350 C  
HETATM   18  O   UNL     1     -13.606  13.926  72.875  1.00  0.00    -0.680 OA 
HETATM   19  O   UNL     1     -13.194  15.534  71.338  1.00  0.00    -0.467 OA 
ENDBRANCH  11  15
ENDBRANCH   2   9
BRANCH   2  20
HETATM   20  C   UNL     1     -10.219   7.755  68.392  1.00  0.00    -0.230 A  
HETATM   21  C   UNL     1      -8.379   6.229  67.956  1.00  0.00    -0.114 A  
HETATM   22  C   UNL     1      -8.486   4.536  66.089  1.00  0.00    -0.113 C  
HETATM   23  C   UNL     1      -8.937   7.279  68.692  1.00  0.00    -0.128 A  
HETATM   24  C   UNL     1     -10.383   6.101  66.621  1.00  0.00    -0.249 A  
HETATM   25  C   UNL     1      -9.094   5.636  66.910  1.00  0.00    -0.116 A  
HETATM   26  C   UNL     1     -10.943   7.152  67.358  1.00  0.00    -0.296 A  
ENDBRANCH   2  20
TORSDOF 5
ENDMDL
MODEL       86
REMARK 921   NORMALIZED FREE ENERGY PREDICTED BY IDOCK:   -5.49 KCAL/MOL
REMARK 922        TOTAL FREE ENERGY PREDICTED BY IDOCK:   -8.43 KCAL/MOL
REMARK 923 INTER-LIGAND FREE ENERGY PREDICTED BY IDOCK:   -7.04 KCAL/MOL
REMARK 924 INTRA-LIGAND FREE ENERGY PREDICTED BY IDOCK:   -1.39 KCAL/MOL
REMARK 927      BINDING AFFINITY PREDICTED BY RF-SCORE:    0.00 PKD
ROOT
HETATM    1  C   UNL     1      -9.242  10.018  68.678  1.00  0.00    -0.152 C  
HETATM    2  C   UNL     1     -10.327  10.807  68.868  1.00  0.00    -0.220 C  
ENDROOT
BRANCH   1   3
HETATM    3  C   UNL     1      -8.205  10.119  67.591  1.00  0.00    -0.110 C  
BRANCH   3   4
HETATM    4  N   UNL     1      -6.983  10.802  68.035  1.00  0.00    -0.072 NA 
HETATM    5  C   UNL     1      -6.269  12.495  69.572  1.00  0.00    -0.120 C  
HETATM    6  C   UNL     1      -5.692  12.728  68.188  1.00  0.00    -0.083 C  
HETATM    7  C   UNL     1      -7.078  11.207  69.446  1.00  0.00    -0.110 C  
HETATM    8  C   UNL     1      -6.678  12.019  67.279  1.00  0.00    -0.144 C  
ENDBRANCH   3   4
ENDBRANCH   1   3
BRANCH   2   9
HETATM    9  C   UNL     1     -11.208  10.461  70.007  1.00  0.00    -0.316 A  
HETATM   10  C   UNL     1     -12.982  11.015  71.513  1.00  0.00    -0.553 A  
HETATM   11  C   UNL     1     -11.909   8.876  71.547  1.00  0.00    -0.332 A  
HETATM   12  N   UNL     1     -11.081   9.216  70.526  1.00  0.00    -0.251 NA 
HETATM   13  C   UNL     1     -12.870   9.741  72.060  1.00  0.00    -0.491 A  
HETATM   14  C   UNL     1     -12.137  11.385  70.472  1.00  0.00    -0.487 A  
BRANCH  11  15
HETATM   15  C   UNL     1     -11.756   7.530  72.115  1.00  0.00    -0.344 C  
HETATM   16  C   UNL     1     -10.920   6.615  71.599  1.00  0.00    -0.280 C  
HETATM   17  C   UNL     1     -10.802   5.289  72.226  1.00  0.00    -0.207 C  
HETATM   18  O   UNL     1      -9.928   4.500  71.570  1.00  0.00    -0.180 OA 
HETATM   19  O   UNL     1     -11.412   4.935  73.221  1.00  0.00    -0.336 OA 
ENDBRANCH  11  15
ENDBRANCH   2   9
BRANCH   2  20
HETATM   20  C   UNL     1     -10.623  11.913  67.933  1.00  0.00    -0.229 A  
HETATM   21  C   UNL     1     -11.774  12.746  65.961  1.00  0.00    -0.470 A  
HETATM   22  C   UNL     1     -11.338  15.063  65.063  1.00  0.00    -0.395 C  
HETATM   23  C   UNL     1     -11.531  11.725  66.884  1.00  0.00    -0.364 A  
HETATM   24  C   UNL     1     -10.218  14.170  67.131  1.00  0.00    -0.258 A  
HETATM   25  C   UNL     1     -11.114  13.975  66.072  1.00  0.00    -0.303 A  
HETATM   26  C   UNL     1      -9.976  13.148  68.057  1.00  0.00    -0.233 A  
ENDBRANCH   2  20
TORSDOF 5
ENDMDL
MODEL       87
REMARK 921   NORMALIZED FREE ENERGY PREDICTED BY IDOCK:   -5.48 KCAL/MOL
REMARK 922        TOTAL FREE ENERGY PREDICTED BY IDOCK:   -8.42 KCAL/MOL
REMARK 923 INTER-LIGAND FREE ENERGY PREDICTED BY IDOCK:   -7.31 KCAL/MOL
REMARK 924 INTRA-LIGAND FREE ENERGY PREDICTED BY IDOCK:   -1.10 KCAL/MOL
REMARK 927      BINDING AFFINITY PREDICTED BY RF-SCORE:    0.00 PKD
ROOT
HETATM    1  C   UNL     1      -8.580  13.672  67.788  1.00  0.00    -0.182 C  
HETATM    2  C   UNL     1      -9.307  12.547  67.591  1.00  0.00    -0.189 C  
ENDROOT
BRANCH   1   3
HETATM    3  C   UNL     1      -8.559  14.919  66.944  1.00  0.00    -0.239 C  
BRANCH   3   4
HETATM    4  N   UNL     1      -9.636  15.857  67.291  1.00  0.00    -0.216 NA 
HETATM    5  C   UNL     1     -10.047  18.209  67.475  1.00  0.00    -0.358 C  
HETATM    6  C   UNL     1     -10.529  17.467  68.707  1.00  0.00    -0.333 C  
HETATM    7  C   UNL     1      -9.502  17.122  66.553  1.00  0.00    -0.273 C  
HETATM    8  C   UNL     1      -9.676  16.212  68.711  1.00  0.00    -0.233 C  
ENDBRANCH   3   4
ENDBRANCH   1   3
BRANCH   2   9
HETATM    9  C   UNL     1      -9.107  11.449  68.565  1.00  0.00    -0.169 A  
HETATM   10  C   UNL     1      -7.661  10.039  69.847  1.00  0.00    -0.177 A  
HETATM   11  C   UNL     1     -10.044   9.932  70.045  1.00  0.00    -0.260 A  
HETATM   12  N   UNL     1     -10.218  10.913  69.123  1.00  0.00    -0.214 NA 
HETATM   13  C   UNL     1      -8.789   9.475  70.435  1.00  0.00    -0.279 A  
HETATM   14  C   UNL     1      -7.819  11.040  68.895  1.00  0.00    -0.138 A  
BRANCH  11  15
HETATM   15  C   UNL     1     -11.254   9.345  70.636  1.00  0.00    -0.345 C  
HETATM   16  C   UNL     1     -11.284   8.104  71.145  1.00  0.00    -0.289 C  
HETATM   17  C   UNL     1     -12.525   7.580  71.737  1.00  0.00    -0.330 C  
HETATM   18  O   UNL     1     -12.375   6.319  72.186  1.00  0.00    -0.315 OA 
HETATM   19  O   UNL     1     -13.571   8.203  71.822  1.00  0.00    -0.345 OA 
ENDBRANCH  11  15
ENDBRANCH   2   9
BRANCH   2  20
HETATM   20  C   UNL     1     -10.202  12.427  66.420  1.00  0.00    -0.253 A  
HETATM   21  C   UNL     1     -12.410  12.658  65.433  1.00  0.00    -0.499 A  
HETATM   22  C   UNL     1     -12.889  11.882  63.081  1.00  0.00    -0.160 C  
HETATM   23  C   UNL     1     -11.542  12.822  66.516  1.00  0.00    -0.435 A  
HETATM   24  C   UNL     1     -10.610  11.719  64.133  1.00  0.00    -0.403 A  
HETATM   25  C   UNL     1     -11.954  12.098  64.235  1.00  0.00    -0.466 A  
HETATM   26  C   UNL     1      -9.739  11.884  65.217  1.00  0.00    -0.214 A  
ENDBRANCH   2  20
TORSDOF 5
ENDMDL
MODEL       88
REMARK 921   NORMALIZED FREE ENERGY PREDICTED BY IDOCK:   -5.47 KCAL/MOL
REMARK 922        TOTAL FREE ENERGY PREDICTED BY IDOCK:   -8.41 KCAL/MOL
REMARK 923 INTER-LIGAND FREE ENERGY PREDICTED BY IDOCK:   -7.30 KCAL/MOL
REMARK 924 INTRA-LIGAND FREE ENERGY PREDICTED BY IDOCK:   -1.11 KCAL/MOL
REMARK 927      BINDING AFFINITY PREDICTED BY RF-SCORE:    0.00 PKD
ROOT
HETATM    1  C   UNL     1     -11.414   8.655  70.717  1.00  0.00    -0.293 C  
HETATM    2  C   UNL     1     -10.946   9.079  69.519  1.00  0.00    -0.118 C  
ENDROOT
BRANCH   1   3
HETATM    3  C   UNL     1     -11.241   7.301  71.351  1.00  0.00    -0.248 C  
BRANCH   3   4
HETATM    4  N   UNL     1     -10.107   7.251  72.283  1.00  0.00    -0.186 NA 
HETATM    5  C   UNL     1      -8.610   5.673  73.287  1.00  0.00    -0.116 C  
HETATM    6  C   UNL     1      -9.200   6.611  74.324  1.00  0.00    -0.228 C  
HETATM    7  C   UNL     1      -9.195   6.143  71.958  1.00  0.00    -0.146 C  
HETATM    8  C   UNL     1     -10.497   7.064  73.682  1.00  0.00    -0.376 C  
ENDBRANCH   3   4
ENDBRANCH   1   3
BRANCH   2   9
HETATM    9  C   UNL     1     -11.294  10.462  69.122  1.00  0.00    -0.226 A  
HETATM   10  C   UNL     1     -11.885  12.709  69.695  1.00  0.00    -0.379 A  
HETATM   11  C   UNL     1     -11.536  12.025  67.427  1.00  0.00    -0.318 A  
HETATM   12  N   UNL     1     -11.255  10.751  67.799  1.00  0.00    -0.341 NA 
HETATM   13  C   UNL     1     -11.848  13.027  68.341  1.00  0.00    -0.370 A  
HETATM   14  C   UNL     1     -11.607  11.406  70.094  1.00  0.00    -0.368 A  
BRANCH  11  15
HETATM   15  C   UNL     1     -11.506  12.328  65.990  1.00  0.00    -0.434 C  
HETATM   16  C   UNL     1     -12.206  13.334  65.445  1.00  0.00    -0.501 C  
HETATM   17  C   UNL     1     -12.120  13.594  64.000  1.00  0.00    -0.425 C  
HETATM   18  O   UNL     1     -12.895  14.631  63.628  1.00  0.00    -0.637 OA 
HETATM   19  O   UNL     1     -11.430  12.958  63.220  1.00  0.00    -0.448 OA 
ENDBRANCH  11  15
ENDBRANCH   2   9
BRANCH   2  20
HETATM   20  C   UNL     1     -10.178   8.164  68.648  1.00  0.00    -0.226 A  
HETATM   21  C   UNL     1     -10.131   6.430  66.946  1.00  0.00    -0.244 A  
HETATM   22  C   UNL     1      -7.972   5.328  66.247  1.00  0.00    -0.104 C  
HETATM   23  C   UNL     1     -10.844   7.339  67.733  1.00  0.00    -0.214 A  
HETATM   24  C   UNL     1      -8.072   7.166  67.962  1.00  0.00    -0.120 A  
HETATM   25  C   UNL     1      -8.741   6.330  67.059  1.00  0.00    -0.108 A  
HETATM   26  C   UNL     1      -8.785   8.079  68.749  1.00  0.00    -0.131 A  
ENDBRANCH   2  20
TORSDOF 5
ENDMDL
MODEL       89
REMARK 921   NORMALIZED FREE ENERGY PREDICTED BY IDOCK:   -5.47 KCAL/MOL
REMARK 922        TOTAL FREE ENERGY PREDICTED BY IDOCK:   -8.41 KCAL/MOL
REMARK 923 INTER-LIGAND FREE ENERGY PREDICTED BY IDOCK:   -7.81 KCAL/MOL
REMARK 924 INTRA-LIGAND FREE ENERGY PREDICTED BY IDOCK:   -0.59 KCAL/MOL
REMARK 927      BINDING AFFINITY PREDICTED BY RF-SCORE:    0.00 PKD
ROOT
HETATM    1  C   UNL     1      -9.799  15.830  67.572  1.00  0.00    -0.229 C  
HETATM    2  C   UNL     1     -10.761  14.933  67.889  1.00  0.00    -0.265 C  
ENDROOT
BRANCH   1   3
HETATM    3  C   UNL     1      -9.170  16.865  68.466  1.00  0.00    -0.260 C  
BRANCH   3   4
HETATM    4  N   UNL     1      -7.780  16.543  68.817  1.00  0.00    -0.214 NA 
HETATM    5  C   UNL     1      -5.931  15.240  68.028  1.00  0.00    -0.157 C  
HETATM    6  C   UNL     1      -6.178  15.007  69.506  1.00  0.00    -0.124 C  
HETATM    7  C   UNL     1      -6.972  16.278  67.617  1.00  0.00    -0.144 C  
HETATM    8  C   UNL     1      -7.644  15.361  69.672  1.00  0.00    -0.165 C  
ENDBRANCH   3   4
ENDBRANCH   1   3
BRANCH   2   9
HETATM    9  C   UNL     1     -11.226  14.046  66.798  1.00  0.00    -0.315 A  
HETATM   10  C   UNL     1     -12.750  13.550  65.021  1.00  0.00    -0.399 A  
HETATM   11  C   UNL     1     -10.873  12.148  65.514  1.00  0.00    -0.283 A  
HETATM   12  N   UNL     1     -10.477  12.948  66.537  1.00  0.00    -0.262 NA 
HETATM   13  C   UNL     1     -11.994  12.417  64.735  1.00  0.00    -0.462 A  
HETATM   14  C   UNL     1     -12.364  14.377  66.070  1.00  0.00    -0.337 A  
BRANCH  11  15
HETATM   15  C   UNL     1     -10.065  10.951  65.246  1.00  0.00    -0.340 C  
HETATM   16  C   UNL     1      -9.921   9.958  66.137  1.00  0.00    -0.331 C  
HETATM   17  C   UNL     1      -9.109   8.778  65.800  1.00  0.00    -0.212 C  
HETATM   18  O   UNL     1      -9.067   7.891  66.814  1.00  0.00    -0.141 OA 
HETATM   19  O   UNL     1      -8.540   8.607  64.734  1.00  0.00    -0.172 OA 
ENDBRANCH  11  15
ENDBRANCH   2   9
BRANCH   2  20
HETATM   20  C   UNL     1     -11.342  14.903  69.248  1.00  0.00    -0.315 A  
HETATM   21  C   UNL     1     -11.886  16.042  71.325  1.00  0.00    -0.502 A  
HETATM   22  C   UNL     1     -12.834  14.794  73.302  1.00  0.00    -0.621 C  
HETATM   23  C   UNL     1     -11.392  16.072  70.017  1.00  0.00    -0.353 A  
HETATM   24  C   UNL     1     -12.306  13.677  71.110  1.00  0.00    -0.403 A  
HETATM   25  C   UNL     1     -12.340  14.843  71.885  1.00  0.00    -0.415 A  
HETATM   26  C   UNL     1     -11.813  13.706  69.800  1.00  0.00    -0.392 A  
ENDBRANCH   2  20
TORSDOF 5
ENDMDL
MODEL       90
REMARK 921   NORMALIZED FREE ENERGY PREDICTED BY IDOCK:   -5.44 KCAL/MOL
REMARK 922        TOTAL FREE ENERGY PREDICTED BY IDOCK:   -8.37 KCAL/MOL
REMARK 923 INTER-LIGAND FREE ENERGY PREDICTED BY IDOCK:   -7.11 KCAL/MOL
REMARK 924 INTRA-LIGAND FREE ENERGY PREDICTED BY IDOCK:   -1.26 KCAL/MOL
REMARK 927      BINDING AFFINITY PREDICTED BY RF-SCORE:    0.00 PKD
ROOT
HETATM    1  C   UNL     1      -8.542  10.737  65.578  1.00  0.00    -0.181 C  
HETATM    2  C   UNL     1      -9.748  11.120  66.060  1.00  0.00    -0.263 C  
ENDROOT
BRANCH   1   3
HETATM    3  C   UNL     1      -7.520   9.854  66.241  1.00  0.00    -0.102 C  
BRANCH   3   4
HETATM    4  N   UNL     1      -6.601  10.603  67.109  1.00  0.00    -0.073 NA 
HETATM    5  C   UNL     1      -6.518  11.601  69.286  1.00  0.00    -0.105 C  
HETATM    6  C   UNL     1      -6.019  12.558  68.220  1.00  0.00    -0.061 C  
HETATM    7  C   UNL     1      -6.855  10.318  68.530  1.00  0.00    -0.061 C  
HETATM    8  C   UNL     1      -6.696  12.056  66.959  1.00  0.00    -0.099 C  
ENDBRANCH   3   4
ENDBRANCH   1   3
BRANCH   2   9
HETATM    9  C   UNL     1     -10.546  12.029  65.205  1.00  0.00    -0.288 A  
HETATM   10  C   UNL     1     -12.192  12.380  63.504  1.00  0.00    -0.661 A  
HETATM   11  C   UNL     1     -11.157  14.199  64.665  1.00  0.00    -0.371 A  
HETATM   12  N   UNL     1     -10.402  13.359  65.418  1.00  0.00    -0.305 NA 
HETATM   13  C   UNL     1     -12.061  13.750  63.709  1.00  0.00    -0.385 A  
HETATM   14  C   UNL     1     -11.422  11.503  64.261  1.00  0.00    -0.271 A  
BRANCH  11  15
HETATM   15  C   UNL     1     -10.985  15.641  64.892  1.00  0.00    -0.447 C  
HETATM   16  C   UNL     1     -10.515  16.143  66.044  1.00  0.00    -0.349 C  
HETATM   17  C   UNL     1     -10.351  17.597  66.201  1.00  0.00    -0.334 C  
HETATM   18  O   UNL     1      -9.880  17.920  67.421  1.00  0.00    -0.287 OA 
HETATM   19  O   UNL     1     -10.604  18.421  65.338  1.00  0.00    -0.595 OA 
ENDBRANCH  11  15
ENDBRANCH   2   9
BRANCH   2  20
HETATM   20  C   UNL     1     -10.193  10.685  67.401  1.00  0.00    -0.243 A  
HETATM   21  C   UNL     1     -10.795  11.226  69.692  1.00  0.00    -0.155 A  
HETATM   22  C   UNL     1     -11.282   9.423  71.387  1.00  0.00    -0.452 C  
HETATM   23  C   UNL     1     -10.430  11.632  68.405  1.00  0.00    -0.230 A  
HETATM   24  C   UNL     1     -10.709   8.921  68.989  1.00  0.00    -0.148 A  
HETATM   25  C   UNL     1     -10.930   9.868  69.997  1.00  0.00    -0.338 A  
HETATM   26  C   UNL     1     -10.346   9.327  67.699  1.00  0.00    -0.311 A  
ENDBRANCH   2  20
TORSDOF 5
ENDMDL
MODEL       91
REMARK 921   NORMALIZED FREE ENERGY PREDICTED BY IDOCK:   -5.44 KCAL/MOL
REMARK 922        TOTAL FREE ENERGY PREDICTED BY IDOCK:   -8.37 KCAL/MOL
REMARK 923 INTER-LIGAND FREE ENERGY PREDICTED BY IDOCK:   -7.09 KCAL/MOL
REMARK 924 INTRA-LIGAND FREE ENERGY PREDICTED BY IDOCK:   -1.28 KCAL/MOL
REMARK 927      BINDING AFFINITY PREDICTED BY RF-SCORE:    0.00 PKD
ROOT
HETATM    1  C   UNL     1      -9.705   9.220  68.979  1.00  0.00    -0.162 C  
HETATM    2  C   UNL     1     -10.390   8.638  69.992  1.00  0.00    -0.213 C  
ENDROOT
BRANCH   1   3
HETATM    3  C   UNL     1      -8.582   8.634  68.166  1.00  0.00    -0.141 C  
BRANCH   3   4
HETATM    4  N   UNL     1      -8.807   8.751  66.719  1.00  0.00    -0.126 NA 
HETATM    5  C   UNL     1      -8.301  10.205  64.884  1.00  0.00    -0.166 C  
HETATM    6  C   UNL     1      -9.774   9.843  64.911  1.00  0.00    -0.332 C  
HETATM    7  C   UNL     1      -7.691   9.444  66.058  1.00  0.00    -0.099 C  
HETATM    8  C   UNL     1     -10.019   9.495  66.368  1.00  0.00    -0.269 C  
ENDBRANCH   3   4
ENDBRANCH   1   3
BRANCH   2   9
HETATM    9  C   UNL     1     -11.433   9.462  70.646  1.00  0.00    -0.284 A  
HETATM   10  C   UNL     1     -13.263   9.680  72.171  1.00  0.00    -0.535 A  
HETATM   11  C   UNL     1     -12.367  11.556  70.985  1.00  0.00    -0.329 A  
HETATM   12  N   UNL     1     -11.439  10.786  70.361  1.00  0.00    -0.315 NA 
HETATM   13  C   UNL     1     -13.286  11.044  71.895  1.00  0.00    -0.503 A  
HETATM   14  C   UNL     1     -12.325   8.874  71.537  1.00  0.00    -0.381 A  
BRANCH  11  15
HETATM   15  C   UNL     1     -12.377  12.989  70.660  1.00  0.00    -0.391 C  
HETATM   16  C   UNL     1     -11.925  13.472  69.493  1.00  0.00    -0.390 C  
HETATM   17  C   UNL     1     -11.978  14.918  69.223  1.00  0.00    -0.291 C  
HETATM   18  O   UNL     1     -11.474  15.222  68.011  1.00  0.00    -0.335 OA 
HETATM   19  O   UNL     1     -12.426  15.751  69.993  1.00  0.00    -0.337 OA 
ENDBRANCH  11  15
ENDBRANCH   2   9
BRANCH   2  20
HETATM   20  C   UNL     1     -10.052   7.270  70.438  1.00  0.00    -0.196 A  
HETATM   21  C   UNL     1     -10.402   4.869  70.298  1.00  0.00    -0.252 A  
HETATM   22  C   UNL     1      -9.243   3.276  71.874  1.00  0.00    -0.180 C  
HETATM   23  C   UNL     1     -10.671   6.164  69.843  1.00  0.00    -0.366 A  
HETATM   24  C   UNL     1      -8.876   5.764  71.937  1.00  0.00    -0.139 A  
HETATM   25  C   UNL     1      -9.508   4.659  71.353  1.00  0.00    -0.217 A  
HETATM   26  C   UNL     1      -9.144   7.060  71.481  1.00  0.00    -0.139 A  
ENDBRANCH   2  20
TORSDOF 5
ENDMDL
MODEL       92
REMARK 921   NORMALIZED FREE ENERGY PREDICTED BY IDOCK:   -5.42 KCAL/MOL
REMARK 922        TOTAL FREE ENERGY PREDICTED BY IDOCK:   -8.35 KCAL/MOL
REMARK 923 INTER-LIGAND FREE ENERGY PREDICTED BY IDOCK:   -6.98 KCAL/MOL
REMARK 924 INTRA-LIGAND FREE ENERGY PREDICTED BY IDOCK:   -1.37 KCAL/MOL
REMARK 927      BINDING AFFINITY PREDICTED BY RF-SCORE:    0.00 PKD
ROOT
HETATM    1  C   UNL     1     -10.556  13.795  67.226  1.00  0.00    -0.275 C  
HETATM    2  C   UNL     1      -9.519  14.618  67.510  1.00  0.00    -0.198 C  
ENDROOT
BRANCH   1   3
HETATM    3  C   UNL     1     -11.976  14.175  66.903  1.00  0.00    -0.449 C  
BRANCH   3   4
HETATM    4  N   UNL     1     -12.451  13.580  65.646  1.00  0.00    -0.475 NA 
HETATM    5  C   UNL     1     -11.684  12.176  63.863  1.00  0.00    -0.546 C  
HETATM    6  C   UNL     1     -12.363  13.423  63.330  1.00  0.00    -0.343 C  
HETATM    7  C   UNL     1     -11.792  12.292  65.381  1.00  0.00    -0.360 C  
HETATM    8  C   UNL     1     -12.208  14.415  64.468  1.00  0.00    -0.463 C  
ENDBRANCH   3   4
ENDBRANCH   1   3
BRANCH   2   9
HETATM    9  C   UNL     1      -8.225  13.970  67.827  1.00  0.00    -0.168 A  
HETATM   10  C   UNL     1      -5.842  14.058  68.018  1.00  0.00    -0.138 A  
HETATM   11  C   UNL     1      -7.095  12.113  68.630  1.00  0.00    -0.103 A  
HETATM   12  N   UNL     1      -8.273  12.702  68.301  1.00  0.00    -0.164 NA 
HETATM   13  C   UNL     1      -5.868  12.756  68.509  1.00  0.00    -0.061 A  
HETATM   14  C   UNL     1      -7.037  14.676  67.668  1.00  0.00    -0.203 A  
BRANCH  11  15
HETATM   15  C   UNL     1      -7.153  10.732  69.130  1.00  0.00    -0.101 C  
HETATM   16  C   UNL     1      -8.301  10.136  69.484  1.00  0.00    -0.178 C  
HETATM   17  C   UNL     1      -8.292   8.745  69.963  1.00  0.00    -0.127 C  
HETATM   18  O   UNL     1      -9.529   8.315  70.282  1.00  0.00    -0.162 OA 
HETATM   19  O   UNL     1      -7.294   8.050  70.060  1.00  0.00    -0.060 OA 
ENDBRANCH  11  15
ENDBRANCH   2   9
BRANCH   2  20
HETATM   20  C   UNL     1      -9.713  16.083  67.551  1.00  0.00    -0.228 A  
HETATM   21  C   UNL     1      -9.694  18.236  66.424  1.00  0.00    -0.334 A  
HETATM   22  C   UNL     1     -10.060  20.388  67.690  1.00  0.00    -0.476 C  
HETATM   23  C   UNL     1      -9.571  16.844  66.384  1.00  0.00    -0.305 A  
HETATM   24  C   UNL     1     -10.124  18.128  68.795  1.00  0.00    -0.392 A  
HETATM   25  C   UNL     1      -9.965  18.891  67.631  1.00  0.00    -0.404 A  
HETATM   26  C   UNL     1     -10.002  16.734  68.755  1.00  0.00    -0.269 A  
ENDBRANCH   2  20
TORSDOF 5
ENDMDL
MODEL       93
REMARK 921   NORMALIZED FREE ENERGY PREDICTED BY IDOCK:   -5.42 KCAL/MOL
REMARK 922        TOTAL FREE ENERGY PREDICTED BY IDOCK:   -8.35 KCAL/MOL
REMARK 923 INTER-LIGAND FREE ENERGY PREDICTED BY IDOCK:   -6.84 KCAL/MOL
REMARK 924 INTRA-LIGAND FREE ENERGY PREDICTED BY IDOCK:   -1.51 KCAL/MOL
REMARK 927      BINDING AFFINITY PREDICTED BY RF-SCORE:    0.00 PKD
ROOT
HETATM    1  C   UNL     1     -10.463  13.512  67.850  1.00  0.00    -0.253 C  
HETATM    2  C   UNL     1      -9.466  12.597  67.888  1.00  0.00    -0.204 C  
ENDROOT
BRANCH   1   3
HETATM    3  C   UNL     1     -11.935  13.267  67.652  1.00  0.00    -0.322 C  
BRANCH   3   4
HETATM    4  N   UNL     1     -12.411  13.704  66.332  1.00  0.00    -0.415 NA 
HETATM    5  C   UNL     1     -12.109  13.216  64.006  1.00  0.00    -0.511 C  
HETATM    6  C   UNL     1     -12.010  14.706  64.275  1.00  0.00    -0.406 C  
HETATM    7  C   UNL     1     -12.409  12.594  65.367  1.00  0.00    -0.436 C  
HETATM    8  C   UNL     1     -11.601  14.768  65.734  1.00  0.00    -0.290 C  
ENDBRANCH   3   4
ENDBRANCH   1   3
BRANCH   2   9
HETATM    9  C   UNL     1      -8.091  13.121  68.064  1.00  0.00    -0.157 A  
HETATM   10  C   UNL     1      -5.786  12.783  68.605  1.00  0.00    -0.067 A  
HETATM   11  C   UNL     1      -6.622  14.905  67.878  1.00  0.00    -0.158 A  
HETATM   12  N   UNL     1      -7.886  14.424  67.756  1.00  0.00    -0.144 NA 
HETATM   13  C   UNL     1      -5.552  14.118  68.292  1.00  0.00    -0.113 A  
HETATM   14  C   UNL     1      -7.075  12.274  68.493  1.00  0.00    -0.099 A  
BRANCH  11  15
HETATM   15  C   UNL     1      -6.410  16.323  67.557  1.00  0.00    -0.189 C  
HETATM   16  C   UNL     1      -7.263  17.031  66.802  1.00  0.00    -0.274 C  
HETATM   17  C   UNL     1      -6.999  18.453  66.530  1.00  0.00    -0.216 C  
HETATM   18  O   UNL     1      -7.952  19.000  65.749  1.00  0.00    -0.465 OA 
HETATM   19  O   UNL     1      -6.041  19.076  66.956  1.00  0.00    -0.173 OA 
ENDBRANCH  11  15
ENDBRANCH   2   9
BRANCH   2  20
HETATM   20  C   UNL     1      -9.757  11.160  67.700  1.00  0.00    -0.184 A  
HETATM   21  C   UNL     1      -9.927   9.225  66.241  1.00  0.00    -0.357 A  
HETATM   22  C   UNL     1     -10.812   7.016  67.079  1.00  0.00    -0.413 C  
HETATM   23  C   UNL     1      -9.598  10.569  66.441  1.00  0.00    -0.220 A  
HETATM   24  C   UNL     1     -10.563   9.036  68.559  1.00  0.00    -0.196 A  
HETATM   25  C   UNL     1     -10.419   8.449  67.296  1.00  0.00    -0.373 A  
HETATM   26  C   UNL     1     -10.232  10.381  68.761  1.00  0.00    -0.201 A  
ENDBRANCH   2  20
TORSDOF 5
ENDMDL
MODEL       94
REMARK 921   NORMALIZED FREE ENERGY PREDICTED BY IDOCK:   -5.37 KCAL/MOL
REMARK 922        TOTAL FREE ENERGY PREDICTED BY IDOCK:   -8.27 KCAL/MOL
REMARK 923 INTER-LIGAND FREE ENERGY PREDICTED BY IDOCK:   -7.04 KCAL/MOL
REMARK 924 INTRA-LIGAND FREE ENERGY PREDICTED BY IDOCK:   -1.23 KCAL/MOL
REMARK 927      BINDING AFFINITY PREDICTED BY RF-SCORE:    0.00 PKD
ROOT
HETATM    1  C   UNL     1     -10.434  12.111  65.684  1.00  0.00    -0.290 C  
HETATM    2  C   UNL     1     -10.366  12.440  66.996  1.00  0.00    -0.235 C  
ENDROOT
BRANCH   1   3
HETATM    3  C   UNL     1     -10.299  10.745  65.066  1.00  0.00    -0.287 C  
BRANCH   3   4
HETATM    4  N   UNL     1      -8.899  10.337  64.891  1.00  0.00    -0.179 NA 
HETATM    5  C   UNL     1      -7.503   9.138  63.358  1.00  0.00    -0.098 C  
HETATM    6  C   UNL     1      -7.282   8.672  64.785  1.00  0.00    -0.088 C  
HETATM    7  C   UNL     1      -8.539  10.253  63.467  1.00  0.00    -0.195 C  
HETATM    8  C   UNL     1      -8.587   9.029  65.471  1.00  0.00    -0.168 C  
ENDBRANCH   3   4
ENDBRANCH   1   3
BRANCH   2   9
HETATM    9  C   UNL     1     -10.500  13.878  67.327  1.00  0.00    -0.271 A  
HETATM   10  C   UNL     1     -10.426  16.180  66.681  1.00  0.00    -0.300 A  
HETATM   11  C   UNL     1     -11.069  15.498  68.884  1.00  0.00    -0.282 A  
HETATM   12  N   UNL     1     -10.907  14.185  68.582  1.00  0.00    -0.248 NA 
HETATM   13  C   UNL     1     -10.846  16.518  67.964  1.00  0.00    -0.337 A  
HETATM   14  C   UNL     1     -10.247  14.841  66.355  1.00  0.00    -0.299 A  
BRANCH  11  15
HETATM   15  C   UNL     1     -11.497  15.824  70.251  1.00  0.00    -0.369 C  
HETATM   16  C   UNL     1     -12.327  15.043  70.957  1.00  0.00    -0.394 C  
HETATM   17  C   UNL     1     -12.705  15.419  72.329  1.00  0.00    -0.379 C  
HETATM   18  O   UNL     1     -13.551  14.527  72.880  1.00  0.00    -0.548 OA 
HETATM   19  O   UNL     1     -12.304  16.413  72.912  1.00  0.00    -0.473 OA 
ENDBRANCH  11  15
ENDBRANCH   2   9
BRANCH   2  20
HETATM   20  C   UNL     1     -10.110  11.403  68.018  1.00  0.00    -0.193 A  
HETATM   21  C   UNL     1     -10.943   9.678  69.514  1.00  0.00    -0.233 A  
HETATM   22  C   UNL     1      -9.425   8.518  71.161  1.00  0.00    -0.249 C  
HETATM   23  C   UNL     1     -11.164  10.621  68.506  1.00  0.00    -0.342 A  
HETATM   24  C   UNL     1      -8.605  10.270  69.551  1.00  0.00    -0.153 A  
HETATM   25  C   UNL     1      -9.663   9.500  70.050  1.00  0.00    -0.271 A  
HETATM   26  C   UNL     1      -8.826  11.213  68.541  1.00  0.00    -0.161 A  
ENDBRANCH   2  20
TORSDOF 5
ENDMDL
MODEL       95
REMARK 921   NORMALIZED FREE ENERGY PREDICTED BY IDOCK:   -5.36 KCAL/MOL
REMARK 922        TOTAL FREE ENERGY PREDICTED BY IDOCK:   -8.27 KCAL/MOL
REMARK 923 INTER-LIGAND FREE ENERGY PREDICTED BY IDOCK:   -6.92 KCAL/MOL
REMARK 924 INTRA-LIGAND FREE ENERGY PREDICTED BY IDOCK:   -1.35 KCAL/MOL
REMARK 927      BINDING AFFINITY PREDICTED BY RF-SCORE:    0.00 PKD
ROOT
HETATM    1  C   UNL     1     -11.610  12.934  67.355  1.00  0.00    -0.414 C  
HETATM    2  C   UNL     1     -10.336  13.152  67.759  1.00  0.00    -0.230 C  
ENDROOT
BRANCH   1   3
HETATM    3  C   UNL     1     -12.563  13.919  66.733  1.00  0.00    -0.061 C  
BRANCH   3   4
HETATM    4  N   UNL     1     -12.857  13.614  65.326  1.00  0.00    -0.723 NA 
HETATM    5  C   UNL     1     -12.065  12.239  63.531  1.00  0.00    -0.649 C  
HETATM    6  C   UNL     1     -12.258  13.675  63.082  1.00  0.00     0.107 C  
HETATM    7  C   UNL     1     -12.501  12.225  64.994  1.00  0.00    -0.177 C  
HETATM    8  C   UNL     1     -12.135  14.461  64.374  1.00  0.00    -0.470 C  
ENDBRANCH   3   4
ENDBRANCH   1   3
BRANCH   2   9
HETATM    9  C   UNL     1      -9.630  12.004  68.374  1.00  0.00    -0.190 A  
HETATM   10  C   UNL     1      -7.608  10.935  69.075  1.00  0.00    -0.135 A  
HETATM   11  C   UNL     1      -9.761   9.968  69.473  1.00  0.00    -0.233 A  
HETATM   12  N   UNL     1     -10.397  11.006  68.874  1.00  0.00    -0.199 NA 
HETATM   13  C   UNL     1      -8.377   9.900  69.597  1.00  0.00    -0.181 A  
HETATM   14  C   UNL     1      -8.241  12.004  68.451  1.00  0.00    -0.151 A  
BRANCH  11  15
HETATM   15  C   UNL     1     -10.599   8.882  70.000  1.00  0.00    -0.234 C  
HETATM   16  C   UNL     1     -10.264   7.588  69.888  1.00  0.00    -0.210 C  
HETATM   17  C   UNL     1     -11.140   6.548  70.452  1.00  0.00    -0.332 C  
HETATM   18  O   UNL     1     -10.653   5.310  70.238  1.00  0.00    -0.278 OA 
HETATM   19  O   UNL     1     -12.182   6.767  71.048  1.00  0.00    -0.377 OA 
ENDBRANCH  11  15
ENDBRANCH   2   9
BRANCH   2  20
HETATM   20  C   UNL     1      -9.728  14.493  67.634  1.00  0.00    -0.215 A  
HETATM   21  C   UNL     1      -9.301  16.700  68.558  1.00  0.00    -0.236 A  
HETATM   22  C   UNL     1      -8.149  18.493  67.208  1.00  0.00    -0.245 C  
HETATM   23  C   UNL     1      -9.822  15.410  68.689  1.00  0.00    -0.208 A  
HETATM   24  C   UNL     1      -8.566  16.175  66.322  1.00  0.00    -0.373 A  
HETATM   25  C   UNL     1      -8.676  17.097  67.371  1.00  0.00    -0.211 A  
HETATM   26  C   UNL     1      -9.086  14.882  66.453  1.00  0.00    -0.293 A  
ENDBRANCH   2  20
TORSDOF 5
ENDMDL
MODEL       96
REMARK 921   NORMALIZED FREE ENERGY PREDICTED BY IDOCK:   -5.36 KCAL/MOL
REMARK 922        TOTAL FREE ENERGY PREDICTED BY IDOCK:   -8.27 KCAL/MOL
REMARK 923 INTER-LIGAND FREE ENERGY PREDICTED BY IDOCK:   -7.19 KCAL/MOL
REMARK 924 INTRA-LIGAND FREE ENERGY PREDICTED BY IDOCK:   -1.07 KCAL/MOL
REMARK 927      BINDING AFFINITY PREDICTED BY RF-SCORE:    0.00 PKD
ROOT
HETATM    1  C   UNL     1     -10.942   6.645  70.088  1.00  0.00    -0.358 C  
HETATM    2  C   UNL     1     -10.861   7.948  69.726  1.00  0.00    -0.202 C  
ENDROOT
BRANCH   1   3
HETATM    3  C   UNL     1     -10.243   5.467  69.463  1.00  0.00    -0.261 C  
BRANCH   3   4
HETATM    4  N   UNL     1      -9.569   4.617  70.452  1.00  0.00    -0.181 NA 
HETATM    5  C   UNL     1      -9.662   2.397  71.348  1.00  0.00    -0.217 C  
HETATM    6  C   UNL     1      -9.601   3.436  72.453  1.00  0.00    -0.196 C  
HETATM    7  C   UNL     1      -9.601   3.201  70.053  1.00  0.00    -0.092 C  
HETATM    8  C   UNL     1     -10.163   4.679  71.789  1.00  0.00    -0.172 C  
ENDBRANCH   3   4
ENDBRANCH   1   3
BRANCH   2   9
HETATM    9  C   UNL     1     -11.688   8.903  70.499  1.00  0.00    -0.111 A  
HETATM   10  C   UNL     1     -13.237   9.366  72.262  1.00  0.00    -0.528 A  
HETATM   11  C   UNL     1     -12.297  11.102  70.908  1.00  0.00    -0.399 A  
HETATM   12  N   UNL     1     -11.571  10.215  70.181  1.00  0.00    -0.271 NA 
HETATM   13  C   UNL     1     -13.131  10.719  71.954  1.00  0.00    -0.557 A  
HETATM   14  C   UNL     1     -12.507   8.442  71.524  1.00  0.00    -0.342 A  
BRANCH  11  15
HETATM   15  C   UNL     1     -12.177  12.522  70.548  1.00  0.00    -0.382 C  
HETATM   16  C   UNL     1     -12.746  13.502  71.265  1.00  0.00    -0.432 C  
HETATM   17  C   UNL     1     -12.574  14.906  70.859  1.00  0.00    -0.341 C  
HETATM   18  O   UNL     1     -13.222  15.751  71.685  1.00  0.00    -0.486 OA 
HETATM   19  O   UNL     1     -11.923  15.276  69.895  1.00  0.00    -0.304 OA 
ENDBRANCH  11  15
ENDBRANCH   2   9
BRANCH   2  20
HETATM   20  C   UNL     1     -10.027   8.357  68.576  1.00  0.00    -0.203 A  
HETATM   21  C   UNL     1      -7.916   9.183  67.702  1.00  0.00    -0.100 A  
HETATM   22  C   UNL     1      -7.638   9.765  65.263  1.00  0.00    -0.119 C  
HETATM   23  C   UNL     1      -8.694   8.739  68.774  1.00  0.00    -0.137 A  
HETATM   24  C   UNL     1      -9.783   8.854  66.211  1.00  0.00    -0.345 A  
HETATM   25  C   UNL     1      -8.455   9.251  66.413  1.00  0.00    -0.128 A  
HETATM   26  C   UNL     1     -10.563   8.407  67.284  1.00  0.00    -0.328 A  
ENDBRANCH   2  20
TORSDOF 5
ENDMDL
MODEL       97
REMARK 921   NORMALIZED FREE ENERGY PREDICTED BY IDOCK:   -5.35 KCAL/MOL
REMARK 922        TOTAL FREE ENERGY PREDICTED BY IDOCK:   -8.25 KCAL/MOL
REMARK 923 INTER-LIGAND FREE ENERGY PREDICTED BY IDOCK:   -7.13 KCAL/MOL
REMARK 924 INTRA-LIGAND FREE ENERGY PREDICTED BY IDOCK:   -1.13 KCAL/MOL
REMARK 927      BINDING AFFINITY PREDICTED BY RF-SCORE:    0.00 PKD
ROOT
HETATM    1  C   UNL     1     -12.138   8.088  70.916  1.00  0.00    -0.164 C  
HETATM    2  C   UNL     1     -11.164   9.028  70.952  1.00  0.00    -0.348 C  
ENDROOT
BRANCH   1   3
HETATM    3  C   UNL     1     -12.113   6.709  71.520  1.00  0.00    -0.355 C  
BRANCH   3   4
HETATM    4  N   UNL     1     -11.459   5.721  70.652  1.00  0.00    -0.035 NA 
HETATM    5  C   UNL     1      -9.270   4.975  70.026  1.00  0.00    -0.182 C  
HETATM    6  C   UNL     1     -10.139   5.218  68.807  1.00  0.00    -0.248 C  
HETATM    7  C   UNL     1     -10.175   5.278  71.217  1.00  0.00    -0.224 C  
HETATM    8  C   UNL     1     -11.164   6.219  69.306  1.00  0.00    -0.389 C  
ENDBRANCH   3   4
ENDBRANCH   1   3
BRANCH   2   9
HETATM    9  C   UNL     1     -11.442  10.298  70.240  1.00  0.00    -0.317 A  
HETATM   10  C   UNL     1     -11.496  11.589  68.227  1.00  0.00    -0.368 A  
HETATM   11  C   UNL     1     -12.273  12.460  70.317  1.00  0.00    -0.267 A  
HETATM   12  N   UNL     1     -11.980  11.305  70.967  1.00  0.00    -0.224 NA 
HETATM   13  C   UNL     1     -12.052  12.636  68.954  1.00  0.00    -0.164 A  
HETATM   14  C   UNL     1     -11.183  10.401  68.877  1.00  0.00    -0.290 A  
BRANCH  11  15
HETATM   15  C   UNL     1     -12.844  13.554  71.115  1.00  0.00    -0.387 C  
HETATM   16  C   UNL     1     -12.132  14.628  71.487  1.00  0.00    -0.413 C  
HETATM   17  C   UNL     1     -12.768  15.697  72.273  1.00  0.00    -0.430 C  
HETATM   18  O   UNL     1     -11.903  16.688  72.565  1.00  0.00    -0.506 OA 
HETATM   19  O   UNL     1     -13.937  15.701  72.622  1.00  0.00    -0.566 OA 
ENDBRANCH  11  15
ENDBRANCH   2   9
BRANCH   2  20
HETATM   20  C   UNL     1      -9.877   8.752  71.624  1.00  0.00    -0.378 A  
HETATM   21  C   UNL     1      -8.623   8.296  73.655  1.00  0.00    -0.261 A  
HETATM   22  C   UNL     1      -6.105   8.156  73.646  1.00  0.00    -0.096 C  
HETATM   23  C   UNL     1      -9.842   8.502  73.001  1.00  0.00    -0.004 A  
HETATM   24  C   UNL     1      -7.455   8.569  71.563  1.00  0.00    -0.123 A  
HETATM   25  C   UNL     1      -7.420   8.336  72.944  1.00  0.00    -0.151 A  
HETATM   26  C   UNL     1      -8.675   8.773  70.907  1.00  0.00    -0.235 A  
ENDBRANCH   2  20
TORSDOF 5
ENDMDL
MODEL       98
REMARK 921   NORMALIZED FREE ENERGY PREDICTED BY IDOCK:   -5.32 KCAL/MOL
REMARK 922        TOTAL FREE ENERGY PREDICTED BY IDOCK:   -8.21 KCAL/MOL
REMARK 923 INTER-LIGAND FREE ENERGY PREDICTED BY IDOCK:   -7.24 KCAL/MOL
REMARK 924 INTRA-LIGAND FREE ENERGY PREDICTED BY IDOCK:   -0.97 KCAL/MOL
REMARK 927      BINDING AFFINITY PREDICTED BY RF-SCORE:    0.00 PKD
ROOT
HETATM    1  C   UNL     1     -10.927  15.717  66.934  1.00  0.00    -0.243 C  
HETATM    2  C   UNL     1     -10.220  14.644  66.506  1.00  0.00    -0.282 C  
ENDROOT
BRANCH   1   3
HETATM    3  C   UNL     1     -10.600  16.643  68.075  1.00  0.00    -0.338 C  
BRANCH   3   4
HETATM    4  N   UNL     1     -10.681  18.061  67.696  1.00  0.00    -0.398 NA 
HETATM    5  C   UNL     1      -9.678  19.629  66.188  1.00  0.00    -0.489 C  
HETATM    6  C   UNL     1      -9.734  20.180  67.600  1.00  0.00    -0.551 C  
HETATM    7  C   UNL     1     -10.339  18.256  66.278  1.00  0.00    -0.405 C  
HETATM    8  C   UNL     1      -9.782  18.930  68.458  1.00  0.00    -0.387 C  
ENDBRANCH   3   4
ENDBRANCH   1   3
BRANCH   2   9
HETATM    9  C   UNL     1     -10.794  13.882  65.373  1.00  0.00    -0.319 A  
HETATM   10  C   UNL     1     -12.386  13.665  63.601  1.00  0.00    -0.328 A  
HETATM   11  C   UNL     1     -10.669  12.039  63.972  1.00  0.00    -0.375 A  
HETATM   12  N   UNL     1     -10.173  12.727  65.033  1.00  0.00    -0.289 NA 
HETATM   13  C   UNL     1     -11.763  12.477  63.233  1.00  0.00    -0.478 A  
HETATM   14  C   UNL     1     -11.898  14.379  64.689  1.00  0.00    -0.460 A  
BRANCH  11  15
HETATM   15  C   UNL     1     -10.000  10.780  63.617  1.00  0.00    -0.405 C  
HETATM   16  C   UNL     1      -8.960  10.291  64.309  1.00  0.00    -0.261 C  
HETATM   17  C   UNL     1      -8.344   9.015  63.910  1.00  0.00    -0.176 C  
HETATM   18  O   UNL     1      -7.309   8.686  64.708  1.00  0.00    -0.086 OA 
HETATM   19  O   UNL     1      -8.718   8.326  62.975  1.00  0.00     0.025 OA 
ENDBRANCH  11  15
ENDBRANCH   2   9
BRANCH   2  20
HETATM   20  C   UNL     1      -8.973  14.245  67.191  1.00  0.00    -0.237 A  
HETATM   21  C   UNL     1      -6.605  14.591  67.614  1.00  0.00    -0.174 A  
HETATM   22  C   UNL     1      -5.265  12.971  69.010  1.00  0.00    -0.068 C  
HETATM   23  C   UNL     1      -7.803  14.994  67.017  1.00  0.00    -0.164 A  
HETATM   24  C   UNL     1      -7.730  12.692  68.586  1.00  0.00    -0.066 A  
HETATM   25  C   UNL     1      -6.556  13.433  68.398  1.00  0.00    -0.094 A  
HETATM   26  C   UNL     1      -8.930  13.096  67.990  1.00  0.00    -0.195 A  
ENDBRANCH   2  20
TORSDOF 5
ENDMDL
MODEL       99
REMARK 921   NORMALIZED FREE ENERGY PREDICTED BY IDOCK:   -5.32 KCAL/MOL
REMARK 922        TOTAL FREE ENERGY PREDICTED BY IDOCK:   -8.21 KCAL/MOL
REMARK 923 INTER-LIGAND FREE ENERGY PREDICTED BY IDOCK:   -7.65 KCAL/MOL
REMARK 924 INTRA-LIGAND FREE ENERGY PREDICTED BY IDOCK:   -0.56 KCAL/MOL
REMARK 927      BINDING AFFINITY PREDICTED BY RF-SCORE:    0.00 PKD
ROOT
HETATM    1  C   UNL     1     -12.762  11.658  71.242  1.00  0.00    -0.444 C  
HETATM    2  C   UNL     1     -12.274  10.550  70.636  1.00  0.00    -0.446 C  
ENDROOT
BRANCH   1   3
HETATM    3  C   UNL     1     -12.489  13.098  70.895  1.00  0.00    -0.323 C  
BRANCH   3   4
HETATM    4  N   UNL     1     -12.523  13.981  72.068  1.00  0.00    -0.223 NA 
HETATM    5  C   UNL     1     -13.833  15.753  73.008  1.00  0.00    -0.499 C  
HETATM    6  C   UNL     1     -12.356  16.102  73.001  1.00  0.00    -0.625 C  
HETATM    7  C   UNL     1     -13.903  14.345  72.425  1.00  0.00    -0.494 C  
HETATM    8  C   UNL     1     -11.802  15.242  71.881  1.00  0.00    -0.420 C  
ENDBRANCH   3   4
ENDBRANCH   1   3
BRANCH   2   9
HETATM    9  C   UNL     1     -12.682   9.247  71.209  1.00  0.00    -0.299 A  
HETATM   10  C   UNL     1     -14.387   7.703  71.869  1.00  0.00    -0.536 A  
HETATM   11  C   UNL     1     -12.059   7.162  72.009  1.00  0.00    -0.292 A  
HETATM   12  N   UNL     1     -11.693   8.374  71.518  1.00  0.00    -0.277 NA 
HETATM   13  C   UNL     1     -13.387   6.791  72.192  1.00  0.00     0.029 A  
HETATM   14  C   UNL     1     -14.032   8.952  71.372  1.00  0.00    -0.299 A  
BRANCH  11  15
HETATM   15  C   UNL     1     -10.981   6.226  72.356  1.00  0.00    -0.291 C  
HETATM   16  C   UNL     1     -10.914   4.981  71.861  1.00  0.00    -0.044 C  
HETATM   17  C   UNL     1      -9.798   4.098  72.237  1.00  0.00    -0.165 C  
HETATM   18  O   UNL     1      -9.899   2.887  71.656  1.00  0.00    -0.156 OA 
HETATM   19  O   UNL     1      -8.884   4.413  72.980  1.00  0.00    -0.112 OA 
ENDBRANCH  11  15
ENDBRANCH   2   9
BRANCH   2  20
HETATM   20  C   UNL     1     -11.336  10.668  69.499  1.00  0.00    -0.342 A  
HETATM   21  C   UNL     1      -9.095  10.424  68.592  1.00  0.00    -0.157 A  
HETATM   22  C   UNL     1      -8.526  11.204  66.261  1.00  0.00    -0.168 C  
HETATM   23  C   UNL     1     -10.003  10.263  69.642  1.00  0.00    -0.240 A  
HETATM   24  C   UNL     1     -10.841  11.380  67.230  1.00  0.00    -0.311 A  
HETATM   25  C   UNL     1      -9.504  10.991  67.380  1.00  0.00    -0.173 A  
HETATM   26  C   UNL     1     -11.752  11.217  68.281  1.00  0.00    -0.344 A  
ENDBRANCH   2  20
TORSDOF 5
ENDMDL
MODEL      100
REMARK 921   NORMALIZED FREE ENERGY PREDICTED BY IDOCK:   -5.31 KCAL/MOL
REMARK 922        TOTAL FREE ENERGY PREDICTED BY IDOCK:   -8.20 KCAL/MOL
REMARK 923 INTER-LIGAND FREE ENERGY PREDICTED BY IDOCK:   -7.08 KCAL/MOL
REMARK 924 INTRA-LIGAND FREE ENERGY PREDICTED BY IDOCK:   -1.13 KCAL/MOL
REMARK 927      BINDING AFFINITY PREDICTED BY RF-SCORE:    0.00 PKD
ROOT
HETATM    1  C   UNL     1     -11.873  11.609  69.830  1.00  0.00    -0.434 C  
HETATM    2  C   UNL     1     -11.038  11.532  68.767  1.00  0.00    -0.288 C  
ENDROOT
BRANCH   1   3
HETATM    3  C   UNL     1     -12.853  12.704  70.158  1.00  0.00     0.434 C  
BRANCH   3   4
HETATM    4  N   UNL     1     -12.430  13.518  71.306  1.00  0.00    -0.335 NA 
HETATM    5  C   UNL     1     -13.311  15.108  72.866  1.00  0.00    -0.603 C  
HETATM    6  C   UNL     1     -12.008  15.594  72.260  1.00  0.00    -0.562 C  
HETATM    7  C   UNL     1     -13.540  13.731  72.249  1.00  0.00    -0.559 C  
HETATM    8  C   UNL     1     -11.941  14.849  70.940  1.00  0.00    -0.316 C  
ENDBRANCH   3   4
ENDBRANCH   1   3
BRANCH   2   9
HETATM    9  C   UNL     1     -10.148  10.349  68.707  1.00  0.00    -0.187 A  
HETATM   10  C   UNL     1      -8.189   9.177  69.423  1.00  0.00    -0.118 A  
HETATM   11  C   UNL     1      -9.758   8.215  67.892  1.00  0.00    -0.161 A  
HETATM   12  N   UNL     1     -10.548   9.319  67.925  1.00  0.00    -0.246 NA 
HETATM   13  C   UNL     1      -8.582   8.105  68.627  1.00  0.00    -0.127 A  
HETATM   14  C   UNL     1      -8.981  10.319  69.463  1.00  0.00    -0.176 A  
BRANCH  11  15
HETATM   15  C   UNL     1     -10.191   7.106  67.030  1.00  0.00    -0.339 C  
HETATM   16  C   UNL     1      -9.682   5.869  67.130  1.00  0.00    -0.145 C  
HETATM   17  C   UNL     1     -10.170   4.798  66.247  1.00  0.00    -0.282 C  
HETATM   18  O   UNL     1      -9.541   3.629  66.480  1.00  0.00    -0.194 OA 
HETATM   19  O   UNL     1     -11.040   4.936  65.404  1.00  0.00    -0.078 OA 
ENDBRANCH  11  15
ENDBRANCH   2   9
BRANCH   2  20
HETATM   20  C   UNL     1     -10.996  12.618  67.765  1.00  0.00    -0.266 A  
HETATM   21  C   UNL     1     -10.086  14.738  67.002  1.00  0.00    -0.245 A  
HETATM   22  C   UNL     1     -11.007  15.911  64.968  1.00  0.00    -0.426 C  
HETATM   23  C   UNL     1     -10.093  13.678  67.913  1.00  0.00    -0.244 A  
HETATM   24  C   UNL     1     -11.873  13.689  65.769  1.00  0.00    -0.397 A  
HETATM   25  C   UNL     1     -10.981  14.757  65.927  1.00  0.00    -0.335 A  
HETATM   26  C   UNL     1     -11.880  12.626  66.680  1.00  0.00    -0.449 A  
ENDBRANCH   2  20
TORSDOF 5
ENDMDL
MODEL      101
REMARK 921   NORMALIZED FREE ENERGY PREDICTED BY IDOCK:   -5.29 KCAL/MOL
REMARK 922        TOTAL FREE ENERGY PREDICTED BY IDOCK:   -8.17 KCAL/MOL
REMARK 923 INTER-LIGAND FREE ENERGY PREDICTED BY IDOCK:   -7.20 KCAL/MOL
REMARK 924 INTRA-LIGAND FREE ENERGY PREDICTED BY IDOCK:   -0.97 KCAL/MOL
REMARK 927      BINDING AFFINITY PREDICTED BY RF-SCORE:    0.00 PKD
ROOT
HETATM    1  C   UNL     1      -8.996   9.481  69.238  1.00  0.00    -0.160 C  
HETATM    2  C   UNL     1     -10.123  10.171  68.941  1.00  0.00    -0.211 C  
ENDROOT
BRANCH   1   3
HETATM    3  C   UNL     1      -7.816   9.209  68.343  1.00  0.00    -0.102 C  
BRANCH   3   4
HETATM    4  N   UNL     1      -6.843  10.310  68.338  1.00  0.00    -0.061 NA 
HETATM    5  C   UNL     1      -6.711  12.660  68.782  1.00  0.00    -0.093 C  
HETATM    6  C   UNL     1      -6.068  12.313  67.452  1.00  0.00    -0.153 C  
HETATM    7  C   UNL     1      -7.174  11.323  69.352  1.00  0.00    -0.063 C  
HETATM    8  C   UNL     1      -6.760  11.021  67.060  1.00  0.00    -0.108 C  
ENDBRANCH   3   4
ENDBRANCH   1   3
BRANCH   2   9
HETATM    9  C   UNL     1     -11.148  10.258  70.007  1.00  0.00    -0.311 A  
HETATM   10  C   UNL     1     -12.415   9.247  71.767  1.00  0.00    -0.458 A  
HETATM   11  C   UNL     1     -12.605  11.574  71.238  1.00  0.00    -0.347 A  
HETATM   12  N   UNL     1     -11.692  11.476  70.238  1.00  0.00    -0.320 NA 
HETATM   13  C   UNL     1     -12.985  10.490  72.023  1.00  0.00    -0.490 A  
HETATM   14  C   UNL     1     -11.484   9.125  70.741  1.00  0.00    -0.337 A  
BRANCH  11  15
HETATM   15  C   UNL     1     -13.202  12.896  71.475  1.00  0.00    -0.346 C  
HETATM   16  C   UNL     1     -12.825  13.691  72.487  1.00  0.00    -0.298 C  
HETATM   17  C   UNL     1     -13.452  15.011  72.660  1.00  0.00    -0.460 C  
HETATM   18  O   UNL     1     -12.961  15.665  73.730  1.00  0.00    -0.522 OA 
HETATM   19  O   UNL     1     -14.312  15.473  71.927  1.00  0.00    -0.509 OA 
ENDBRANCH  11  15
ENDBRANCH   2   9
BRANCH   2  20
HETATM   20  C   UNL     1     -10.318  10.745  67.593  1.00  0.00    -0.236 A  
HETATM   21  C   UNL     1     -10.570  12.688  66.154  1.00  0.00    -0.280 A  
HETATM   22  C   UNL     1     -11.103  12.448  63.700  1.00  0.00    -0.535 C  
HETATM   23  C   UNL     1     -10.328  12.134  67.415  1.00  0.00    -0.220 A  
HETATM   24  C   UNL     1     -10.777  10.472  65.223  1.00  0.00    -0.019 A  
HETATM   25  C   UNL     1     -10.804  11.862  65.049  1.00  0.00    -0.351 A  
HETATM   26  C   UNL     1     -10.533   9.918  66.485  1.00  0.00    -0.213 A  
ENDBRANCH   2  20
TORSDOF 5
ENDMDL
MODEL      102
REMARK 921   NORMALIZED FREE ENERGY PREDICTED BY IDOCK:   -5.28 KCAL/MOL
REMARK 922        TOTAL FREE ENERGY PREDICTED BY IDOCK:   -8.17 KCAL/MOL
REMARK 923 INTER-LIGAND FREE ENERGY PREDICTED BY IDOCK:   -7.22 KCAL/MOL
REMARK 924 INTRA-LIGAND FREE ENERGY PREDICTED BY IDOCK:   -0.95 KCAL/MOL
REMARK 927      BINDING AFFINITY PREDICTED BY RF-SCORE:    0.00 PKD
ROOT
HETATM    1  C   UNL     1      -9.163  11.385  68.501  1.00  0.00    -0.174 C  
HETATM    2  C   UNL     1      -9.385  12.474  67.728  1.00  0.00    -0.198 C  
ENDROOT
BRANCH   1   3
HETATM    3  C   UNL     1      -9.678   9.985  68.294  1.00  0.00    -0.141 C  
BRANCH   3   4
HETATM    4  N   UNL     1     -10.638   9.575  69.328  1.00  0.00    -0.216 NA 
HETATM    5  C   UNL     1     -12.134  10.525  70.940  1.00  0.00    -0.487 C  
HETATM    6  C   UNL     1     -11.266   9.447  71.561  1.00  0.00    -0.457 C  
HETATM    7  C   UNL     1     -11.724  10.557  69.470  1.00  0.00    -0.241 C  
HETATM    8  C   UNL     1     -10.046   9.422  70.658  1.00  0.00    -0.291 C  
ENDBRANCH   3   4
ENDBRANCH   1   3
BRANCH   2   9
HETATM    9  C   UNL     1      -8.781  13.747  68.187  1.00  0.00    -0.183 A  
HETATM   10  C   UNL     1      -7.041  14.939  69.315  1.00  0.00    -0.160 A  
HETATM   11  C   UNL     1      -8.831  16.064  68.194  1.00  0.00    -0.178 A  
HETATM   12  N   UNL     1      -9.398  14.892  67.810  1.00  0.00    -0.192 NA 
HETATM   13  C   UNL     1      -7.657  16.128  68.937  1.00  0.00    -0.201 A  
HETATM   14  C   UNL     1      -7.610  13.728  68.938  1.00  0.00    -0.040 A  
BRANCH  11  15
HETATM   15  C   UNL     1      -9.514  17.302  67.793  1.00  0.00    -0.255 C  
HETATM   16  C   UNL     1      -9.614  18.369  68.601  1.00  0.00    -0.363 C  
HETATM   17  C   UNL     1     -10.298  19.585  68.133  1.00  0.00    -0.433 C  
HETATM   18  O   UNL     1     -10.313  20.547  69.076  1.00  0.00    -0.097 OA 
HETATM   19  O   UNL     1     -10.793  19.721  67.026  1.00  0.00    -0.468 OA 
ENDBRANCH  11  15
ENDBRANCH   2   9
BRANCH   2  20
HETATM   20  C   UNL     1     -10.240  12.381  66.526  1.00  0.00    -0.244 A  
HETATM   21  C   UNL     1     -12.399  12.692  65.454  1.00  0.00    -0.499 A  
HETATM   22  C   UNL     1     -12.820  11.917  63.091  1.00  0.00    -0.160 C  
HETATM   23  C   UNL     1     -11.566  12.830  66.569  1.00  0.00    -0.435 A  
HETATM   24  C   UNL     1     -10.589  11.671  64.229  1.00  0.00    -0.394 A  
HETATM   25  C   UNL     1     -11.920  12.105  64.278  1.00  0.00    -0.466 A  
HETATM   26  C   UNL     1      -9.754  11.810  65.344  1.00  0.00    -0.242 A  
ENDBRANCH   2  20
TORSDOF 5
ENDMDL
MODEL      103
REMARK 921   NORMALIZED FREE ENERGY PREDICTED BY IDOCK:   -5.28 KCAL/MOL
REMARK 922        TOTAL FREE ENERGY PREDICTED BY IDOCK:   -8.16 KCAL/MOL
REMARK 923 INTER-LIGAND FREE ENERGY PREDICTED BY IDOCK:   -7.90 KCAL/MOL
REMARK 924 INTRA-LIGAND FREE ENERGY PREDICTED BY IDOCK:   -0.26 KCAL/MOL
REMARK 927      BINDING AFFINITY PREDICTED BY RF-SCORE:    0.00 PKD
ROOT
HETATM    1  C   UNL     1     -11.989  11.906  68.596  1.00  0.00    -0.291 C  
HETATM    2  C   UNL     1     -12.062  11.735  69.937  1.00  0.00    -0.359 C  
ENDROOT
BRANCH   1   3
HETATM    3  C   UNL     1     -12.127  13.188  67.819  1.00  0.00    -0.215 C  
BRANCH   3   4
HETATM    4  N   UNL     1     -11.478  13.126  66.502  1.00  0.00    -0.322 NA 
HETATM    5  C   UNL     1     -11.090  14.487  64.570  1.00  0.00    -0.280 C  
HETATM    6  C   UNL     1     -11.618  13.119  64.183  1.00  0.00    -0.460 C  
HETATM    7  C   UNL     1     -10.975  14.446  66.091  1.00  0.00    -0.320 C  
HETATM    8  C   UNL     1     -12.363  12.671  65.427  1.00  0.00    -0.436 C  
ENDBRANCH   3   4
ENDBRANCH   1   3
BRANCH   2   9
HETATM    9  C   UNL     1     -11.923  10.348  70.438  1.00  0.00    -0.320 A  
HETATM   10  C   UNL     1     -12.781   8.477  71.656  1.00  0.00    -0.365 A  
HETATM   11  C   UNL     1     -10.704   8.377  70.470  1.00  0.00    -0.227 A  
HETATM   12  N   UNL     1     -10.823   9.662  70.048  1.00  0.00    -0.248 NA 
HETATM   13  C   UNL     1     -11.659   7.752  71.266  1.00  0.00    -0.301 A  
HETATM   14  C   UNL     1     -12.917   9.796  71.240  1.00  0.00    -0.470 A  
BRANCH  11  15
HETATM   15  C   UNL     1      -9.501   7.643  70.056  1.00  0.00    -0.161 C  
HETATM   16  C   UNL     1      -8.297   8.224  69.948  1.00  0.00    -0.125 C  
HETATM   17  C   UNL     1      -7.128   7.428  69.542  1.00  0.00    -0.069 C  
HETATM   18  O   UNL     1      -6.009   8.177  69.477  1.00  0.00    -0.029 OA 
HETATM   19  O   UNL     1      -7.153   6.234  69.296  1.00  0.00    -0.068 OA 
ENDBRANCH  11  15
ENDBRANCH   2   9
BRANCH   2  20
HETATM   20  C   UNL     1     -12.327  12.886  70.827  1.00  0.00    -0.385 A  
HETATM   21  C   UNL     1     -13.671  13.936  72.558  1.00  0.00    -0.665 A  
HETATM   22  C   UNL     1     -13.256  16.316  73.286  1.00  0.00    -0.399 C  
HETATM   23  C   UNL     1     -13.376  12.832  71.753  1.00  0.00    -0.436 A  
HETATM   24  C   UNL     1     -11.861  15.161  71.539  1.00  0.00    -0.436 A  
HETATM   25  C   UNL     1     -12.921  15.112  72.453  1.00  0.00    -0.452 A  
HETATM   26  C   UNL     1     -11.564  14.055  70.734  1.00  0.00    -0.064 A  
ENDBRANCH   2  20
TORSDOF 5
ENDMDL
MODEL      104
REMARK 921   NORMALIZED FREE ENERGY PREDICTED BY IDOCK:   -5.25 KCAL/MOL
REMARK 922        TOTAL FREE ENERGY PREDICTED BY IDOCK:   -8.13 KCAL/MOL
REMARK 923 INTER-LIGAND FREE ENERGY PREDICTED BY IDOCK:   -6.85 KCAL/MOL
REMARK 924 INTRA-LIGAND FREE ENERGY PREDICTED BY IDOCK:   -1.28 KCAL/MOL
REMARK 927      BINDING AFFINITY PREDICTED BY RF-SCORE:    0.00 PKD
ROOT
HETATM    1  C   UNL     1      -7.363  14.035  67.760  1.00  0.00    -0.176 C  
HETATM    2  C   UNL     1      -8.578  14.595  67.547  1.00  0.00    -0.196 C  
ENDROOT
BRANCH   1   3
HETATM    3  C   UNL     1      -6.042  14.734  67.937  1.00  0.00    -0.154 C  
BRANCH   3   4
HETATM    4  N   UNL     1      -5.362  14.356  69.183  1.00  0.00    -0.081 NA 
HETATM    5  C   UNL     1      -5.447  12.686  70.898  1.00  0.00    -0.167 C  
HETATM    6  C   UNL     1      -5.387  14.081  71.490  1.00  0.00    -0.205 C  
HETATM    7  C   UNL     1      -5.391  12.900  69.388  1.00  0.00    -0.077 C  
HETATM    8  C   UNL     1      -5.954  14.951  70.384  1.00  0.00    -0.150 C  
ENDBRANCH   3   4
ENDBRANCH   1   3
BRANCH   2   9
HETATM    9  C   UNL     1      -9.716  13.663  67.373  1.00  0.00    -0.228 A  
HETATM   10  C   UNL     1     -11.542  12.824  66.075  1.00  0.00    -0.432 A  
HETATM   11  C   UNL     1     -10.924  11.855  68.175  1.00  0.00    -0.227 A  
HETATM   12  N   UNL     1      -9.907  12.737  68.343  1.00  0.00    -0.219 NA 
HETATM   13  C   UNL     1     -11.754  11.863  67.059  1.00  0.00    -0.304 A  
HETATM   14  C   UNL     1     -10.510  13.741  66.233  1.00  0.00    -0.291 A  
BRANCH  11  15
HETATM   15  C   UNL     1     -11.134  10.862  69.238  1.00  0.00    -0.305 C  
HETATM   16  C   UNL     1     -12.030  11.032  70.222  1.00  0.00    -0.452 C  
HETATM   17  C   UNL     1     -12.202   9.992  71.249  1.00  0.00    -0.402 C  
HETATM   18  O   UNL     1     -13.133  10.335  72.160  1.00  0.00    -0.438 OA 
HETATM   19  O   UNL     1     -11.587   8.939  71.280  1.00  0.00    -0.270 OA 
ENDBRANCH  11  15
ENDBRANCH   2   9
BRANCH   2  20
HETATM   20  C   UNL     1      -8.720  16.062  67.440  1.00  0.00    -0.195 A  
HETATM   21  C   UNL     1      -9.262  18.200  68.461  1.00  0.00    -0.326 A  
HETATM   22  C   UNL     1      -9.354  20.323  67.102  1.00  0.00    -0.536 C  
HETATM   23  C   UNL     1      -9.068  16.820  68.565  1.00  0.00    -0.241 A  
HETATM   24  C   UNL     1      -8.744  18.094  66.108  1.00  0.00    -0.116 A  
HETATM   25  C   UNL     1      -9.109  18.848  67.231  1.00  0.00    -0.301 A  
HETATM   26  C   UNL     1      -8.548  16.711  66.212  1.00  0.00    -0.359 A  
ENDBRANCH   2  20
TORSDOF 5
ENDMDL
MODEL      105
REMARK 921   NORMALIZED FREE ENERGY PREDICTED BY IDOCK:   -5.24 KCAL/MOL
REMARK 922        TOTAL FREE ENERGY PREDICTED BY IDOCK:   -8.11 KCAL/MOL
REMARK 923 INTER-LIGAND FREE ENERGY PREDICTED BY IDOCK:   -6.85 KCAL/MOL
REMARK 924 INTRA-LIGAND FREE ENERGY PREDICTED BY IDOCK:   -1.26 KCAL/MOL
REMARK 927      BINDING AFFINITY PREDICTED BY RF-SCORE:    0.00 PKD
ROOT
HETATM    1  C   UNL     1     -10.823  13.935  69.296  1.00  0.00    -0.170 C  
HETATM    2  C   UNL     1     -10.664  12.916  68.418  1.00  0.00    -0.273 C  
ENDROOT
BRANCH   1   3
HETATM    3  C   UNL     1     -11.410  15.297  69.034  1.00  0.00    -0.300 C  
BRANCH   3   4
HETATM    4  N   UNL     1     -12.403  15.690  70.044  1.00  0.00    -0.340 NA 
HETATM    5  C   UNL     1     -12.664  15.825  72.421  1.00  0.00    -0.537 C  
HETATM    6  C   UNL     1     -13.849  15.132  71.774  1.00  0.00    -0.605 C  
HETATM    7  C   UNL     1     -11.755  16.210  71.258  1.00  0.00    -0.425 C  
HETATM    8  C   UNL     1     -13.270  14.593  70.480  1.00  0.00    -0.120 C  
ENDBRANCH   3   4
ENDBRANCH   1   3
BRANCH   2   9
HETATM    9  C   UNL     1     -10.021  11.687  68.938  1.00  0.00    -0.066 A  
HETATM   10  C   UNL     1      -8.083  10.318  69.242  1.00  0.00    -0.156 A  
HETATM   11  C   UNL     1     -10.209   9.738  70.179  1.00  0.00    -0.275 A  
HETATM   12  N   UNL     1     -10.797  10.849  69.666  1.00  0.00    -0.239 NA 
HETATM   13  C   UNL     1      -8.862   9.444  69.994  1.00  0.00    -0.231 A  
HETATM   14  C   UNL     1      -8.670  11.457  68.702  1.00  0.00    -0.121 A  
BRANCH  11  15
HETATM   15  C   UNL     1     -11.059   8.826  70.955  1.00  0.00    -0.328 C  
HETATM   16  C   UNL     1     -12.303   9.147  71.342  1.00  0.00    -0.404 C  
HETATM   17  C   UNL     1     -13.109   8.181  72.105  1.00  0.00    -0.243 C  
HETATM   18  O   UNL     1     -14.323   8.675  72.417  1.00  0.00    -0.482 OA 
HETATM   19  O   UNL     1     -12.738   7.062  72.420  1.00  0.00    -0.024 OA 
ENDBRANCH  11  15
ENDBRANCH   2   9
BRANCH   2  20
HETATM   20  C   UNL     1     -11.066  13.073  67.004  1.00  0.00    -0.311 A  
HETATM   21  C   UNL     1     -12.763  12.906  65.272  1.00  0.00    -0.389 A  
HETATM   22  C   UNL     1     -12.212  13.315  62.845  1.00  0.00     0.367 C  
HETATM   23  C   UNL     1     -12.387  12.817  66.616  1.00  0.00     0.043 A  
HETATM   24  C   UNL     1     -10.508  13.529  64.684  1.00  0.00    -0.439 A  
HETATM   25  C   UNL     1     -11.825  13.255  64.294  1.00  0.00    -0.469 A  
HETATM   26  C   UNL     1     -10.131  13.441  66.030  1.00  0.00    -0.308 A  
ENDBRANCH   2  20
TORSDOF 5
ENDMDL
MODEL      106
REMARK 921   NORMALIZED FREE ENERGY PREDICTED BY IDOCK:   -5.22 KCAL/MOL
REMARK 922        TOTAL FREE ENERGY PREDICTED BY IDOCK:   -8.08 KCAL/MOL
REMARK 923 INTER-LIGAND FREE ENERGY PREDICTED BY IDOCK:   -6.86 KCAL/MOL
REMARK 924 INTRA-LIGAND FREE ENERGY PREDICTED BY IDOCK:   -1.22 KCAL/MOL
REMARK 927      BINDING AFFINITY PREDICTED BY RF-SCORE:    0.00 PKD
ROOT
HETATM    1  C   UNL     1     -10.721   9.511  67.979  1.00  0.00    -0.266 C  
HETATM    2  C   UNL     1     -10.120  10.275  67.037  1.00  0.00    -0.268 C  
ENDROOT
BRANCH   1   3
HETATM    3  C   UNL     1     -10.282   8.168  68.499  1.00  0.00    -0.208 C  
BRANCH   3   4
HETATM    4  N   UNL     1     -10.548   8.001  69.934  1.00  0.00    -0.240 NA 
HETATM    5  C   UNL     1     -12.219   7.128  71.413  1.00  0.00    -0.399 C  
HETATM    6  C   UNL     1     -11.786   8.521  71.830  1.00  0.00    -0.407 C  
HETATM    7  C   UNL     1     -11.363   6.803  70.192  1.00  0.00    -0.350 C  
HETATM    8  C   UNL     1     -11.268   9.124  70.538  1.00  0.00    -0.264 C  
ENDBRANCH   3   4
ENDBRANCH   1   3
BRANCH   2   9
HETATM    9  C   UNL     1     -10.791  11.548  66.688  1.00  0.00    -0.287 A  
HETATM   10  C   UNL     1     -11.632  13.080  65.055  1.00  0.00    -0.359 A  
HETATM   11  C   UNL     1     -11.900  13.453  67.404  1.00  0.00    -0.375 A  
HETATM   12  N   UNL     1     -11.250  12.303  67.715  1.00  0.00    -0.257 NA 
HETATM   13  C   UNL     1     -12.114  13.870  66.094  1.00  0.00    -0.478 A  
HETATM   14  C   UNL     1     -10.958  11.902  65.353  1.00  0.00    -0.352 A  
BRANCH  11  15
HETATM   15  C   UNL     1     -12.382  14.274  68.523  1.00  0.00    -0.034 C  
HETATM   16  C   UNL     1     -12.376  13.844  69.794  1.00  0.00    -0.330 C  
HETATM   17  C   UNL     1     -12.859  14.723  70.871  1.00  0.00    -0.362 C  
HETATM   18  O   UNL     1     -12.791  14.124  72.076  1.00  0.00    -0.330 OA 
HETATM   19  O   UNL     1     -13.271  15.860  70.708  1.00  0.00    -0.491 OA 
ENDBRANCH  11  15
ENDBRANCH   2   9
BRANCH   2  20
HETATM   20  C   UNL     1      -8.888   9.808  66.366  1.00  0.00    -0.163 A  
HETATM   21  C   UNL     1      -6.475   9.915  66.093  1.00  0.00    -0.079 A  
HETATM   22  C   UNL     1      -5.297   8.622  64.275  1.00  0.00    -0.055 C  
HETATM   23  C   UNL     1      -7.640  10.306  66.760  1.00  0.00    -0.107 A  
HETATM   24  C   UNL     1      -7.784   8.505  64.639  1.00  0.00    -0.116 A  
HETATM   25  C   UNL     1      -6.538   9.017  65.023  1.00  0.00    -0.069 A  
HETATM   26  C   UNL     1      -8.951   8.895  65.307  1.00  0.00    -0.213 A  
ENDBRANCH   2  20
TORSDOF 5
ENDMDL
MODEL      107
REMARK 921   NORMALIZED FREE ENERGY PREDICTED BY IDOCK:   -5.18 KCAL/MOL
REMARK 922        TOTAL FREE ENERGY PREDICTED BY IDOCK:   -8.04 KCAL/MOL
REMARK 923 INTER-LIGAND FREE ENERGY PREDICTED BY IDOCK:   -7.19 KCAL/MOL
REMARK 924 INTRA-LIGAND FREE ENERGY PREDICTED BY IDOCK:   -0.84 KCAL/MOL
REMARK 927      BINDING AFFINITY PREDICTED BY RF-SCORE:    0.00 PKD
ROOT
HETATM    1  C   UNL     1      -7.464  14.959  67.407  1.00  0.00    -0.228 C  
HETATM    2  C   UNL     1      -8.749  15.384  67.367  1.00  0.00    -0.194 C  
ENDROOT
BRANCH   1   3
HETATM    3  C   UNL     1      -6.217  15.796  67.517  1.00  0.00    -0.143 C  
BRANCH   3   4
HETATM    4  N   UNL     1      -6.284  16.773  68.612  1.00  0.00    -0.147 NA 
HETATM    5  C   UNL     1      -5.185  18.756  69.386  1.00  0.00    -0.198 C  
HETATM    6  C   UNL     1      -5.355  17.747  70.505  1.00  0.00    -0.270 C  
HETATM    7  C   UNL     1      -5.837  18.103  68.170  1.00  0.00    -0.172 C  
HETATM    8  C   UNL     1      -5.456  16.425  69.768  1.00  0.00    -0.158 C  
ENDBRANCH   3   4
ENDBRANCH   1   3
BRANCH   2   9
HETATM    9  C   UNL     1      -9.789  14.340  67.221  1.00  0.00    -0.244 A  
HETATM   10  C   UNL     1     -10.978  12.757  65.879  1.00  0.00    -0.303 A  
HETATM   11  C   UNL     1     -11.373  12.980  68.229  1.00  0.00    -0.288 A  
HETATM   12  N   UNL     1     -10.444  13.963  68.346  1.00  0.00    -0.242 NA 
HETATM   13  C   UNL     1     -11.661  12.352  67.021  1.00  0.00    -0.423 A  
HETATM   14  C   UNL     1     -10.029  13.767  65.977  1.00  0.00    -0.319 A  
BRANCH  11  15
HETATM   15  C   UNL     1     -12.089  12.586  69.450  1.00  0.00    -0.237 C  
HETATM   16  C   UNL     1     -12.273  13.420  70.484  1.00  0.00    -0.425 C  
HETATM   17  C   UNL     1     -13.014  12.968  71.672  1.00  0.00    -0.321 C  
HETATM   18  O   UNL     1     -13.091  13.930  72.612  1.00  0.00    -0.454 OA 
HETATM   19  O   UNL     1     -13.508  11.860  71.803  1.00  0.00    -0.307 OA 
ENDBRANCH  11  15
ENDBRANCH   2   9
BRANCH   2  20
HETATM   20  C   UNL     1      -9.064  16.828  67.410  1.00  0.00    -0.221 A  
HETATM   21  C   UNL     1      -9.172  18.988  66.300  1.00  0.00    -0.307 A  
HETATM   22  C   UNL     1      -9.768  21.089  67.563  1.00  0.00    -0.217 C  
HETATM   23  C   UNL     1      -8.933  17.611  66.256  1.00  0.00    -0.211 A  
HETATM   24  C   UNL     1      -9.696  18.820  68.648  1.00  0.00    -0.437 A  
HETATM   25  C   UNL     1      -9.549  19.605  67.498  1.00  0.00    -0.446 A  
HETATM   26  C   UNL     1      -9.458  17.441  68.605  1.00  0.00    -0.280 A  
ENDBRANCH   2  20
TORSDOF 5
ENDMDL
MODEL      108
REMARK 921   NORMALIZED FREE ENERGY PREDICTED BY IDOCK:   -5.18 KCAL/MOL
REMARK 922        TOTAL FREE ENERGY PREDICTED BY IDOCK:   -8.03 KCAL/MOL
REMARK 923 INTER-LIGAND FREE ENERGY PREDICTED BY IDOCK:   -6.88 KCAL/MOL
REMARK 924 INTRA-LIGAND FREE ENERGY PREDICTED BY IDOCK:   -1.15 KCAL/MOL
REMARK 927      BINDING AFFINITY PREDICTED BY RF-SCORE:    0.00 PKD
ROOT
HETATM    1  C   UNL     1      -8.796  11.762  68.620  1.00  0.00    -0.062 C  
HETATM    2  C   UNL     1     -10.001  11.246  68.279  1.00  0.00    -0.201 C  
ENDROOT
BRANCH   1   3
HETATM    3  C   UNL     1      -7.972  12.766  67.858  1.00  0.00    -0.158 C  
BRANCH   3   4
HETATM    4  N   UNL     1      -8.373  14.152  68.131  1.00  0.00    -0.152 NA 
HETATM    5  C   UNL     1      -8.071  16.366  67.265  1.00  0.00    -0.198 C  
HETATM    6  C   UNL     1      -7.830  16.322  68.762  1.00  0.00    -0.216 C  
HETATM    7  C   UNL     1      -8.461  14.938  66.890  1.00  0.00    -0.223 C  
HETATM    8  C   UNL     1      -7.449  14.874  69.009  1.00  0.00    -0.144 C  
ENDBRANCH   3   4
ENDBRANCH   1   3
BRANCH   2   9
HETATM    9  C   UNL     1     -10.577  10.241  69.203  1.00  0.00    -0.230 A  
HETATM   10  C   UNL     1     -12.082   9.655  70.968  1.00  0.00    -0.421 A  
HETATM   11  C   UNL     1     -10.715   8.025  69.869  1.00  0.00    -0.242 A  
HETATM   12  N   UNL     1     -10.166   8.960  69.052  1.00  0.00    -0.201 NA 
HETATM   13  C   UNL     1     -11.675   8.332  70.829  1.00  0.00    -0.213 A  
HETATM   14  C   UNL     1     -11.524  10.627  70.145  1.00  0.00    -0.411 A  
BRANCH  11  15
HETATM   15  C   UNL     1     -10.254   6.640  69.709  1.00  0.00    -0.214 C  
HETATM   16  C   UNL     1     -10.298   5.741  70.705  1.00  0.00    -0.310 C  
HETATM   17  C   UNL     1      -9.835   4.364  70.475  1.00  0.00    -0.215 C  
HETATM   18  O   UNL     1      -9.942   3.606  71.584  1.00  0.00    -0.175 OA 
HETATM   19  O   UNL     1      -9.406   3.943  69.413  1.00  0.00    -0.145 OA 
ENDBRANCH  11  15
ENDBRANCH   2   9
BRANCH   2  20
HETATM   20  C   UNL     1     -10.656  11.640  67.014  1.00  0.00    -0.272 A  
HETATM   21  C   UNL     1     -10.884  11.407  64.606  1.00  0.00    -0.359 A  
HETATM   22  C   UNL     1     -12.397  12.923  63.273  1.00  0.00    -0.410 C  
HETATM   23  C   UNL     1     -10.313  11.002  65.816  1.00  0.00    -0.316 A  
HETATM   24  C   UNL     1     -12.165  13.083  65.773  1.00  0.00    -0.511 A  
HETATM   25  C   UNL     1     -11.809  12.456  64.573  1.00  0.00    -0.452 A  
HETATM   26  C   UNL     1     -11.595  12.677  66.986  1.00  0.00    -0.431 A  
ENDBRANCH   2  20
TORSDOF 5
ENDMDL
MODEL      109
REMARK 921   NORMALIZED FREE ENERGY PREDICTED BY IDOCK:   -5.18 KCAL/MOL
REMARK 922        TOTAL FREE ENERGY PREDICTED BY IDOCK:   -8.03 KCAL/MOL
REMARK 923 INTER-LIGAND FREE ENERGY PREDICTED BY IDOCK:   -7.06 KCAL/MOL
REMARK 924 INTRA-LIGAND FREE ENERGY PREDICTED BY IDOCK:   -0.97 KCAL/MOL
REMARK 927      BINDING AFFINITY PREDICTED BY RF-SCORE:    0.00 PKD
ROOT
HETATM    1  C   UNL     1      -8.479  14.108  67.402  1.00  0.00    -0.214 C  
HETATM    2  C   UNL     1      -9.075  12.896  67.312  1.00  0.00    -0.208 C  
ENDROOT
BRANCH   1   3
HETATM    3  C   UNL     1      -8.740  15.331  66.564  1.00  0.00    -0.279 C  
BRANCH   3   4
HETATM    4  N   UNL     1      -9.170  16.486  67.364  1.00  0.00    -0.215 NA 
HETATM    5  C   UNL     1     -10.536  18.446  67.191  1.00  0.00    -0.434 C  
HETATM    6  C   UNL     1      -9.170  18.775  67.764  1.00  0.00    -0.316 C  
HETATM    7  C   UNL     1     -10.516  16.936  66.975  1.00  0.00    -0.281 C  
HETATM    8  C   UNL     1      -8.295  17.653  67.236  1.00  0.00    -0.215 C  
ENDBRANCH   3   4
ENDBRANCH   1   3
BRANCH   2   9
HETATM    9  C   UNL     1      -8.599  11.851  68.248  1.00  0.00    -0.162 A  
HETATM   10  C   UNL     1      -6.868  10.888  69.589  1.00  0.00    -0.137 A  
HETATM   11  C   UNL     1      -9.093  10.007  69.562  1.00  0.00    -0.220 A  
HETATM   12  N   UNL     1      -9.511  10.946  68.675  1.00  0.00    -0.184 NA 
HETATM   13  C   UNL     1      -7.789   9.950  70.043  1.00  0.00    -0.192 A  
HETATM   14  C   UNL     1      -7.275  11.854  68.675  1.00  0.00    -0.109 A  
BRANCH  11  15
HETATM   15  C   UNL     1     -10.084   9.019  70.010  1.00  0.00    -0.215 C  
HETATM   16  C   UNL     1     -10.553   8.981  71.266  1.00  0.00    -0.378 C  
HETATM   17  C   UNL     1     -11.557   7.975  71.648  1.00  0.00    -0.275 C  
HETATM   18  O   UNL     1     -11.903   8.078  72.946  1.00  0.00    -0.337 OA 
HETATM   19  O   UNL     1     -12.032   7.146  70.889  1.00  0.00    -0.326 OA 
ENDBRANCH  11  15
ENDBRANCH   2   9
BRANCH   2  20
HETATM   20  C   UNL     1     -10.106  12.641  66.284  1.00  0.00    -0.264 A  
HETATM   21  C   UNL     1     -10.762  11.629  64.174  1.00  0.00    -0.418 A  
HETATM   22  C   UNL     1     -13.030  12.059  63.156  1.00  0.00    -0.046 C  
HETATM   23  C   UNL     1      -9.813  11.829  65.181  1.00  0.00    -0.263 A  
HETATM   24  C   UNL     1     -12.319  13.035  65.363  1.00  0.00    -0.538 A  
HETATM   25  C   UNL     1     -12.020  12.236  64.252  1.00  0.00    -0.489 A  
HETATM   26  C   UNL     1     -11.370  13.234  66.373  1.00  0.00    -0.341 A  
ENDBRANCH   2  20
TORSDOF 5
ENDMDL
MODEL      110
REMARK 921   NORMALIZED FREE ENERGY PREDICTED BY IDOCK:   -5.17 KCAL/MOL
REMARK 922        TOTAL FREE ENERGY PREDICTED BY IDOCK:   -8.03 KCAL/MOL
REMARK 923 INTER-LIGAND FREE ENERGY PREDICTED BY IDOCK:   -6.71 KCAL/MOL
REMARK 924 INTRA-LIGAND FREE ENERGY PREDICTED BY IDOCK:   -1.32 KCAL/MOL
REMARK 927      BINDING AFFINITY PREDICTED BY RF-SCORE:    0.00 PKD
ROOT
HETATM    1  C   UNL     1      -9.864  10.476  68.090  1.00  0.00    -0.169 C  
HETATM    2  C   UNL     1      -9.728   9.727  66.971  1.00  0.00    -0.233 C  
ENDROOT
BRANCH   1   3
HETATM    3  C   UNL     1      -9.909  10.003  69.519  1.00  0.00    -0.229 C  
BRANCH   3   4
HETATM    4  N   UNL     1      -8.581   9.965  70.146  1.00  0.00    -0.170 NA 
HETATM    5  C   UNL     1      -6.261  10.115  69.568  1.00  0.00    -0.048 C  
HETATM    6  C   UNL     1      -6.530   8.920  70.464  1.00  0.00    -0.046 C  
HETATM    7  C   UNL     1      -7.617  10.797  69.411  1.00  0.00    -0.112 C  
HETATM    8  C   UNL     1      -7.997   8.623  70.214  1.00  0.00    -0.106 C  
ENDBRANCH   3   4
ENDBRANCH   1   3
BRANCH   2   9
HETATM    9  C   UNL     1      -9.748  10.453  65.680  1.00  0.00    -0.236 A  
HETATM   10  C   UNL     1      -9.537  10.474  63.297  1.00  0.00    -0.373 A  
HETATM   11  C   UNL     1     -10.144  12.430  64.537  1.00  0.00    -0.250 A  
HETATM   12  N   UNL     1     -10.086  11.764  65.718  1.00  0.00    -0.228 NA 
HETATM   13  C   UNL     1      -9.884  11.822  63.313  1.00  0.00    -0.402 A  
HETATM   14  C   UNL     1      -9.465   9.777  64.498  1.00  0.00    -0.269 A  
BRANCH  11  15
HETATM   15  C   UNL     1     -10.497  13.856  64.587  1.00  0.00    -0.419 C  
HETATM   16  C   UNL     1     -10.206  14.639  65.636  1.00  0.00    -0.382 C  
HETATM   17  C   UNL     1     -10.573  16.064  65.617  1.00  0.00    -0.377 C  
HETATM   18  O   UNL     1     -10.214  16.690  66.754  1.00  0.00    -0.287 OA 
HETATM   19  O   UNL     1     -11.131  16.624  64.688  1.00  0.00    -0.763 OA 
ENDBRANCH  11  15
ENDBRANCH   2   9
BRANCH   2  20
HETATM   20  C   UNL     1      -9.625   8.255  67.060  1.00  0.00    -0.249 A  
HETATM   21  C   UNL     1      -8.261   6.245  67.132  1.00  0.00    -0.109 A  
HETATM   22  C   UNL     1      -9.299   3.946  67.102  1.00  0.00    -0.216 C  
HETATM   23  C   UNL     1      -8.368   7.639  67.107  1.00  0.00    -0.121 A  
HETATM   24  C   UNL     1     -10.664   6.059  67.085  1.00  0.00    -0.409 A  
HETATM   25  C   UNL     1      -9.407   5.444  67.114  1.00  0.00    -0.117 A  
HETATM   26  C   UNL     1     -10.773   7.455  67.061  1.00  0.00    -0.389 A  
ENDBRANCH   2  20
TORSDOF 5
ENDMDL
MODEL      111
REMARK 921   NORMALIZED FREE ENERGY PREDICTED BY IDOCK:   -5.16 KCAL/MOL
REMARK 922        TOTAL FREE ENERGY PREDICTED BY IDOCK:   -8.01 KCAL/MOL
REMARK 923 INTER-LIGAND FREE ENERGY PREDICTED BY IDOCK:   -6.86 KCAL/MOL
REMARK 924 INTRA-LIGAND FREE ENERGY PREDICTED BY IDOCK:   -1.15 KCAL/MOL
REMARK 927      BINDING AFFINITY PREDICTED BY RF-SCORE:    0.00 PKD
ROOT
HETATM    1  C   UNL     1      -9.231  12.826  67.755  1.00  0.00    -0.199 C  
HETATM    2  C   UNL     1      -9.002  11.501  67.595  1.00  0.00    -0.160 C  
ENDROOT
BRANCH   1   3
HETATM    3  C   UNL     1      -9.214  13.901  66.701  1.00  0.00    -0.236 C  
BRANCH   3   4
HETATM    4  N   UNL     1     -10.559  14.240  66.215  1.00  0.00    -0.286 NA 
HETATM    5  C   UNL     1     -12.629  13.188  65.628  1.00  0.00    -0.414 C  
HETATM    6  C   UNL     1     -12.182  14.163  64.555  1.00  0.00    -0.468 C  
HETATM    7  C   UNL     1     -11.564  13.290  66.716  1.00  0.00    -0.365 C  
HETATM    8  C   UNL     1     -10.680  14.234  64.756  1.00  0.00    -0.416 C  
ENDBRANCH   3   4
ENDBRANCH   1   3
BRANCH   2   9
HETATM    9  C   UNL     1      -9.048  10.668  68.819  1.00  0.00    -0.169 A  
HETATM   10  C   UNL     1      -7.943   9.392  70.515  1.00  0.00    -0.199 A  
HETATM   11  C   UNL     1     -10.307   9.766  70.544  1.00  0.00    -0.283 A  
HETATM   12  N   UNL     1     -10.259  10.497  69.401  1.00  0.00    -0.228 NA 
HETATM   13  C   UNL     1      -9.177   9.206  71.130  1.00  0.00    -0.301 A  
HETATM   14  C   UNL     1      -7.875  10.132  69.339  1.00  0.00    -0.150 A  
BRANCH  11  15
HETATM   15  C   UNL     1     -11.626   9.572  71.162  1.00  0.00    -0.439 C  
HETATM   16  C   UNL     1     -12.379   8.485  70.938  1.00  0.00    -0.055 C  
HETATM   17  C   UNL     1     -13.686   8.345  71.601  1.00  0.00    -0.364 C  
HETATM   18  O   UNL     1     -14.306   7.200  71.252  1.00  0.00    -0.361 OA 
HETATM   19  O   UNL     1     -14.160   9.157  72.378  1.00  0.00    -0.465 OA 
ENDBRANCH  11  15
ENDBRANCH   2   9
BRANCH   2  20
HETATM   20  C   UNL     1      -8.667  10.953  66.264  1.00  0.00    -0.175 A  
HETATM   21  C   UNL     1      -9.382  10.046  64.126  1.00  0.00    -0.335 A  
HETATM   22  C   UNL     1      -7.719   9.146  62.455  1.00  0.00    -0.115 C  
HETATM   23  C   UNL     1      -9.686  10.619  65.364  1.00  0.00    -0.306 A  
HETATM   24  C   UNL     1      -7.032  10.146  64.659  1.00  0.00    -0.121 A  
HETATM   25  C   UNL     1      -8.053   9.798  63.766  1.00  0.00    -0.149 A  
HETATM   26  C   UNL     1      -7.336  10.722  65.898  1.00  0.00    -0.094 A  
ENDBRANCH   2  20
TORSDOF 5
ENDMDL
MODEL      112
REMARK 921   NORMALIZED FREE ENERGY PREDICTED BY IDOCK:   -5.15 KCAL/MOL
REMARK 922        TOTAL FREE ENERGY PREDICTED BY IDOCK:   -8.00 KCAL/MOL
REMARK 923 INTER-LIGAND FREE ENERGY PREDICTED BY IDOCK:   -7.04 KCAL/MOL
REMARK 924 INTRA-LIGAND FREE ENERGY PREDICTED BY IDOCK:   -0.96 KCAL/MOL
REMARK 927      BINDING AFFINITY PREDICTED BY RF-SCORE:    0.00 PKD
ROOT
HETATM    1  C   UNL     1     -10.731  10.754  67.689  1.00  0.00    -0.305 C  
HETATM    2  C   UNL     1     -10.172   9.648  67.142  1.00  0.00    -0.305 C  
ENDROOT
BRANCH   1   3
HETATM    3  C   UNL     1     -10.565  12.185  67.252  1.00  0.00    -0.227 C  
BRANCH   3   4
HETATM    4  N   UNL     1     -11.600  12.611  66.299  1.00  0.00    -0.364 NA 
HETATM    5  C   UNL     1     -11.862  13.965  64.341  1.00  0.00    -0.456 C  
HETATM    6  C   UNL     1     -12.927  14.279  65.375  1.00  0.00    -0.230 C  
HETATM    7  C   UNL     1     -11.034  12.843  64.962  1.00  0.00    -0.297 C  
HETATM    8  C   UNL     1     -12.279  13.851  66.679  1.00  0.00    -0.424 C  
ENDBRANCH   3   4
ENDBRANCH   1   3
BRANCH   2   9
HETATM    9  C   UNL     1     -10.480   8.357  67.799  1.00  0.00    -0.220 A  
HETATM   10  C   UNL     1     -10.962   6.017  67.671  1.00  0.00    -0.334 A  
HETATM   11  C   UNL     1     -10.720   7.151  69.764  1.00  0.00    -0.239 A  
HETATM   12  N   UNL     1     -10.475   8.339  69.153  1.00  0.00    -0.220 NA 
HETATM   13  C   UNL     1     -10.960   5.975  69.061  1.00  0.00    -0.409 A  
HETATM   14  C   UNL     1     -10.722   7.225  67.026  1.00  0.00    -0.406 A  
BRANCH  11  15
HETATM   15  C   UNL     1     -10.727   7.142  71.234  1.00  0.00    -0.245 C  
HETATM   16  C   UNL     1     -10.819   6.013  71.951  1.00  0.00    -0.304 C  
HETATM   17  C   UNL     1     -10.806   6.071  73.422  1.00  0.00    -0.231 C  
HETATM   18  O   UNL     1     -10.918   4.847  73.974  1.00  0.00    -0.295 OA 
HETATM   19  O   UNL     1     -10.702   7.096  74.075  1.00  0.00    -0.283 OA 
ENDBRANCH  11  15
ENDBRANCH   2   9
BRANCH   2  20
HETATM   20  C   UNL     1      -9.259   9.762  65.985  1.00  0.00    -0.226 A  
HETATM   21  C   UNL     1      -8.921   9.907  63.583  1.00  0.00    -0.278 A  
HETATM   22  C   UNL     1      -6.609   9.874  62.575  1.00  0.00    -0.111 C  
HETATM   23  C   UNL     1      -9.777   9.858  64.688  1.00  0.00    -0.265 A  
HETATM   24  C   UNL     1      -7.015   9.783  65.056  1.00  0.00    -0.119 A  
HETATM   25  C   UNL     1      -7.534   9.863  63.757  1.00  0.00    -0.136 A  
HETATM   26  C   UNL     1      -7.872   9.736  66.163  1.00  0.00    -0.107 A  
ENDBRANCH   2  20
TORSDOF 5
ENDMDL
MODEL      113
REMARK 921   NORMALIZED FREE ENERGY PREDICTED BY IDOCK:   -5.14 KCAL/MOL
REMARK 922        TOTAL FREE ENERGY PREDICTED BY IDOCK:   -7.98 KCAL/MOL
REMARK 923 INTER-LIGAND FREE ENERGY PREDICTED BY IDOCK:   -6.72 KCAL/MOL
REMARK 924 INTRA-LIGAND FREE ENERGY PREDICTED BY IDOCK:   -1.26 KCAL/MOL
REMARK 927      BINDING AFFINITY PREDICTED BY RF-SCORE:    0.00 PKD
ROOT
HETATM    1  C   UNL     1     -10.184   8.597  69.037  1.00  0.00    -0.218 C  
HETATM    2  C   UNL     1     -10.470   7.936  70.183  1.00  0.00    -0.231 C  
ENDROOT
BRANCH   1   3
HETATM    3  C   UNL     1      -8.948   8.480  68.185  1.00  0.00    -0.142 C  
BRANCH   3   4
HETATM    4  N   UNL     1      -8.680   9.694  67.403  1.00  0.00    -0.128 NA 
HETATM    5  C   UNL     1      -9.509  11.923  67.112  1.00  0.00    -0.180 C  
HETATM    6  C   UNL     1      -9.315  11.227  65.777  1.00  0.00    -0.245 C  
HETATM    7  C   UNL     1      -9.049  10.905  68.152  1.00  0.00    -0.155 C  
HETATM    8  C   UNL     1      -9.412   9.756  66.136  1.00  0.00    -0.205 C  
ENDBRANCH   3   4
ENDBRANCH   1   3
BRANCH   2   9
HETATM    9  C   UNL     1     -11.755   8.271  70.840  1.00  0.00    -0.239 A  
HETATM   10  C   UNL     1     -13.830   7.601  71.823  1.00  0.00    -0.432 A  
HETATM   11  C   UNL     1     -13.133   9.890  71.762  1.00  0.00    -0.452 A  
HETATM   12  N   UNL     1     -11.976   9.577  71.127  1.00  0.00    -0.325 NA 
HETATM   13  C   UNL     1     -14.076   8.935  72.129  1.00  0.00    -0.497 A  
HETATM   14  C   UNL     1     -12.653   7.261  71.166  1.00  0.00    -0.362 A  
BRANCH  11  15
HETATM   15  C   UNL     1     -13.374  11.309  72.057  1.00  0.00    -0.386 C  
HETATM   16  C   UNL     1     -12.878  12.301  71.303  1.00  0.00    -0.337 C  
HETATM   17  C   UNL     1     -13.169  13.703  71.644  1.00  0.00    -0.367 C  
HETATM   18  O   UNL     1     -12.582  14.561  70.787  1.00  0.00    -0.314 OA 
HETATM   19  O   UNL     1     -13.859  14.059  72.584  1.00  0.00    -0.636 OA 
ENDBRANCH  11  15
ENDBRANCH   2   9
BRANCH   2  20
HETATM   20  C   UNL     1      -9.503   6.976  70.757  1.00  0.00    -0.161 A  
HETATM   21  C   UNL     1      -8.555   4.740  70.831  1.00  0.00    -0.126 A  
HETATM   22  C   UNL     1      -6.839   4.093  72.563  1.00  0.00    -0.050 C  
HETATM   23  C   UNL     1      -9.425   5.671  70.256  1.00  0.00    -0.202 A  
HETATM   24  C   UNL     1      -7.812   6.408  72.406  1.00  0.00    -0.102 A  
HETATM   25  C   UNL     1      -7.747   5.098  71.915  1.00  0.00    -0.109 A  
HETATM   26  C   UNL     1      -8.682   7.342  71.830  1.00  0.00    -0.123 A  
ENDBRANCH   2  20
TORSDOF 5
ENDMDL
MODEL      114
REMARK 921   NORMALIZED FREE ENERGY PREDICTED BY IDOCK:   -5.13 KCAL/MOL
REMARK 922        TOTAL FREE ENERGY PREDICTED BY IDOCK:   -7.97 KCAL/MOL
REMARK 923 INTER-LIGAND FREE ENERGY PREDICTED BY IDOCK:   -6.65 KCAL/MOL
REMARK 924 INTRA-LIGAND FREE ENERGY PREDICTED BY IDOCK:   -1.31 KCAL/MOL
REMARK 927      BINDING AFFINITY PREDICTED BY RF-SCORE:    0.00 PKD
ROOT
HETATM    1  C   UNL     1     -11.492   7.069  72.058  1.00  0.00    -0.308 C  
HETATM    2  C   UNL     1     -11.376   7.882  70.982  1.00  0.00    -0.292 C  
ENDROOT
BRANCH   1   3
HETATM    3  C   UNL     1     -11.006   5.651  72.201  1.00  0.00    -0.250 C  
BRANCH   3   4
HETATM    4  N   UNL     1      -9.838   5.538  73.085  1.00  0.00    -0.161 NA 
HETATM    5  C   UNL     1      -8.309   6.918  74.309  1.00  0.00    -0.167 C  
HETATM    6  C   UNL     1      -7.575   5.874  73.489  1.00  0.00    -0.097 C  
HETATM    7  C   UNL     1      -9.789   6.647  74.051  1.00  0.00    -0.291 C  
HETATM    8  C   UNL     1      -8.556   5.554  72.377  1.00  0.00    -0.118 C  
ENDBRANCH   3   4
ENDBRANCH   1   3
BRANCH   2   9
HETATM    9  C   UNL     1     -11.980   9.230  71.101  1.00  0.00    -0.322 A  
HETATM   10  C   UNL     1     -13.352  10.802  72.272  1.00  0.00    -0.149 A  
HETATM   11  C   UNL     1     -12.146  11.395  70.291  1.00  0.00    -0.374 A  
HETATM   12  N   UNL     1     -11.627  10.146  70.169  1.00  0.00    -0.271 NA 
HETATM   13  C   UNL     1     -13.001  11.760  71.325  1.00  0.00    -0.353 A  
HETATM   14  C   UNL     1     -12.837   9.516  72.159  1.00  0.00    -0.471 A  
BRANCH  11  15
HETATM   15  C   UNL     1     -11.770  12.380  69.267  1.00  0.00    -0.386 C  
HETATM   16  C   UNL     1     -11.888  12.141  67.952  1.00  0.00    -0.338 C  
HETATM   17  C   UNL     1     -11.509  13.177  66.978  1.00  0.00    -0.336 C  
HETATM   18  O   UNL     1     -11.682  12.760  65.709  1.00  0.00    -0.357 OA 
HETATM   19  O   UNL     1     -11.091  14.285  67.271  1.00  0.00    -0.290 OA 
ENDBRANCH  11  15
ENDBRANCH   2   9
BRANCH   2  20
HETATM   20  C   UNL     1     -10.727   7.402  69.744  1.00  0.00    -0.252 A  
HETATM   21  C   UNL     1      -8.776   7.300  68.298  1.00  0.00    -0.125 A  
HETATM   22  C   UNL     1      -8.872   6.195  66.033  1.00  0.00    -0.160 C  
HETATM   23  C   UNL     1      -9.382   7.700  69.493  1.00  0.00    -0.153 A  
HETATM   24  C   UNL     1     -10.844   6.280  67.592  1.00  0.00    -0.433 A  
HETATM   25  C   UNL     1      -9.504   6.594  67.335  1.00  0.00    -0.143 A  
HETATM   26  C   UNL     1     -11.452   6.679  68.789  1.00  0.00    -0.060 A  
ENDBRANCH   2  20
TORSDOF 5
ENDMDL
MODEL      115
REMARK 921   NORMALIZED FREE ENERGY PREDICTED BY IDOCK:   -5.11 KCAL/MOL
REMARK 922        TOTAL FREE ENERGY PREDICTED BY IDOCK:   -7.94 KCAL/MOL
REMARK 923 INTER-LIGAND FREE ENERGY PREDICTED BY IDOCK:   -6.74 KCAL/MOL
REMARK 924 INTRA-LIGAND FREE ENERGY PREDICTED BY IDOCK:   -1.21 KCAL/MOL
REMARK 927      BINDING AFFINITY PREDICTED BY RF-SCORE:    0.00 PKD
ROOT
HETATM    1  C   UNL     1      -7.564  14.430  67.518  1.00  0.00    -0.212 C  
HETATM    2  C   UNL     1      -8.779  14.990  67.310  1.00  0.00    -0.221 C  
ENDROOT
BRANCH   1   3
HETATM    3  C   UNL     1      -6.276  15.123  67.874  1.00  0.00    -0.156 C  
BRANCH   3   4
HETATM    4  N   UNL     1      -5.616  14.527  69.044  1.00  0.00    -0.084 NA 
HETATM    5  C   UNL     1      -5.604  12.503  70.325  1.00  0.00    -0.155 C  
HETATM    6  C   UNL     1      -5.712  13.722  71.221  1.00  0.00    -0.210 C  
HETATM    7  C   UNL     1      -5.506  13.066  68.910  1.00  0.00    -0.071 C  
HETATM    8  C   UNL     1      -6.316  14.771  70.307  1.00  0.00    -0.162 C  
ENDBRANCH   3   4
ENDBRANCH   1   3
BRANCH   2   9
HETATM    9  C   UNL     1      -9.878  14.070  66.935  1.00  0.00    -0.267 A  
HETATM   10  C   UNL     1     -11.865  13.596  65.690  1.00  0.00    -0.387 A  
HETATM   11  C   UNL     1     -10.816  11.956  67.083  1.00  0.00    -0.255 A  
HETATM   12  N   UNL     1      -9.834  12.818  67.450  1.00  0.00    -0.207 NA 
HETATM   13  C   UNL     1     -11.839  12.304  66.206  1.00  0.00    -0.387 A  
HETATM   14  C   UNL     1     -10.873  14.496  66.061  1.00  0.00    -0.310 A  
BRANCH  11  15
HETATM   15  C   UNL     1     -10.771  10.604  67.657  1.00  0.00    -0.315 C  
HETATM   16  C   UNL     1     -10.433   9.522  66.939  1.00  0.00    -0.279 C  
HETATM   17  C   UNL     1     -10.392   8.197  67.578  1.00  0.00    -0.261 C  
HETATM   18  O   UNL     1     -10.045   7.230  66.707  1.00  0.00    -0.224 OA 
HETATM   19  O   UNL     1     -10.636   7.986  68.755  1.00  0.00    -0.195 OA 
ENDBRANCH  11  15
ENDBRANCH   2   9
BRANCH   2  20
HETATM   20  C   UNL     1      -8.957  16.455  67.402  1.00  0.00    -0.200 A  
HETATM   21  C   UNL     1      -9.907  18.388  68.527  1.00  0.00    -0.402 A  
HETATM   22  C   UNL     1      -9.673  20.713  67.574  1.00  0.00    -0.509 C  
HETATM   23  C   UNL     1      -9.684  17.010  68.462  1.00  0.00    -0.282 A  
HETATM   24  C   UNL     1      -8.662  18.683  66.482  1.00  0.00    -0.312 A  
HETATM   25  C   UNL     1      -9.404  19.236  67.534  1.00  0.00    -0.369 A  
HETATM   26  C   UNL     1      -8.437  17.303  66.418  1.00  0.00    -0.304 A  
ENDBRANCH   2  20
TORSDOF 5
ENDMDL
MODEL      116
REMARK 921   NORMALIZED FREE ENERGY PREDICTED BY IDOCK:   -5.11 KCAL/MOL
REMARK 922        TOTAL FREE ENERGY PREDICTED BY IDOCK:   -7.94 KCAL/MOL
REMARK 923 INTER-LIGAND FREE ENERGY PREDICTED BY IDOCK:   -6.79 KCAL/MOL
REMARK 924 INTRA-LIGAND FREE ENERGY PREDICTED BY IDOCK:   -1.15 KCAL/MOL
REMARK 927      BINDING AFFINITY PREDICTED BY RF-SCORE:    0.00 PKD
ROOT
HETATM    1  C   UNL     1      -8.138  14.372  67.121  1.00  0.00    -0.171 C  
HETATM    2  C   UNL     1      -9.366  14.879  66.857  1.00  0.00    -0.258 C  
ENDROOT
BRANCH   1   3
HETATM    3  C   UNL     1      -6.971  15.069  67.768  1.00  0.00    -0.174 C  
BRANCH   3   4
HETATM    4  N   UNL     1      -6.844  14.753  69.197  1.00  0.00    -0.123 NA 
HETATM    5  C   UNL     1      -5.283  14.963  71.002  1.00  0.00    -0.135 C  
HETATM    6  C   UNL     1      -5.840  13.555  70.916  1.00  0.00    -0.150 C  
HETATM    7  C   UNL     1      -5.988  15.731  69.887  1.00  0.00    -0.166 C  
HETATM    8  C   UNL     1      -6.260  13.437  69.463  1.00  0.00    -0.114 C  
ENDBRANCH   3   4
ENDBRANCH   1   3
BRANCH   2   9
HETATM    9  C   UNL     1     -10.323  13.976  66.176  1.00  0.00    -0.297 A  
HETATM   10  C   UNL     1     -12.565  13.358  65.612  1.00  0.00    -0.496 A  
HETATM   11  C   UNL     1     -10.667  12.172  64.761  1.00  0.00    -0.301 A  
HETATM   12  N   UNL     1      -9.799  12.982  65.420  1.00  0.00    -0.173 NA 
HETATM   13  C   UNL     1     -12.048  12.332  64.828  1.00  0.00    -0.436 A  
HETATM   14  C   UNL     1     -11.692  14.193  66.300  1.00  0.00    -0.402 A  
BRANCH  11  15
HETATM   15  C   UNL     1     -10.092  11.087  63.954  1.00  0.00    -0.414 C  
HETATM   16  C   UNL     1      -9.182  10.228  64.437  1.00  0.00    -0.296 C  
HETATM   17  C   UNL     1      -8.657   9.153  63.581  1.00  0.00    -0.166 C  
HETATM   18  O   UNL     1      -7.748   8.395  64.226  1.00  0.00    -0.119 OA 
HETATM   19  O   UNL     1      -8.998   8.956  62.426  1.00  0.00    -0.189 OA 
ENDBRANCH  11  15
ENDBRANCH   2   9
BRANCH   2  20
HETATM   20  C   UNL     1      -9.687  16.282  67.191  1.00  0.00    -0.240 A  
HETATM   21  C   UNL     1      -9.891  18.608  66.514  1.00  0.00    -0.388 A  
HETATM   22  C   UNL     1     -10.408  20.425  68.186  1.00  0.00    -0.255 C  
HETATM   23  C   UNL     1      -9.647  17.268  66.197  1.00  0.00    -0.224 A  
HETATM   24  C   UNL     1     -10.240  17.996  68.821  1.00  0.00    -0.362 A  
HETATM   25  C   UNL     1     -10.183  18.984  67.830  1.00  0.00    -0.481 A  
HETATM   26  C   UNL     1      -9.997  16.654  68.504  1.00  0.00    -0.261 A  
ENDBRANCH   2  20
TORSDOF 5
ENDMDL
MODEL      117
REMARK 921   NORMALIZED FREE ENERGY PREDICTED BY IDOCK:   -5.10 KCAL/MOL
REMARK 922        TOTAL FREE ENERGY PREDICTED BY IDOCK:   -7.93 KCAL/MOL
REMARK 923 INTER-LIGAND FREE ENERGY PREDICTED BY IDOCK:   -6.79 KCAL/MOL
REMARK 924 INTRA-LIGAND FREE ENERGY PREDICTED BY IDOCK:   -1.14 KCAL/MOL
REMARK 927      BINDING AFFINITY PREDICTED BY RF-SCORE:    0.00 PKD
ROOT
HETATM    1  C   UNL     1      -9.430  15.826  66.834  1.00  0.00    -0.244 C  
HETATM    2  C   UNL     1      -9.381  14.475  66.763  1.00  0.00    -0.278 C  
ENDROOT
BRANCH   1   3
HETATM    3  C   UNL     1     -10.361  16.757  66.105  1.00  0.00    -0.330 C  
BRANCH   3   4
HETATM    4  N   UNL     1      -9.908  18.154  66.139  1.00  0.00    -0.504 NA 
HETATM    5  C   UNL     1      -8.370  19.569  67.310  1.00  0.00    -0.327 C  
HETATM    6  C   UNL     1      -9.749  20.197  67.234  1.00  0.00    -0.574 C  
HETATM    7  C   UNL     1      -8.499  18.251  66.552  1.00  0.00    -0.268 C  
HETATM    8  C   UNL     1     -10.666  19.000  67.064  1.00  0.00    -0.432 C  
ENDBRANCH   3   4
ENDBRANCH   1   3
BRANCH   2   9
HETATM    9  C   UNL     1      -8.334  13.806  67.569  1.00  0.00    -0.192 A  
HETATM   10  C   UNL     1      -6.200  13.836  68.651  1.00  0.00    -0.089 A  
HETATM   11  C   UNL     1      -7.672  11.953  68.795  1.00  0.00    -0.074 A  
HETATM   12  N   UNL     1      -8.610  12.561  68.025  1.00  0.00    -0.177 NA 
HETATM   13  C   UNL     1      -6.465  12.558  69.133  1.00  0.00    -0.099 A  
HETATM   14  C   UNL     1      -7.146  14.471  67.855  1.00  0.00    -0.168 A  
BRANCH  11  15
HETATM   15  C   UNL     1      -7.973  10.597  69.275  1.00  0.00    -0.139 C  
HETATM   16  C   UNL     1      -9.225  10.132  69.397  1.00  0.00    -0.229 C  
HETATM   17  C   UNL     1      -9.458   8.758  69.869  1.00  0.00    -0.169 C  
HETATM   18  O   UNL     1     -10.772   8.467  69.940  1.00  0.00    -0.228 OA 
HETATM   19  O   UNL     1      -8.577   7.966  70.160  1.00  0.00    -0.131 OA 
ENDBRANCH  11  15
ENDBRANCH   2   9
BRANCH   2  20
HETATM   20  C   UNL     1     -10.302  13.737  65.873  1.00  0.00    -0.315 A  
HETATM   21  C   UNL     1     -10.726  12.600  63.767  1.00  0.00    -0.454 A  
HETATM   22  C   UNL     1     -13.029  11.767  63.160  1.00  0.00     0.057 C  
HETATM   23  C   UNL     1      -9.848  13.249  64.641  1.00  0.00    -0.000 A  
HETATM   24  C   UNL     1     -12.521  12.900  65.349  1.00  0.00    -0.511 A  
HETATM   25  C   UNL     1     -12.071  12.427  64.110  1.00  0.00    -0.539 A  
HETATM   26  C   UNL     1     -11.642  13.547  66.226  1.00  0.00    -0.374 A  
ENDBRANCH   2  20
TORSDOF 5
ENDMDL
MODEL      118
REMARK 921   NORMALIZED FREE ENERGY PREDICTED BY IDOCK:   -5.09 KCAL/MOL
REMARK 922        TOTAL FREE ENERGY PREDICTED BY IDOCK:   -7.92 KCAL/MOL
REMARK 923 INTER-LIGAND FREE ENERGY PREDICTED BY IDOCK:   -6.47 KCAL/MOL
REMARK 924 INTRA-LIGAND FREE ENERGY PREDICTED BY IDOCK:   -1.45 KCAL/MOL
REMARK 927      BINDING AFFINITY PREDICTED BY RF-SCORE:    0.00 PKD
ROOT
HETATM    1  C   UNL     1      -9.783   6.372  70.084  1.00  0.00    -0.185 C  
HETATM    2  C   UNL     1     -10.215   7.655  70.128  1.00  0.00    -0.204 C  
ENDROOT
BRANCH   1   3
HETATM    3  C   UNL     1      -8.489   5.853  69.517  1.00  0.00    -0.114 C  
BRANCH   3   4
HETATM    4  N   UNL     1      -8.602   5.470  68.103  1.00  0.00    -0.101 NA 
HETATM    5  C   UNL     1      -8.469   6.434  65.914  1.00  0.00    -0.147 C  
HETATM    6  C   UNL     1      -9.714   5.582  66.066  1.00  0.00    -0.107 C  
HETATM    7  C   UNL     1      -7.744   6.310  67.251  1.00  0.00    -0.100 C  
HETATM    8  C   UNL     1      -9.958   5.590  67.564  1.00  0.00    -0.160 C  
ENDBRANCH   3   4
ENDBRANCH   1   3
BRANCH   2   9
HETATM    9  C   UNL     1     -11.556   7.882  70.717  1.00  0.00    -0.247 A  
HETATM   10  C   UNL     1     -13.651   7.047  71.513  1.00  0.00    -0.355 A  
HETATM   11  C   UNL     1     -13.075   9.366  71.645  1.00  0.00    -0.394 A  
HETATM   12  N   UNL     1     -11.864   9.153  71.071  1.00  0.00    -0.287 NA 
HETATM   13  C   UNL     1     -13.987   8.344  71.886  1.00  0.00    -0.483 A  
HETATM   14  C   UNL     1     -12.418   6.809  70.916  1.00  0.00    -0.270 A  
BRANCH  11  15
HETATM   15  C   UNL     1     -13.409  10.749  72.014  1.00  0.00    -0.403 C  
HETATM   16  C   UNL     1     -12.720  11.807  71.560  1.00  0.00    -0.400 C  
HETATM   17  C   UNL     1     -13.115  13.168  71.955  1.00  0.00    -0.376 C  
HETATM   18  O   UNL     1     -12.308  14.102  71.416  1.00  0.00    -0.342 OA 
HETATM   19  O   UNL     1     -14.061  13.434  72.679  1.00  0.00    -0.767 OA 
ENDBRANCH  11  15
ENDBRANCH   2   9
BRANCH   2  20
HETATM   20  C   UNL     1      -9.395   8.744  69.557  1.00  0.00    -0.157 A  
HETATM   21  C   UNL     1      -7.680  10.444  69.828  1.00  0.00    -0.126 A  
HETATM   22  C   UNL     1      -7.138  12.073  67.980  1.00  0.00    -0.086 C  
HETATM   23  C   UNL     1      -8.420   9.375  70.340  1.00  0.00    -0.247 A  
HETATM   24  C   UNL     1      -8.863  10.259  67.735  1.00  0.00    -0.125 A  
HETATM   25  C   UNL     1      -7.900  10.900  68.524  1.00  0.00    -0.126 A  
HETATM   26  C   UNL     1      -9.604   9.186  68.246  1.00  0.00    -0.161 A  
ENDBRANCH   2  20
TORSDOF 5
ENDMDL
MODEL      119
REMARK 921   NORMALIZED FREE ENERGY PREDICTED BY IDOCK:   -5.07 KCAL/MOL
REMARK 922        TOTAL FREE ENERGY PREDICTED BY IDOCK:   -7.89 KCAL/MOL
REMARK 923 INTER-LIGAND FREE ENERGY PREDICTED BY IDOCK:   -6.91 KCAL/MOL
REMARK 924 INTRA-LIGAND FREE ENERGY PREDICTED BY IDOCK:   -0.99 KCAL/MOL
REMARK 927      BINDING AFFINITY PREDICTED BY RF-SCORE:    0.00 PKD
ROOT
HETATM    1  C   UNL     1     -10.097   7.446  69.803  1.00  0.00    -0.193 C  
HETATM    2  C   UNL     1     -10.136   8.799  69.826  1.00  0.00    -0.198 C  
ENDROOT
BRANCH   1   3
HETATM    3  C   UNL     1      -9.082   6.562  69.129  1.00  0.00    -0.136 C  
BRANCH   3   4
HETATM    4  N   UNL     1      -9.658   5.297  68.653  1.00  0.00    -0.128 NA 
HETATM    5  C   UNL     1      -9.512   2.938  69.047  1.00  0.00    -0.165 C  
HETATM    6  C   UNL     1      -9.424   3.257  67.566  1.00  0.00    -0.209 C  
HETATM    7  C   UNL     1      -9.703   4.292  69.727  1.00  0.00    -0.220 C  
HETATM    8  C   UNL     1      -8.915   4.686  67.549  1.00  0.00    -0.112 C  
ENDBRANCH   3   4
ENDBRANCH   1   3
BRANCH   2   9
HETATM    9  C   UNL     1     -11.276   9.417  70.543  1.00  0.00    -0.275 A  
HETATM   10  C   UNL     1     -13.128   9.252  72.048  1.00  0.00    -0.512 A  
HETATM   11  C   UNL     1     -12.462  11.336  71.077  1.00  0.00    -0.400 A  
HETATM   12  N   UNL     1     -11.443  10.753  70.395  1.00  0.00    -0.315 NA 
HETATM   13  C   UNL     1     -13.317  10.624  71.912  1.00  0.00    -0.454 A  
HETATM   14  C   UNL     1     -12.095   8.636  71.351  1.00  0.00    -0.351 A  
BRANCH  11  15
HETATM   15  C   UNL     1     -12.646  12.783  70.902  1.00  0.00    -0.342 C  
HETATM   16  C   UNL     1     -13.406  13.523  71.723  1.00  0.00    -0.480 C  
HETATM   17  C   UNL     1     -13.537  14.971  71.501  1.00  0.00    -0.452 C  
HETATM   18  O   UNL     1     -14.345  15.548  72.412  1.00  0.00    -0.558 OA 
HETATM   19  O   UNL     1     -12.983  15.590  70.607  1.00  0.00    -0.462 OA 
ENDBRANCH  11  15
ENDBRANCH   2   9
BRANCH   2  20
HETATM   20  C   UNL     1      -9.112   9.592  69.114  1.00  0.00    -0.152 A  
HETATM   21  C   UNL     1      -7.011  10.812  69.135  1.00  0.00    -0.091 A  
HETATM   22  C   UNL     1      -6.211  12.093  67.114  1.00  0.00    -0.143 C  
HETATM   23  C   UNL     1      -7.957  10.012  69.783  1.00  0.00    -0.190 A  
HETATM   24  C   UNL     1      -8.350  10.768  67.130  1.00  0.00    -0.126 A  
HETATM   25  C   UNL     1      -7.203  11.202  67.805  1.00  0.00    -0.091 A  
HETATM   26  C   UNL     1      -9.297   9.966  67.778  1.00  0.00    -0.154 A  
ENDBRANCH   2  20
TORSDOF 5
ENDMDL
MODEL      120
REMARK 921   NORMALIZED FREE ENERGY PREDICTED BY IDOCK:   -5.07 KCAL/MOL
REMARK 922        TOTAL FREE ENERGY PREDICTED BY IDOCK:   -7.89 KCAL/MOL
REMARK 923 INTER-LIGAND FREE ENERGY PREDICTED BY IDOCK:   -6.50 KCAL/MOL
REMARK 924 INTRA-LIGAND FREE ENERGY PREDICTED BY IDOCK:   -1.39 KCAL/MOL
REMARK 927      BINDING AFFINITY PREDICTED BY RF-SCORE:    0.00 PKD
ROOT
HETATM    1  C   UNL     1      -8.972   8.153  68.544  1.00  0.00    -0.137 C  
HETATM    2  C   UNL     1      -9.748   7.942  69.634  1.00  0.00    -0.173 C  
ENDROOT
BRANCH   1   3
HETATM    3  C   UNL     1      -7.903   7.254  67.983  1.00  0.00    -0.118 C  
BRANCH   3   4
HETATM    4  N   UNL     1      -8.419   6.323  66.970  1.00  0.00    -0.108 NA 
HETATM    5  C   UNL     1     -10.466   5.277  66.296  1.00  0.00    -0.311 C  
HETATM    6  C   UNL     1      -9.339   4.267  66.403  1.00  0.00    -0.170 C  
HETATM    7  C   UNL     1      -9.821   6.618  66.637  1.00  0.00    -0.149 C  
HETATM    8  C   UNL     1      -8.382   4.919  67.383  1.00  0.00    -0.105 C  
ENDBRANCH   3   4
ENDBRANCH   1   3
BRANCH   2   9
HETATM    9  C   UNL     1     -10.706   9.016  69.984  1.00  0.00    -0.229 A  
HETATM   10  C   UNL     1     -12.233  10.025  71.525  1.00  0.00    -0.496 A  
HETATM   11  C   UNL     1     -11.702  11.031  69.419  1.00  0.00    -0.323 A  
HETATM   12  N   UNL     1     -10.855  10.023  69.090  1.00  0.00    -0.216 NA 
HETATM   13  C   UNL     1     -12.400  11.070  70.622  1.00  0.00    -0.480 A  
HETATM   14  C   UNL     1     -11.376   8.979  71.203  1.00  0.00    -0.375 A  
BRANCH  11  15
HETATM   15  C   UNL     1     -11.870  12.112  68.438  1.00  0.00    -0.360 C  
HETATM   16  C   UNL     1     -11.418  12.026  67.178  1.00  0.00    -0.401 C  
HETATM   17  C   UNL     1     -11.633  13.139  66.241  1.00  0.00    -0.356 C  
HETATM   18  O   UNL     1     -11.104  12.884  65.028  1.00  0.00    -0.282 OA 
HETATM   19  O   UNL     1     -12.221  14.173  66.513  1.00  0.00    -0.445 OA 
ENDBRANCH  11  15
ENDBRANCH   2   9
BRANCH   2  20
HETATM   20  C   UNL     1      -9.585   6.718  70.446  1.00  0.00    -0.174 A  
HETATM   21  C   UNL     1      -8.474   5.528  72.251  1.00  0.00    -0.122 A  
HETATM   22  C   UNL     1      -8.930   3.087  72.695  1.00  0.00    -0.112 C  
HETATM   23  C   UNL     1      -8.679   6.698  71.514  1.00  0.00    -0.131 A  
HETATM   24  C   UNL     1     -10.091   4.382  70.877  1.00  0.00    -0.199 A  
HETATM   25  C   UNL     1      -9.173   4.358  71.934  1.00  0.00    -0.174 A  
HETATM   26  C   UNL     1     -10.298   5.554  70.140  1.00  0.00    -0.354 A  
ENDBRANCH   2  20
TORSDOF 5
ENDMDL
MODEL      121
REMARK 921   NORMALIZED FREE ENERGY PREDICTED BY IDOCK:   -5.06 KCAL/MOL
REMARK 922        TOTAL FREE ENERGY PREDICTED BY IDOCK:   -7.88 KCAL/MOL
REMARK 923 INTER-LIGAND FREE ENERGY PREDICTED BY IDOCK:   -6.70 KCAL/MOL
REMARK 924 INTRA-LIGAND FREE ENERGY PREDICTED BY IDOCK:   -1.18 KCAL/MOL
REMARK 927      BINDING AFFINITY PREDICTED BY RF-SCORE:    0.00 PKD
ROOT
HETATM    1  C   UNL     1     -10.867  10.690  68.322  1.00  0.00    -0.287 C  
HETATM    2  C   UNL     1     -10.461  10.966  67.060  1.00  0.00    -0.291 C  
ENDROOT
BRANCH   1   3
HETATM    3  C   UNL     1     -11.561  11.610  69.291  1.00  0.00    -0.320 C  
BRANCH   3   4
HETATM    4  N   UNL     1     -11.761  10.996  70.611  1.00  0.00    -0.321 NA 
HETATM    5  C   UNL     1     -12.194   8.861  71.608  1.00  0.00    -0.409 C  
HETATM    6  C   UNL     1     -13.132   9.923  72.149  1.00  0.00    -0.497 C  
HETATM    7  C   UNL     1     -11.285   9.604  70.632  1.00  0.00    -0.320 C  
HETATM    8  C   UNL     1     -13.161  10.958  71.040  1.00  0.00    -0.206 C  
ENDBRANCH   3   4
ENDBRANCH   1   3
BRANCH   2   9
HETATM    9  C   UNL     1      -9.767   9.877  66.334  1.00  0.00    -0.212 A  
HETATM   10  C   UNL     1      -8.539   9.089  64.438  1.00  0.00    -0.174 A  
HETATM   11  C   UNL     1      -8.997   7.691  66.326  1.00  0.00    -0.169 A  
HETATM   12  N   UNL     1      -9.664   8.684  66.967  1.00  0.00    -0.182 NA 
HETATM   13  C   UNL     1      -8.419   7.856  65.071  1.00  0.00    -0.072 A  
HETATM   14  C   UNL     1      -9.225  10.117  65.075  1.00  0.00    -0.266 A  
BRANCH  11  15
HETATM   15  C   UNL     1      -8.901   6.395  67.012  1.00  0.00    -0.115 C  
HETATM   16  C   UNL     1      -8.648   5.248  66.364  1.00  0.00    -0.114 C  
HETATM   17  C   UNL     1      -8.550   3.985  67.113  1.00  0.00    -0.102 C  
HETATM   18  O   UNL     1      -8.303   2.938  66.301  1.00  0.00    -0.086 OA 
HETATM   19  O   UNL     1      -8.670   3.884  68.323  1.00  0.00    -0.093 OA 
ENDBRANCH  11  15
ENDBRANCH   2   9
BRANCH   2  20
HETATM   20  C   UNL     1     -10.663  12.312  66.483  1.00  0.00    -0.279 A  
HETATM   21  C   UNL     1     -11.965  13.834  65.107  1.00  0.00    -0.393 A  
HETATM   22  C   UNL     1     -11.163  16.173  64.610  1.00  0.00    -0.307 C  
HETATM   23  C   UNL     1     -11.795  12.581  65.704  1.00  0.00    -0.493 A  
HETATM   24  C   UNL     1      -9.884  14.576  66.073  1.00  0.00    -0.342 A  
HETATM   25  C   UNL     1     -11.008  14.839  65.280  1.00  0.00    -0.382 A  
HETATM   26  C   UNL     1      -9.713  13.322  66.673  1.00  0.00    -0.270 A  
ENDBRANCH   2  20
TORSDOF 5
ENDMDL
MODEL      122
REMARK 921   NORMALIZED FREE ENERGY PREDICTED BY IDOCK:   -5.06 KCAL/MOL
REMARK 922        TOTAL FREE ENERGY PREDICTED BY IDOCK:   -7.88 KCAL/MOL
REMARK 923 INTER-LIGAND FREE ENERGY PREDICTED BY IDOCK:   -6.58 KCAL/MOL
REMARK 924 INTRA-LIGAND FREE ENERGY PREDICTED BY IDOCK:   -1.30 KCAL/MOL
REMARK 927      BINDING AFFINITY PREDICTED BY RF-SCORE:    0.00 PKD
ROOT
HETATM    1  C   UNL     1      -8.026  11.622  68.130  1.00  0.00    -0.141 C  
HETATM    2  C   UNL     1      -9.337  11.318  68.285  1.00  0.00    -0.180 C  
ENDROOT
BRANCH   1   3
HETATM    3  C   UNL     1      -6.839  10.712  68.301  1.00  0.00    -0.068 C  
BRANCH   3   4
HETATM    4  N   UNL     1      -6.434  10.066  67.046  1.00  0.00    -0.068 NA 
HETATM    5  C   UNL     1      -7.331   9.456  64.910  1.00  0.00    -0.106 C  
HETATM    6  C   UNL     1      -6.587   8.297  65.547  1.00  0.00    -0.049 C  
HETATM    7  C   UNL     1      -7.180  10.608  65.899  1.00  0.00    -0.119 C  
HETATM    8  C   UNL     1      -6.651   8.617  67.028  1.00  0.00    -0.058 C  
ENDBRANCH   3   4
ENDBRANCH   1   3
BRANCH   2   9
HETATM    9  C   UNL     1     -10.302  12.423  68.086  1.00  0.00    -0.226 A  
HETATM   10  C   UNL     1     -11.495  13.913  66.643  1.00  0.00    -0.370 A  
HETATM   11  C   UNL     1     -11.850  13.880  69.010  1.00  0.00    -0.358 A  
HETATM   12  N   UNL     1     -10.936  12.892  69.187  1.00  0.00    -0.183 NA 
HETATM   13  C   UNL     1     -12.159  14.409  67.761  1.00  0.00    -0.304 A  
HETATM   14  C   UNL     1     -10.549  12.907  66.805  1.00  0.00    -0.268 A  
BRANCH  11  15
HETATM   15  C   UNL     1     -12.524  14.394  70.211  1.00  0.00    -0.413 C  
HETATM   16  C   UNL     1     -11.935  15.246  71.064  1.00  0.00    -0.395 C  
HETATM   17  C   UNL     1     -12.670  15.736  72.240  1.00  0.00    -0.446 C  
HETATM   18  O   UNL     1     -11.923  16.571  72.988  1.00  0.00    -0.530 OA 
HETATM   19  O   UNL     1     -13.820  15.434  72.516  1.00  0.00    -0.493 OA 
ENDBRANCH  11  15
ENDBRANCH   2   9
BRANCH   2  20
HETATM   20  C   UNL     1      -9.748   9.958  68.692  1.00  0.00    -0.163 A  
HETATM   21  C   UNL     1     -10.135   8.315  70.440  1.00  0.00    -0.199 A  
HETATM   22  C   UNL     1     -10.737   5.927  69.894  1.00  0.00    -0.406 C  
HETATM   23  C   UNL     1      -9.803   9.615  70.048  1.00  0.00    -0.286 A  
HETATM   24  C   UNL     1     -10.381   7.682  68.127  1.00  0.00    -0.250 A  
HETATM   25  C   UNL     1     -10.419   7.335  69.483  1.00  0.00    -0.238 A  
HETATM   26  C   UNL     1     -10.051   8.984  67.733  1.00  0.00    -0.260 A  
ENDBRANCH   2  20
TORSDOF 5
ENDMDL
MODEL      123
REMARK 921   NORMALIZED FREE ENERGY PREDICTED BY IDOCK:   -5.06 KCAL/MOL
REMARK 922        TOTAL FREE ENERGY PREDICTED BY IDOCK:   -7.88 KCAL/MOL
REMARK 923 INTER-LIGAND FREE ENERGY PREDICTED BY IDOCK:   -6.94 KCAL/MOL
REMARK 924 INTRA-LIGAND FREE ENERGY PREDICTED BY IDOCK:   -0.93 KCAL/MOL
REMARK 927      BINDING AFFINITY PREDICTED BY RF-SCORE:    0.00 PKD
ROOT
HETATM    1  C   UNL     1     -10.776  16.955  66.887  1.00  0.00    -0.130 C  
HETATM    2  C   UNL     1     -10.168  15.747  66.827  1.00  0.00    -0.284 C  
ENDROOT
BRANCH   1   3
HETATM    3  C   UNL     1     -10.313  18.188  67.617  1.00  0.00    -0.397 C  
BRANCH   3   4
HETATM    4  N   UNL     1      -8.945  18.582  67.254  1.00  0.00    -0.267 NA 
HETATM    5  C   UNL     1      -7.202  20.065  67.963  1.00  0.00    -0.328 C  
HETATM    6  C   UNL     1      -7.447  20.175  66.470  1.00  0.00    -0.312 C  
HETATM    7  C   UNL     1      -8.173  18.988  68.439  1.00  0.00    -0.347 C  
HETATM    8  C   UNL     1      -8.883  19.707  66.319  1.00  0.00    -0.371 C  
ENDBRANCH   3   4
ENDBRANCH   1   3
BRANCH   2   9
HETATM    9  C   UNL     1     -10.865  14.691  66.058  1.00  0.00    -0.318 A  
HETATM   10  C   UNL     1     -12.248  14.016  64.226  1.00  0.00    -0.453 A  
HETATM   11  C   UNL     1     -11.280  12.433  65.738  1.00  0.00    -0.333 A  
HETATM   12  N   UNL     1     -10.675  13.411  66.459  1.00  0.00    -0.284 NA 
HETATM   13  C   UNL     1     -12.064  12.694  64.619  1.00  0.00    -0.484 A  
HETATM   14  C   UNL     1     -11.643  15.033  64.957  1.00  0.00    -0.332 A  
BRANCH  11  15
HETATM   15  C   UNL     1     -11.080  11.048  66.186  1.00  0.00    -0.082 C  
HETATM   16  C   UNL     1     -10.058  10.289  65.765  1.00  0.00    -0.325 C  
HETATM   17  C   UNL     1      -9.906   8.913  66.265  1.00  0.00    -0.285 C  
HETATM   18  O   UNL     1      -8.834   8.299  65.728  1.00  0.00    -0.162 OA 
HETATM   19  O   UNL     1     -10.651   8.382  67.072  1.00  0.00    -0.314 OA 
ENDBRANCH  11  15
ENDBRANCH   2   9
BRANCH   2  20
HETATM   20  C   UNL     1      -8.902  15.507  67.552  1.00  0.00    -0.191 A  
HETATM   21  C   UNL     1      -7.716  15.130  69.639  1.00  0.00    -0.148 A  
HETATM   22  C   UNL     1      -5.197  15.021  69.722  1.00  0.00    -0.091 C  
HETATM   23  C   UNL     1      -8.913  15.300  68.937  1.00  0.00    -0.209 A  
HETATM   24  C   UNL     1      -6.478  15.353  67.582  1.00  0.00    -0.190 A  
HETATM   25  C   UNL     1      -6.488  15.163  68.970  1.00  0.00    -0.106 A  
HETATM   26  C   UNL     1      -7.676  15.521  66.877  1.00  0.00    -0.200 A  
ENDBRANCH   2  20
TORSDOF 5
ENDMDL
MODEL      124
REMARK 921   NORMALIZED FREE ENERGY PREDICTED BY IDOCK:   -5.06 KCAL/MOL
REMARK 922        TOTAL FREE ENERGY PREDICTED BY IDOCK:   -7.87 KCAL/MOL
REMARK 923 INTER-LIGAND FREE ENERGY PREDICTED BY IDOCK:   -6.75 KCAL/MOL
REMARK 924 INTRA-LIGAND FREE ENERGY PREDICTED BY IDOCK:   -1.13 KCAL/MOL
REMARK 927      BINDING AFFINITY PREDICTED BY RF-SCORE:    0.00 PKD
ROOT
HETATM    1  C   UNL     1     -10.494   9.376  67.502  1.00  0.00    -0.343 C  
HETATM    2  C   UNL     1     -10.332   8.245  68.229  1.00  0.00    -0.242 C  
ENDROOT
BRANCH   1   3
HETATM    3  C   UNL     1     -10.212   9.581  66.037  1.00  0.00    -0.172 C  
BRANCH   3   4
HETATM    4  N   UNL     1     -10.245  10.997  65.647  1.00  0.00    -0.251 NA 
HETATM    5  C   UNL     1     -11.787  12.818  65.432  1.00  0.00    -0.456 C  
HETATM    6  C   UNL     1     -10.930  12.672  64.189  1.00  0.00    -0.427 C  
HETATM    7  C   UNL     1     -11.288  11.731  66.380  1.00  0.00    -0.297 C  
HETATM    8  C   UNL     1     -10.516  11.212  64.224  1.00  0.00    -0.362 C  
ENDBRANCH   3   4
ENDBRANCH   1   3
BRANCH   2   9
HETATM    9  C   UNL     1     -10.658   8.331  69.671  1.00  0.00    -0.222 A  
HETATM   10  C   UNL     1     -11.379   9.591  71.572  1.00  0.00    -0.456 A  
HETATM   11  C   UNL     1     -10.937   7.242  71.698  1.00  0.00    -0.226 A  
HETATM   12  N   UNL     1     -10.604   7.180  70.384  1.00  0.00    -0.219 NA 
HETATM   13  C   UNL     1     -11.333   8.420  72.323  1.00  0.00    -0.448 A  
HETATM   14  C   UNL     1     -11.035   9.549  70.226  1.00  0.00    -0.317 A  
BRANCH  11  15
HETATM   15  C   UNL     1     -10.862   5.993  72.468  1.00  0.00    -0.286 C  
HETATM   16  C   UNL     1     -10.198   4.911  72.034  1.00  0.00    -0.263 C  
HETATM   17  C   UNL     1     -10.148   3.696  72.862  1.00  0.00    -0.154 C  
HETATM   18  O   UNL     1      -9.449   2.710  72.265  1.00  0.00    -0.092 OA 
HETATM   19  O   UNL     1     -10.669   3.581  73.959  1.00  0.00    -0.187 OA 
ENDBRANCH  11  15
ENDBRANCH   2   9
BRANCH   2  20
HETATM   20  C   UNL     1      -9.800   7.018  67.599  1.00  0.00    -0.180 A  
HETATM   21  C   UNL     1     -10.183   4.895  66.480  1.00  0.00    -0.305 A  
HETATM   22  C   UNL     1      -8.282   3.323  65.950  1.00  0.00    -0.094 C  
HETATM   23  C   UNL     1     -10.673   6.085  67.025  1.00  0.00    -0.412 A  
HETATM   24  C   UNL     1      -7.937   5.556  67.056  1.00  0.00    -0.102 A  
HETATM   25  C   UNL     1      -8.812   4.617  66.497  1.00  0.00    -0.111 A  
HETATM   26  C   UNL     1      -8.426   6.750  67.601  1.00  0.00    -0.122 A  
ENDBRANCH   2  20
TORSDOF 5
ENDMDL
MODEL      125
REMARK 921   NORMALIZED FREE ENERGY PREDICTED BY IDOCK:   -5.05 KCAL/MOL
REMARK 922        TOTAL FREE ENERGY PREDICTED BY IDOCK:   -7.87 KCAL/MOL
REMARK 923 INTER-LIGAND FREE ENERGY PREDICTED BY IDOCK:   -6.84 KCAL/MOL
REMARK 924 INTRA-LIGAND FREE ENERGY PREDICTED BY IDOCK:   -1.02 KCAL/MOL
REMARK 927      BINDING AFFINITY PREDICTED BY RF-SCORE:    0.00 PKD
ROOT
HETATM    1  C   UNL     1     -10.866  15.668  67.038  1.00  0.00    -0.294 C  
HETATM    2  C   UNL     1      -9.847  14.778  66.980  1.00  0.00    -0.240 C  
ENDROOT
BRANCH   1   3
HETATM    3  C   UNL     1     -10.936  16.943  67.836  1.00  0.00    -0.251 C  
BRANCH   3   4
HETATM    4  N   UNL     1     -10.098  18.010  67.274  1.00  0.00    -0.326 NA 
HETATM    5  C   UNL     1      -9.827  20.389  67.371  1.00  0.00    -0.587 C  
HETATM    6  C   UNL     1      -9.861  19.896  65.937  1.00  0.00    -0.444 C  
HETATM    7  C   UNL     1      -9.947  19.126  68.221  1.00  0.00    -0.403 C  
HETATM    8  C   UNL     1     -10.628  18.590  66.038  1.00  0.00    -0.331 C  
ENDBRANCH   3   4
ENDBRANCH   1   3
BRANCH   2   9
HETATM    9  C   UNL     1     -10.058  13.582  66.133  1.00  0.00    -0.304 A  
HETATM   10  C   UNL     1     -10.586  12.591  64.021  1.00  0.00    -0.451 A  
HETATM   11  C   UNL     1      -9.982  11.274  65.927  1.00  0.00    -0.234 A  
HETATM   12  N   UNL     1      -9.827  12.375  66.705  1.00  0.00    -0.217 NA 
HETATM   13  C   UNL     1     -10.352  11.341  64.587  1.00  0.00    -0.373 A  
HETATM   14  C   UNL     1     -10.440  13.730  64.804  1.00  0.00    -0.448 A  
BRANCH  11  15
HETATM   15  C   UNL     1      -9.744   9.968  66.557  1.00  0.00    -0.254 C  
HETATM   16  C   UNL     1     -10.378   9.575  67.672  1.00  0.00    -0.299 C  
HETATM   17  C   UNL     1     -10.106   8.247  68.244  1.00  0.00    -0.198 C  
HETATM   18  O   UNL     1     -10.821   8.026  69.364  1.00  0.00    -0.199 OA 
HETATM   19  O   UNL     1      -9.331   7.432  67.770  1.00  0.00    -0.136 OA 
ENDBRANCH  11  15
ENDBRANCH   2   9
BRANCH   2  20
HETATM   20  C   UNL     1      -8.621  14.989  67.779  1.00  0.00    -0.165 A  
HETATM   21  C   UNL     1      -7.450  14.853  69.905  1.00  0.00     0.015 A  
HETATM   22  C   UNL     1      -5.126  15.792  70.191  1.00  0.00    -0.129 C  
HETATM   23  C   UNL     1      -8.584  14.605  69.126  1.00  0.00    -0.035 A  
HETATM   24  C   UNL     1      -6.362  15.855  68.000  1.00  0.00    -0.144 A  
HETATM   25  C   UNL     1      -6.333  15.486  69.351  1.00  0.00    -0.138 A  
HETATM   26  C   UNL     1      -7.497  15.605  67.218  1.00  0.00    -0.257 A  
ENDBRANCH   2  20
TORSDOF 5
ENDMDL
MODEL      126
REMARK 921   NORMALIZED FREE ENERGY PREDICTED BY IDOCK:   -5.05 KCAL/MOL
REMARK 922        TOTAL FREE ENERGY PREDICTED BY IDOCK:   -7.86 KCAL/MOL
REMARK 923 INTER-LIGAND FREE ENERGY PREDICTED BY IDOCK:   -6.88 KCAL/MOL
REMARK 924 INTRA-LIGAND FREE ENERGY PREDICTED BY IDOCK:   -0.98 KCAL/MOL
REMARK 927      BINDING AFFINITY PREDICTED BY RF-SCORE:    0.00 PKD
ROOT
HETATM    1  C   UNL     1      -9.889   6.265  66.544  1.00  0.00    -0.176 C  
HETATM    2  C   UNL     1      -9.849   7.101  67.609  1.00  0.00    -0.183 C  
ENDROOT
BRANCH   1   3
HETATM    3  C   UNL     1     -10.199   4.792  66.537  1.00  0.00    -0.259 C  
BRANCH   3   4
HETATM    4  N   UNL     1      -9.604   4.093  65.390  1.00  0.00    -0.174 NA 
HETATM    5  C   UNL     1     -10.208   2.581  63.633  1.00  0.00    -0.158 C  
HETATM    6  C   UNL     1      -8.951   2.122  64.347  1.00  0.00    -0.111 C  
HETATM    7  C   UNL     1     -10.588   3.893  64.315  1.00  0.00    -0.223 C  
HETATM    8  C   UNL     1      -9.076   2.766  65.715  1.00  0.00    -0.125 C  
ENDBRANCH   3   4
ENDBRANCH   1   3
BRANCH   2   9
HETATM    9  C   UNL     1      -9.480   8.509  67.334  1.00  0.00    -0.150 A  
HETATM   10  C   UNL     1      -8.000  10.368  67.614  1.00  0.00    -0.106 A  
HETATM   11  C   UNL     1      -9.915  10.472  66.181  1.00  0.00    -0.229 A  
HETATM   12  N   UNL     1     -10.266   9.193  66.469  1.00  0.00    -0.274 NA 
HETATM   13  C   UNL     1      -8.793  11.088  66.726  1.00  0.00    -0.158 A  
HETATM   14  C   UNL     1      -8.348   9.058  67.927  1.00  0.00    -0.117 A  
BRANCH  11  15
HETATM   15  C   UNL     1     -10.780  11.213  65.253  1.00  0.00    -0.271 C  
HETATM   16  C   UNL     1     -11.550  12.240  65.643  1.00  0.00    -0.433 C  
HETATM   17  C   UNL     1     -12.383  12.951  64.659  1.00  0.00    -0.439 C  
HETATM   18  O   UNL     1     -13.096  13.943  65.228  1.00  0.00    -0.777 OA 
HETATM   19  O   UNL     1     -12.429  12.687  63.469  1.00  0.00    -0.652 OA 
ENDBRANCH  11  15
ENDBRANCH   2   9
BRANCH   2  20
HETATM   20  C   UNL     1     -10.109   6.592  68.973  1.00  0.00    -0.176 A  
HETATM   21  C   UNL     1     -11.572   6.415  70.905  1.00  0.00    -0.393 A  
HETATM   22  C   UNL     1     -10.809   5.304  73.037  1.00  0.00    -0.332 C  
HETATM   23  C   UNL     1     -11.339   6.842  69.594  1.00  0.00    -0.326 A  
HETATM   24  C   UNL     1      -9.357   5.466  70.989  1.00  0.00    -0.188 A  
HETATM   25  C   UNL     1     -10.581   5.730  71.616  1.00  0.00    -0.302 A  
HETATM   26  C   UNL     1      -9.123   5.891  69.676  1.00  0.00    -0.145 A  
ENDBRANCH   2  20
TORSDOF 5
ENDMDL
MODEL      127
REMARK 921   NORMALIZED FREE ENERGY PREDICTED BY IDOCK:   -5.03 KCAL/MOL
REMARK 922        TOTAL FREE ENERGY PREDICTED BY IDOCK:   -7.83 KCAL/MOL
REMARK 923 INTER-LIGAND FREE ENERGY PREDICTED BY IDOCK:   -6.71 KCAL/MOL
REMARK 924 INTRA-LIGAND FREE ENERGY PREDICTED BY IDOCK:   -1.12 KCAL/MOL
REMARK 927      BINDING AFFINITY PREDICTED BY RF-SCORE:    0.00 PKD
ROOT
HETATM    1  C   UNL     1      -8.525  11.480  68.440  1.00  0.00    -0.159 C  
HETATM    2  C   UNL     1      -9.608  10.823  67.961  1.00  0.00    -0.172 C  
ENDROOT
BRANCH   1   3
HETATM    3  C   UNL     1      -7.892  12.734  67.899  1.00  0.00    -0.156 C  
BRANCH   3   4
HETATM    4  N   UNL     1      -8.688  13.937  68.175  1.00  0.00    -0.175 NA 
HETATM    5  C   UNL     1      -8.983  16.178  67.383  1.00  0.00    -0.201 C  
HETATM    6  C   UNL     1      -8.828  16.143  68.891  1.00  0.00    -0.248 C  
HETATM    7  C   UNL     1      -8.925  14.716  66.950  1.00  0.00    -0.253 C  
HETATM    8  C   UNL     1      -8.063  14.854  69.130  1.00  0.00    -0.160 C  
ENDBRANCH   3   4
ENDBRANCH   1   3
BRANCH   2   9
HETATM    9  C   UNL     1     -10.000   9.585  68.673  1.00  0.00    -0.167 A  
HETATM   10  C   UNL     1     -10.919   8.484  70.589  1.00  0.00    -0.268 A  
HETATM   11  C   UNL     1     -10.256   7.281  68.628  1.00  0.00    -0.182 A  
HETATM   12  N   UNL     1      -9.865   8.418  67.998  1.00  0.00    -0.163 NA 
HETATM   13  C   UNL     1     -10.790   7.275  69.913  1.00  0.00    -0.264 A  
HETATM   14  C   UNL     1     -10.516   9.658  69.963  1.00  0.00    -0.301 A  
BRANCH  11  15
HETATM   15  C   UNL     1     -10.093   6.018  67.895  1.00  0.00    -0.183 C  
HETATM   16  C   UNL     1     -10.699   5.775  66.723  1.00  0.00    -0.369 C  
HETATM   17  C   UNL     1     -10.481   4.495  66.033  1.00  0.00    -0.198 C  
HETATM   18  O   UNL     1     -11.174   4.421  64.880  1.00  0.00    -0.264 OA 
HETATM   19  O   UNL     1      -9.758   3.600  66.440  1.00  0.00    -0.174 OA 
ENDBRANCH  11  15
ENDBRANCH   2   9
BRANCH   2  20
HETATM   20  C   UNL     1     -10.308  11.308  66.753  1.00  0.00    -0.278 A  
HETATM   21  C   UNL     1     -12.158  12.515  65.739  1.00  0.00    -0.443 A  
HETATM   22  C   UNL     1     -12.492  12.556  63.239  1.00  0.00    -0.411 C  
HETATM   23  C   UNL     1     -11.456  12.100  66.875  1.00  0.00    -0.414 A  
HETATM   24  C   UNL     1     -10.564  11.370  64.338  1.00  0.00    -0.403 A  
HETATM   25  C   UNL     1     -11.722  12.148  64.462  1.00  0.00    -0.410 A  
HETATM   26  C   UNL     1      -9.860  10.955  65.475  1.00  0.00    -0.298 A  
ENDBRANCH   2  20
TORSDOF 5
ENDMDL
MODEL      128
REMARK 921   NORMALIZED FREE ENERGY PREDICTED BY IDOCK:   -5.02 KCAL/MOL
REMARK 922        TOTAL FREE ENERGY PREDICTED BY IDOCK:   -7.83 KCAL/MOL
REMARK 923 INTER-LIGAND FREE ENERGY PREDICTED BY IDOCK:   -6.88 KCAL/MOL
REMARK 924 INTRA-LIGAND FREE ENERGY PREDICTED BY IDOCK:   -0.95 KCAL/MOL
REMARK 927      BINDING AFFINITY PREDICTED BY RF-SCORE:    0.00 PKD
ROOT
HETATM    1  C   UNL     1      -9.646  10.896  68.942  1.00  0.00    -0.192 C  
HETATM    2  C   UNL     1      -9.351  11.727  67.915  1.00  0.00    -0.184 C  
ENDROOT
BRANCH   1   3
HETATM    3  C   UNL     1     -10.787   9.918  69.041  1.00  0.00    -0.215 C  
BRANCH   3   4
HETATM    4  N   UNL     1     -10.856   9.257  70.351  1.00  0.00    -0.238 NA 
HETATM    5  C   UNL     1     -11.813   7.326  71.396  1.00  0.00    -0.338 C  
HETATM    6  C   UNL     1     -12.080   8.581  72.206  1.00  0.00    -0.455 C  
HETATM    7  C   UNL     1     -10.979   7.798  70.209  1.00  0.00    -0.247 C  
HETATM    8  C   UNL     1     -11.991   9.686  71.171  1.00  0.00    -0.367 C  
ENDBRANCH   3   4
ENDBRANCH   1   3
BRANCH   2   9
HETATM    9  C   UNL     1      -8.180  12.616  68.097  1.00  0.00    -0.170 A  
HETATM   10  C   UNL     1      -6.012  13.044  69.013  1.00  0.00    -0.084 A  
HETATM   11  C   UNL     1      -7.107  14.599  67.559  1.00  0.00    -0.178 A  
HETATM   12  N   UNL     1      -8.192  13.794  67.428  1.00  0.00    -0.181 NA 
HETATM   13  C   UNL     1      -6.002  14.258  68.332  1.00  0.00    -0.103 A  
HETATM   14  C   UNL     1      -7.117  12.209  68.897  1.00  0.00    -0.098 A  
BRANCH  11  15
HETATM   15  C   UNL     1      -7.133  15.881  66.842  1.00  0.00    -0.131 C  
HETATM   16  C   UNL     1      -7.297  17.058  67.466  1.00  0.00    -0.175 C  
HETATM   17  C   UNL     1      -7.298  18.308  66.691  1.00  0.00    -0.223 C  
HETATM   18  O   UNL     1      -7.485  19.386  67.477  1.00  0.00    -0.235 OA 
HETATM   19  O   UNL     1      -7.144  18.377  65.482  1.00  0.00    -0.513 OA 
ENDBRANCH  11  15
ENDBRANCH   2   9
BRANCH   2  20
HETATM   20  C   UNL     1     -10.207  11.766  66.710  1.00  0.00    -0.240 A  
HETATM   21  C   UNL     1     -10.628  11.100  64.411  1.00  0.00    -0.411 A  
HETATM   22  C   UNL     1     -12.574  12.034  63.105  1.00  0.00    -0.352 C  
HETATM   23  C   UNL     1      -9.857  11.024  65.575  1.00  0.00    -0.292 A  
HETATM   24  C   UNL     1     -12.123  12.645  65.504  1.00  0.00    -0.515 A  
HETATM   25  C   UNL     1     -11.763  11.916  64.363  1.00  0.00    -0.357 A  
HETATM   26  C   UNL     1     -11.352  12.569  66.670  1.00  0.00    -0.389 A  
ENDBRANCH   2  20
TORSDOF 5
ENDMDL
MODEL      129
REMARK 921   NORMALIZED FREE ENERGY PREDICTED BY IDOCK:   -5.01 KCAL/MOL
REMARK 922        TOTAL FREE ENERGY PREDICTED BY IDOCK:   -7.81 KCAL/MOL
REMARK 923 INTER-LIGAND FREE ENERGY PREDICTED BY IDOCK:   -6.76 KCAL/MOL
REMARK 924 INTRA-LIGAND FREE ENERGY PREDICTED BY IDOCK:   -1.05 KCAL/MOL
REMARK 927      BINDING AFFINITY PREDICTED BY RF-SCORE:    0.00 PKD
ROOT
HETATM    1  C   UNL     1     -10.734  15.853  67.581  1.00  0.00    -0.312 C  
HETATM    2  C   UNL     1     -11.018  14.830  68.421  1.00  0.00    -0.259 C  
ENDROOT
BRANCH   1   3
HETATM    3  C   UNL     1     -10.889  17.329  67.836  1.00  0.00    -0.283 C  
BRANCH   3   4
HETATM    4  N   UNL     1      -9.713  18.104  67.416  1.00  0.00    -0.289 NA 
HETATM    5  C   UNL     1      -8.009  19.517  68.331  1.00  0.00    -0.374 C  
HETATM    6  C   UNL     1      -8.649  20.146  67.108  1.00  0.00    -0.415 C  
HETATM    7  C   UNL     1      -8.703  18.165  68.483  1.00  0.00    -0.296 C  
HETATM    8  C   UNL     1     -10.017  19.491  67.057  1.00  0.00    -0.378 C  
ENDBRANCH   3   4
ENDBRANCH   1   3
BRANCH   2   9
HETATM    9  C   UNL     1     -10.801  13.462  67.897  1.00  0.00    -0.247 A  
HETATM   10  C   UNL     1     -11.597  11.521  66.746  1.00  0.00    -0.133 A  
HETATM   11  C   UNL     1      -9.338  11.704  67.518  1.00  0.00    -0.168 A  
HETATM   12  N   UNL     1      -9.557  12.943  68.029  1.00  0.00    -0.215 NA 
HETATM   13  C   UNL     1     -10.325  10.970  66.869  1.00  0.00    -0.279 A  
HETATM   14  C   UNL     1     -11.842  12.785  67.270  1.00  0.00    -0.414 A  
BRANCH  11  15
HETATM   15  C   UNL     1      -7.990  11.142  67.678  1.00  0.00    -0.116 C  
HETATM   16  C   UNL     1      -7.772   9.841  67.923  1.00  0.00    -0.087 C  
HETATM   17  C   UNL     1      -6.395   9.338  68.056  1.00  0.00    -0.054 C  
HETATM   18  O   UNL     1      -6.367   8.015  68.311  1.00  0.00    -0.047 OA 
HETATM   19  O   UNL     1      -5.392  10.023  67.948  1.00  0.00    -0.039 OA 
ENDBRANCH  11  15
ENDBRANCH   2   9
BRANCH   2  20
HETATM   20  C   UNL     1     -11.571  15.095  69.766  1.00  0.00    -0.338 A  
HETATM   21  C   UNL     1     -11.224  15.585  72.121  1.00  0.00    -0.292 A  
HETATM   22  C   UNL     1     -13.149  15.656  73.749  1.00  0.00    -0.497 C  
HETATM   23  C   UNL     1     -10.715  15.391  70.833  1.00  0.00    -0.156 A  
HETATM   24  C   UNL     1     -13.457  15.209  71.293  1.00  0.00    -0.559 A  
HETATM   25  C   UNL     1     -12.598  15.488  72.363  1.00  0.00    -0.490 A  
HETATM   26  C   UNL     1     -12.948  15.016  70.003  1.00  0.00    -0.022 A  
ENDBRANCH   2  20
TORSDOF 5
ENDMDL
MODEL      130
REMARK 921   NORMALIZED FREE ENERGY PREDICTED BY IDOCK:   -4.96 KCAL/MOL
REMARK 922        TOTAL FREE ENERGY PREDICTED BY IDOCK:   -7.76 KCAL/MOL
REMARK 923 INTER-LIGAND FREE ENERGY PREDICTED BY IDOCK:   -6.32 KCAL/MOL
REMARK 924 INTRA-LIGAND FREE ENERGY PREDICTED BY IDOCK:   -1.44 KCAL/MOL
REMARK 927      BINDING AFFINITY PREDICTED BY RF-SCORE:    0.00 PKD
ROOT
HETATM    1  C   UNL     1     -10.201   8.787  67.101  1.00  0.00    -0.346 C  
HETATM    2  C   UNL     1      -9.336   8.359  66.150  1.00  0.00    -0.267 C  
ENDROOT
BRANCH   1   3
HETATM    3  C   UNL     1     -10.527   8.131  68.416  1.00  0.00    -0.161 C  
BRANCH   3   4
HETATM    4  N   UNL     1      -9.853   8.773  69.553  1.00  0.00    -0.176 NA 
HETATM    5  C   UNL     1      -7.895  10.061  70.051  1.00  0.00    -0.172 C  
HETATM    6  C   UNL     1      -8.057   8.905  71.020  1.00  0.00    -0.205 C  
HETATM    7  C   UNL     1      -9.107   9.968  69.128  1.00  0.00    -0.184 C  
HETATM    8  C   UNL     1      -8.888   7.908  70.234  1.00  0.00    -0.140 C  
ENDBRANCH   3   4
ENDBRANCH   1   3
BRANCH   2   9
HETATM    9  C   UNL     1      -9.232   9.188  64.927  1.00  0.00    -0.068 A  
HETATM   10  C   UNL     1      -8.291   9.608  62.768  1.00  0.00    -0.162 A  
HETATM   11  C   UNL     1     -10.005  10.995  63.698  1.00  0.00    -0.361 A  
HETATM   12  N   UNL     1     -10.066  10.251  64.832  1.00  0.00    -0.326 NA 
HETATM   13  C   UNL     1      -9.140  10.703  62.649  1.00  0.00    -0.321 A  
HETATM   14  C   UNL     1      -8.333   8.838  63.925  1.00  0.00    -0.145 A  
BRANCH  11  15
HETATM   15  C   UNL     1     -10.902  12.156  63.608  1.00  0.00    -0.523 C  
HETATM   16  C   UNL     1     -11.649  12.577  64.640  1.00  0.00    -0.396 C  
HETATM   17  C   UNL     1     -12.516  13.756  64.489  1.00  0.00    -0.285 C  
HETATM   18  O   UNL     1     -13.198  14.026  65.619  1.00  0.00    -0.634 OA 
HETATM   19  O   UNL     1     -12.612  14.421  63.470  1.00  0.00    -0.784 OA 
ENDBRANCH  11  15
ENDBRANCH   2   9
BRANCH   2  20
HETATM   20  C   UNL     1      -8.591   7.095  66.327  1.00  0.00    -0.143 A  
HETATM   21  C   UNL     1      -8.469   4.679  66.094  1.00  0.00    -0.114 A  
HETATM   22  C   UNL     1      -6.531   3.362  67.029  1.00  0.00    -0.037 C  
HETATM   23  C   UNL     1      -9.139   5.887  65.879  1.00  0.00    -0.135 A  
HETATM   24  C   UNL     1      -6.681   5.868  67.192  1.00  0.00    -0.061 A  
HETATM   25  C   UNL     1      -7.238   4.658  66.759  1.00  0.00    -0.080 A  
HETATM   26  C   UNL     1      -7.351   7.079  66.976  1.00  0.00    -0.086 A  
ENDBRANCH   2  20
TORSDOF 5
ENDMDL
MODEL      131
REMARK 921   NORMALIZED FREE ENERGY PREDICTED BY IDOCK:   -4.96 KCAL/MOL
REMARK 922        TOTAL FREE ENERGY PREDICTED BY IDOCK:   -7.75 KCAL/MOL
REMARK 923 INTER-LIGAND FREE ENERGY PREDICTED BY IDOCK:   -7.28 KCAL/MOL
REMARK 924 INTRA-LIGAND FREE ENERGY PREDICTED BY IDOCK:   -0.47 KCAL/MOL
REMARK 927      BINDING AFFINITY PREDICTED BY RF-SCORE:    0.00 PKD
ROOT
HETATM    1  C   UNL     1      -9.184  10.242  66.730  1.00  0.00    -0.180 C  
HETATM    2  C   UNL     1      -9.920  10.840  67.697  1.00  0.00    -0.199 C  
ENDROOT
BRANCH   1   3
HETATM    3  C   UNL     1      -8.453   8.928  66.805  1.00  0.00    -0.115 C  
BRANCH   3   4
HETATM    4  N   UNL     1      -9.218   7.818  66.221  1.00  0.00    -0.180 NA 
HETATM    5  C   UNL     1     -10.702   6.054  66.873  1.00  0.00    -0.407 C  
HETATM    6  C   UNL     1      -9.596   5.539  65.972  1.00  0.00    -0.128 C  
HETATM    7  C   UNL     1     -10.447   7.555  66.985  1.00  0.00    -0.338 C  
HETATM    8  C   UNL     1      -8.484   6.552  66.175  1.00  0.00    -0.137 C  
ENDBRANCH   3   4
ENDBRANCH   1   3
BRANCH   2   9
HETATM    9  C   UNL     1     -10.507  12.158  67.363  1.00  0.00    -0.213 A  
HETATM   10  C   UNL     1     -12.282  13.478  66.452  1.00  0.00    -0.454 A  
HETATM   11  C   UNL     1     -10.363  14.468  67.485  1.00  0.00    -0.244 A  
HETATM   12  N   UNL     1      -9.815  13.256  67.753  1.00  0.00    -0.218 NA 
HETATM   13  C   UNL     1     -11.589  14.619  66.846  1.00  0.00    -0.374 A  
HETATM   14  C   UNL     1     -11.733  12.227  66.711  1.00  0.00    -0.411 A  
BRANCH  11  15
HETATM   15  C   UNL     1      -9.601  15.655  67.898  1.00  0.00    -0.206 C  
HETATM   16  C   UNL     1     -10.178  16.842  68.133  1.00  0.00    -0.311 C  
HETATM   17  C   UNL     1      -9.359  17.988  68.559  1.00  0.00    -0.304 C  
HETATM   18  O   UNL     1     -10.103  19.098  68.738  1.00  0.00    -0.400 OA 
HETATM   19  O   UNL     1      -8.153  17.952  68.738  1.00  0.00    -0.292 OA 
ENDBRANCH  11  15
ENDBRANCH   2   9
BRANCH   2  20
HETATM   20  C   UNL     1     -10.063  10.212  69.028  1.00  0.00    -0.216 A  
HETATM   21  C   UNL     1      -9.067   9.083  70.935  1.00  0.00    -0.309 A  
HETATM   22  C   UNL     1     -10.482   8.180  72.818  1.00  0.00    -0.385 C  
HETATM   23  C   UNL     1      -8.935   9.730  69.703  1.00  0.00    -0.229 A  
HETATM   24  C   UNL     1     -11.455   9.406  70.847  1.00  0.00    -0.382 A  
HETATM   25  C   UNL     1     -10.328   8.909  71.514  1.00  0.00    -0.394 A  
HETATM   26  C   UNL     1     -11.323  10.056  69.614  1.00  0.00    -0.253 A  
ENDBRANCH   2  20
TORSDOF 5
ENDMDL
MODEL      132
REMARK 921   NORMALIZED FREE ENERGY PREDICTED BY IDOCK:   -4.90 KCAL/MOL
REMARK 922        TOTAL FREE ENERGY PREDICTED BY IDOCK:   -7.67 KCAL/MOL
REMARK 923 INTER-LIGAND FREE ENERGY PREDICTED BY IDOCK:   -6.63 KCAL/MOL
REMARK 924 INTRA-LIGAND FREE ENERGY PREDICTED BY IDOCK:   -1.04 KCAL/MOL
REMARK 927      BINDING AFFINITY PREDICTED BY RF-SCORE:    0.00 PKD
ROOT
HETATM    1  C   UNL     1     -11.253  11.936  69.243  1.00  0.00    -0.304 C  
HETATM    2  C   UNL     1     -11.008  10.607  69.329  1.00  0.00    -0.294 C  
ENDROOT
BRANCH   1   3
HETATM    3  C   UNL     1     -10.713  12.912  68.231  1.00  0.00    -0.244 C  
BRANCH   3   4
HETATM    4  N   UNL     1     -10.607  14.278  68.760  1.00  0.00    -0.248 NA 
HETATM    5  C   UNL     1     -10.646  16.554  68.016  1.00  0.00    -0.328 C  
HETATM    6  C   UNL     1      -9.462  16.292  68.928  1.00  0.00    -0.252 C  
HETATM    7  C   UNL     1     -11.395  15.226  67.957  1.00  0.00    -0.338 C  
HETATM    8  C   UNL     1      -9.239  14.799  68.785  1.00  0.00    -0.196 C  
ENDBRANCH   3   4
ENDBRANCH   1   3
BRANCH   2   9
HETATM    9  C   UNL     1     -11.649   9.887  70.454  1.00  0.00    -0.282 A  
HETATM   10  C   UNL     1     -13.339   9.738  72.140  1.00  0.00    -0.527 A  
HETATM   11  C   UNL     1     -11.761   7.977  71.763  1.00  0.00    -0.291 A  
HETATM   12  N   UNL     1     -11.157   8.662  70.759  1.00  0.00    -0.250 NA 
HETATM   13  C   UNL     1     -12.852   8.477  72.469  1.00  0.00    -0.310 A  
HETATM   14  C   UNL     1     -12.729  10.458  71.119  1.00  0.00    -0.514 A  
BRANCH  11  15
HETATM   15  C   UNL     1     -11.214   6.656  72.099  1.00  0.00    -0.299 C  
HETATM   16  C   UNL     1     -10.448   5.952  71.252  1.00  0.00    -0.289 C  
HETATM   17  C   UNL     1      -9.918   4.640  71.655  1.00  0.00    -0.193 C  
HETATM   18  O   UNL     1      -9.182   4.074  70.679  1.00  0.00    -0.102 OA 
HETATM   19  O   UNL     1     -10.110   4.117  72.741  1.00  0.00    -0.148 OA 
ENDBRANCH  11  15
ENDBRANCH   2   9
BRANCH   2  20
HETATM   20  C   UNL     1     -10.096   9.948  68.371  1.00  0.00    -0.189 A  
HETATM   21  C   UNL     1      -9.756   8.700  66.313  1.00  0.00    -0.322 A  
HETATM   22  C   UNL     1      -7.481   7.827  65.663  1.00  0.00    -0.075 C  
HETATM   23  C   UNL     1     -10.602   9.377  67.197  1.00  0.00    -0.294 A  
HETATM   24  C   UNL     1      -7.879   9.171  67.752  1.00  0.00    -0.100 A  
HETATM   25  C   UNL     1      -8.389   8.585  66.587  1.00  0.00    -0.112 A  
HETATM   26  C   UNL     1      -8.726   9.850  68.637  1.00  0.00    -0.124 A  
ENDBRANCH   2  20
TORSDOF 5
ENDMDL
MODEL      133
REMARK 921   NORMALIZED FREE ENERGY PREDICTED BY IDOCK:   -4.89 KCAL/MOL
REMARK 922        TOTAL FREE ENERGY PREDICTED BY IDOCK:   -7.65 KCAL/MOL
REMARK 923 INTER-LIGAND FREE ENERGY PREDICTED BY IDOCK:   -6.39 KCAL/MOL
REMARK 924 INTRA-LIGAND FREE ENERGY PREDICTED BY IDOCK:   -1.27 KCAL/MOL
REMARK 927      BINDING AFFINITY PREDICTED BY RF-SCORE:    0.00 PKD
ROOT
HETATM    1  C   UNL     1     -11.063  14.850  67.030  1.00  0.00    -0.338 C  
HETATM    2  C   UNL     1     -10.169  14.252  67.854  1.00  0.00    -0.237 C  
ENDROOT
BRANCH   1   3
HETATM    3  C   UNL     1     -12.270  14.234  66.374  1.00  0.00    -0.401 C  
BRANCH   3   4
HETATM    4  N   UNL     1     -11.948  13.568  65.105  1.00  0.00    -0.349 NA 
HETATM    5  C   UNL     1     -11.108  11.484  64.275  1.00  0.00    -0.385 C  
HETATM    6  C   UNL     1     -10.388  12.659  63.643  1.00  0.00    -0.284 C  
HETATM    7  C   UNL     1     -12.148  12.114  65.198  1.00  0.00    -0.218 C  
HETATM    8  C   UNL     1     -10.565  13.765  64.667  1.00  0.00    -0.425 C  
ENDBRANCH   3   4
ENDBRANCH   1   3
BRANCH   2   9
HETATM    9  C   UNL     1      -9.047  15.091  68.334  1.00  0.00    -0.184 A  
HETATM   10  C   UNL     1      -7.014  15.342  69.571  1.00  0.00    -0.191 A  
HETATM   11  C   UNL     1      -7.955  17.135  68.295  1.00  0.00    -0.236 A  
HETATM   12  N   UNL     1      -9.001  16.370  67.890  1.00  0.00    -0.195 NA 
HETATM   13  C   UNL     1      -6.946  16.658  69.125  1.00  0.00    -0.227 A  
HETATM   14  C   UNL     1      -8.081  14.544  69.173  1.00  0.00    -0.032 A  
BRANCH  11  15
HETATM   15  C   UNL     1      -7.919  18.526  67.821  1.00  0.00    -0.263 C  
HETATM   16  C   UNL     1      -7.470  18.866  66.604  1.00  0.00    -0.242 C  
HETATM   17  C   UNL     1      -7.475  20.276  66.185  1.00  0.00    -0.225 C  
HETATM   18  O   UNL     1      -6.980  20.432  64.941  1.00  0.00    -0.275 OA 
HETATM   19  O   UNL     1      -7.879  21.203  66.868  1.00  0.00    -0.105 OA 
ENDBRANCH  11  15
ENDBRANCH   2   9
BRANCH   2  20
HETATM   20  C   UNL     1     -10.301  12.819  68.192  1.00  0.00    -0.243 A  
HETATM   21  C   UNL     1      -9.608  10.513  67.868  1.00  0.00    -0.164 A  
HETATM   22  C   UNL     1     -10.811   8.605  68.997  1.00  0.00    -0.043 C  
HETATM   23  C   UNL     1      -9.453  11.876  67.599  1.00  0.00    -0.182 A  
HETATM   24  C   UNL     1     -11.450  11.014  69.340  1.00  0.00    -0.364 A  
HETATM   25  C   UNL     1     -10.612  10.070  68.734  1.00  0.00    -0.241 A  
HETATM   26  C   UNL     1     -11.295  12.379  69.073  1.00  0.00    -0.336 A  
ENDBRANCH   2  20
TORSDOF 5
ENDMDL
MODEL      134
REMARK 921   NORMALIZED FREE ENERGY PREDICTED BY IDOCK:   -4.87 KCAL/MOL
REMARK 922        TOTAL FREE ENERGY PREDICTED BY IDOCK:   -7.63 KCAL/MOL
REMARK 923 INTER-LIGAND FREE ENERGY PREDICTED BY IDOCK:   -6.27 KCAL/MOL
REMARK 924 INTRA-LIGAND FREE ENERGY PREDICTED BY IDOCK:   -1.36 KCAL/MOL
REMARK 927      BINDING AFFINITY PREDICTED BY RF-SCORE:    0.00 PKD
ROOT
HETATM    1  C   UNL     1      -8.174   6.932  70.828  1.00  0.00    -0.122 C  
HETATM    2  C   UNL     1      -9.148   7.437  70.035  1.00  0.00    -0.148 C  
ENDROOT
BRANCH   1   3
HETATM    3  C   UNL     1      -8.250   6.614  72.298  1.00  0.00    -0.104 C  
BRANCH   3   4
HETATM    4  N   UNL     1      -8.604   5.211  72.556  1.00  0.00    -0.120 NA 
HETATM    5  C   UNL     1      -9.659   3.346  71.486  1.00  0.00    -0.233 C  
HETATM    6  C   UNL     1     -10.208   3.564  72.884  1.00  0.00    -0.238 C  
HETATM    7  C   UNL     1      -8.586   4.417  71.318  1.00  0.00    -0.106 C  
HETATM    8  C   UNL     1      -9.936   5.034  73.137  1.00  0.00    -0.159 C  
ENDBRANCH   3   4
ENDBRANCH   1   3
BRANCH   2   9
HETATM    9  C   UNL     1      -8.789   7.688  68.620  1.00  0.00    -0.127 A  
HETATM   10  C   UNL     1      -7.813   6.965  66.559  1.00  0.00    -0.106 A  
HETATM   11  C   UNL     1      -8.902   9.086  66.775  1.00  0.00    -0.127 A  
HETATM   12  N   UNL     1      -9.195   8.862  68.081  1.00  0.00    -0.139 NA 
HETATM   13  C   UNL     1      -8.223   8.164  65.985  1.00  0.00    -0.121 A  
HETATM   14  C   UNL     1      -8.097   6.721  67.898  1.00  0.00    -0.114 A  
BRANCH  11  15
HETATM   15  C   UNL     1      -9.333  10.368  66.201  1.00  0.00    -0.210 C  
HETATM   16  C   UNL     1     -10.560  10.875  66.396  1.00  0.00    -0.289 C  
HETATM   17  C   UNL     1     -10.923  12.172  65.805  1.00  0.00    -0.297 C  
HETATM   18  O   UNL     1     -12.193  12.518  66.095  1.00  0.00    -0.609 OA 
HETATM   19  O   UNL     1     -10.175  12.865  65.136  1.00  0.00    -0.288 OA 
ENDBRANCH  11  15
ENDBRANCH   2   9
BRANCH   2  20
HETATM   20  C   UNL     1     -10.476   7.767  70.595  1.00  0.00    -0.213 A  
HETATM   21  C   UNL     1     -11.933   9.313  71.775  1.00  0.00    -0.455 A  
HETATM   22  C   UNL     1     -14.282   8.669  72.431  1.00  0.00    -0.443 C  
HETATM   23  C   UNL     1     -10.698   9.014  71.191  1.00  0.00    -0.358 A  
HETATM   24  C   UNL     1     -12.751   7.129  71.160  1.00  0.00    -0.363 A  
HETATM   25  C   UNL     1     -12.967   8.371  71.771  1.00  0.00    -0.368 A  
HETATM   26  C   UNL     1     -11.515   6.830  70.574  1.00  0.00    -0.413 A  
ENDBRANCH   2  20
TORSDOF 5
ENDMDL
MODEL      135
REMARK 921   NORMALIZED FREE ENERGY PREDICTED BY IDOCK:   -4.86 KCAL/MOL
REMARK 922        TOTAL FREE ENERGY PREDICTED BY IDOCK:   -7.63 KCAL/MOL
REMARK 923 INTER-LIGAND FREE ENERGY PREDICTED BY IDOCK:   -6.34 KCAL/MOL
REMARK 924 INTRA-LIGAND FREE ENERGY PREDICTED BY IDOCK:   -1.29 KCAL/MOL
REMARK 927      BINDING AFFINITY PREDICTED BY RF-SCORE:    0.00 PKD
ROOT
HETATM    1  C   UNL     1     -11.655  10.190  69.817  1.00  0.00    -0.245 C  
HETATM    2  C   UNL     1     -11.119  11.126  68.999  1.00  0.00    -0.299 C  
ENDROOT
BRANCH   1   3
HETATM    3  C   UNL     1     -11.501   8.694  69.736  1.00  0.00     0.239 C  
BRANCH   3   4
HETATM    4  N   UNL     1     -10.452   8.183  70.628  1.00  0.00    -0.207 NA 
HETATM    5  C   UNL     1      -8.313   8.805  71.510  1.00  0.00    -0.212 C  
HETATM    6  C   UNL     1      -8.292   7.393  70.955  1.00  0.00    -0.114 C  
HETATM    7  C   UNL     1      -9.750   9.279  71.314  1.00  0.00    -0.229 C  
HETATM    8  C   UNL     1      -9.421   7.401  69.942  1.00  0.00    -0.153 C  
ENDBRANCH   3   4
ENDBRANCH   1   3
BRANCH   2   9
HETATM    9  C   UNL     1     -11.463  12.537  69.290  1.00  0.00    -0.293 A  
HETATM   10  C   UNL     1     -12.367  14.202  70.750  1.00  0.00    -0.439 A  
HETATM   11  C   UNL     1     -11.377  14.761  68.644  1.00  0.00    -0.285 A  
HETATM   12  N   UNL     1     -11.100  13.461  68.369  1.00  0.00    -0.259 NA 
HETATM   13  C   UNL     1     -12.001  15.169  69.819  1.00  0.00    -0.367 A  
HETATM   14  C   UNL     1     -12.098  12.865  70.483  1.00  0.00    -0.364 A  
BRANCH  11  15
HETATM   15  C   UNL     1     -10.993  15.757  67.634  1.00  0.00    -0.302 C  
HETATM   16  C   UNL     1     -11.361  15.664  66.347  1.00  0.00     0.065 C  
HETATM   17  C   UNL     1     -10.956  16.705  65.388  1.00  0.00    -0.091 C  
HETATM   18  O   UNL     1     -11.403  16.443  64.144  1.00  0.00    -0.941 OA 
HETATM   19  O   UNL     1     -10.298  17.692  65.672  1.00  0.00    -0.606 OA 
ENDBRANCH  11  15
ENDBRANCH   2   9
BRANCH   2  20
HETATM   20  C   UNL     1     -10.284  10.726  67.846  1.00  0.00    -0.203 A  
HETATM   21  C   UNL     1      -8.096  10.239  66.906  1.00  0.00    -0.119 A  
HETATM   22  C   UNL     1      -7.795   9.772  64.445  1.00  0.00    -0.137 C  
HETATM   23  C   UNL     1      -8.902  10.560  68.003  1.00  0.00    -0.131 A  
HETATM   24  C   UNL     1     -10.042  10.227  65.481  1.00  0.00    -0.351 A  
HETATM   25  C   UNL     1      -8.658  10.077  65.635  1.00  0.00    -0.166 A  
HETATM   26  C   UNL     1     -10.850  10.547  66.579  1.00  0.00    -0.128 A  
ENDBRANCH   2  20
TORSDOF 5
ENDMDL
MODEL      136
REMARK 921   NORMALIZED FREE ENERGY PREDICTED BY IDOCK:   -4.86 KCAL/MOL
REMARK 922        TOTAL FREE ENERGY PREDICTED BY IDOCK:   -7.62 KCAL/MOL
REMARK 923 INTER-LIGAND FREE ENERGY PREDICTED BY IDOCK:   -6.44 KCAL/MOL
REMARK 924 INTRA-LIGAND FREE ENERGY PREDICTED BY IDOCK:   -1.19 KCAL/MOL
REMARK 927      BINDING AFFINITY PREDICTED BY RF-SCORE:    0.00 PKD
ROOT
HETATM    1  C   UNL     1      -9.340   8.433  69.034  1.00  0.00    -0.147 C  
HETATM    2  C   UNL     1     -10.190   8.553  70.081  1.00  0.00    -0.202 C  
ENDROOT
BRANCH   1   3
HETATM    3  C   UNL     1      -8.350   7.329  68.769  1.00  0.00    -0.129 C  
BRANCH   3   4
HETATM    4  N   UNL     1      -7.610   7.521  67.514  1.00  0.00    -0.110 NA 
HETATM    5  C   UNL     1      -7.906   7.315  65.146  1.00  0.00    -0.123 C  
HETATM    6  C   UNL     1      -6.624   6.646  65.601  1.00  0.00    -0.050 C  
HETATM    7  C   UNL     1      -8.509   7.910  66.416  1.00  0.00    -0.138 C  
HETATM    8  C   UNL     1      -6.899   6.324  67.058  1.00  0.00    -0.062 C  
ENDBRANCH   3   4
ENDBRANCH   1   3
BRANCH   2   9
HETATM    9  C   UNL     1     -11.038   9.767  70.110  1.00  0.00    -0.285 A  
HETATM   10  C   UNL     1     -12.575  11.208  71.244  1.00  0.00    -0.503 A  
HETATM   11  C   UNL     1     -11.720  11.722  69.068  1.00  0.00    -0.328 A  
HETATM   12  N   UNL     1     -10.974  10.588  69.035  1.00  0.00    -0.227 NA 
HETATM   13  C   UNL     1     -12.523  12.067  70.150  1.00  0.00    -0.122 A  
HETATM   14  C   UNL     1     -11.824  10.038  71.225  1.00  0.00    -0.471 A  
BRANCH  11  15
HETATM   15  C   UNL     1     -11.657  12.600  67.892  1.00  0.00    -0.401 C  
HETATM   16  C   UNL     1     -11.536  12.131  66.641  1.00  0.00    -0.416 C  
HETATM   17  C   UNL     1     -11.495  13.064  65.504  1.00  0.00    -0.321 C  
HETATM   18  O   UNL     1     -11.360  12.419  64.329  1.00  0.00    -0.319 OA 
HETATM   19  O   UNL     1     -11.576  14.278  65.599  1.00  0.00    -0.333 OA 
ENDBRANCH  11  15
ENDBRANCH   2   9
BRANCH   2  20
HETATM   20  C   UNL     1     -10.205   7.539  71.156  1.00  0.00    -0.199 A  
HETATM   21  C   UNL     1     -11.154   5.525  72.130  1.00  0.00    -0.272 A  
HETATM   22  C   UNL     1     -10.418   4.682  74.391  1.00  0.00    -0.330 C  
HETATM   23  C   UNL     1     -11.092   6.457  71.090  1.00  0.00    -0.344 A  
HETATM   24  C   UNL     1      -9.430   6.729  73.311  1.00  0.00    -0.172 A  
HETATM   25  C   UNL     1     -10.329   5.656  73.252  1.00  0.00    -0.234 A  
HETATM   26  C   UNL     1      -9.366   7.662  72.269  1.00  0.00    -0.199 A  
ENDBRANCH   2  20
TORSDOF 5
ENDMDL
MODEL      137
REMARK 921   NORMALIZED FREE ENERGY PREDICTED BY IDOCK:   -4.85 KCAL/MOL
REMARK 922        TOTAL FREE ENERGY PREDICTED BY IDOCK:   -7.61 KCAL/MOL
REMARK 923 INTER-LIGAND FREE ENERGY PREDICTED BY IDOCK:   -8.17 KCAL/MOL
REMARK 924 INTRA-LIGAND FREE ENERGY PREDICTED BY IDOCK:    0.56 KCAL/MOL
REMARK 927      BINDING AFFINITY PREDICTED BY RF-SCORE:    0.00 PKD
ROOT
HETATM    1  C   UNL     1     -11.024   9.803  69.284  1.00  0.00    -0.222 C  
HETATM    2  C   UNL     1     -11.302  11.092  68.978  1.00  0.00    -0.343 C  
ENDROOT
BRANCH   1   3
HETATM    3  C   UNL     1     -11.274   9.087  70.585  1.00  0.00    -0.270 C  
BRANCH   3   4
HETATM    4  N   UNL     1     -11.071   7.636  70.483  1.00  0.00    -0.254 NA 
HETATM    5  C   UNL     1      -9.307   6.015  70.466  1.00  0.00    -0.177 C  
HETATM    6  C   UNL     1     -10.276   5.788  69.320  1.00  0.00    -0.292 C  
HETATM    7  C   UNL     1      -9.877   7.208  71.228  1.00  0.00    -0.177 C  
HETATM    8  C   UNL     1     -10.891   7.159  69.110  1.00  0.00    -0.162 C  
ENDBRANCH   3   4
ENDBRANCH   1   3
BRANCH   2   9
HETATM    9  C   UNL     1     -10.916  11.550  67.623  1.00  0.00    -0.242 A  
HETATM   10  C   UNL     1     -10.503  11.098  65.310  1.00  0.00    -0.326 A  
HETATM   11  C   UNL     1     -10.386  13.312  66.214  1.00  0.00    -0.290 A  
HETATM   12  N   UNL     1     -10.704  12.878  67.460  1.00  0.00    -0.225 NA 
HETATM   13  C   UNL     1     -10.283  12.459  65.120  1.00  0.00    -0.305 A  
HETATM   14  C   UNL     1     -10.822  10.633  66.581  1.00  0.00    -0.197 A  
BRANCH  11  15
HETATM   15  C   UNL     1     -10.143  14.752  66.047  1.00  0.00    -0.327 C  
HETATM   16  C   UNL     1      -8.942  15.313  66.249  1.00  0.00    -0.314 C  
HETATM   17  C   UNL     1      -8.762  16.760  66.049  1.00  0.00    -0.183 C  
HETATM   18  O   UNL     1      -7.498  17.149  66.308  1.00  0.00    -0.280 OA 
HETATM   19  O   UNL     1      -9.640  17.526  65.689  1.00  0.00    -0.510 OA 
ENDBRANCH  11  15
ENDBRANCH   2   9
BRANCH   2  20
HETATM   20  C   UNL     1     -11.907  11.990  69.985  1.00  0.00    -0.392 A  
HETATM   21  C   UNL     1     -13.209  12.295  72.014  1.00  0.00    -0.508 A  
HETATM   22  C   UNL     1     -13.868  14.592  72.823  1.00  0.00    -0.371 C  
HETATM   23  C   UNL     1     -12.584  11.455  71.087  1.00  0.00    -0.490 A  
HETATM   24  C   UNL     1     -12.474  14.220  70.762  1.00  0.00    -0.428 A  
HETATM   25  C   UNL     1     -13.166  13.684  71.855  1.00  0.00    -0.497 A  
HETATM   26  C   UNL     1     -11.846  13.379  69.834  1.00  0.00    -0.385 A  
ENDBRANCH   2  20
TORSDOF 5
ENDMDL
MODEL      138
REMARK 921   NORMALIZED FREE ENERGY PREDICTED BY IDOCK:   -4.79 KCAL/MOL
REMARK 922        TOTAL FREE ENERGY PREDICTED BY IDOCK:   -7.54 KCAL/MOL
REMARK 923 INTER-LIGAND FREE ENERGY PREDICTED BY IDOCK:   -7.45 KCAL/MOL
REMARK 924 INTRA-LIGAND FREE ENERGY PREDICTED BY IDOCK:   -0.09 KCAL/MOL
REMARK 927      BINDING AFFINITY PREDICTED BY RF-SCORE:    0.00 PKD
ROOT
HETATM    1  C   UNL     1     -11.738  11.280  68.842  1.00  0.00    -0.409 C  
HETATM    2  C   UNL     1     -11.945  11.286  70.180  1.00  0.00    -0.452 C  
ENDROOT
BRANCH   1   3
HETATM    3  C   UNL     1     -11.868  12.432  67.881  1.00  0.00    -0.308 C  
BRANCH   3   4
HETATM    4  N   UNL     1     -10.593  12.783  67.241  1.00  0.00    -0.232 NA 
HETATM    5  C   UNL     1      -8.449  11.832  66.752  1.00  0.00    -0.177 C  
HETATM    6  C   UNL     1      -8.313  13.204  67.386  1.00  0.00    -0.188 C  
HETATM    7  C   UNL     1      -9.954  11.603  66.638  1.00  0.00    -0.203 C  
HETATM    8  C   UNL     1      -9.608  13.358  68.160  1.00  0.00    -0.222 C  
ENDBRANCH   3   4
ENDBRANCH   1   3
BRANCH   2   9
HETATM    9  C   UNL     1     -11.778   9.993  70.883  1.00  0.00    -0.374 A  
HETATM   10  C   UNL     1     -12.666   8.219  72.220  1.00  0.00    -0.338 A  
HETATM   11  C   UNL     1     -10.434   8.166  71.357  1.00  0.00    -0.212 A  
HETATM   12  N   UNL     1     -10.584   9.369  70.747  1.00  0.00    -0.278 NA 
HETATM   13  C   UNL     1     -11.447   7.560  72.092  1.00  0.00    -0.334 A  
HETATM   14  C   UNL     1     -12.836   9.456  71.609  1.00  0.00    -0.461 A  
BRANCH  11  15
HETATM   15  C   UNL     1      -9.131   7.501  71.218  1.00  0.00    -0.147 C  
HETATM   16  C   UNL     1      -8.802   6.398  71.906  1.00  0.00    -0.138 C  
HETATM   17  C   UNL     1      -7.485   5.771  71.709  1.00  0.00    -0.095 C  
HETATM   18  O   UNL     1      -7.325   4.684  72.488  1.00  0.00    -0.078 OA 
HETATM   19  O   UNL     1      -6.633   6.175  70.935  1.00  0.00    -0.049 OA 
ENDBRANCH  11  15
ENDBRANCH   2   9
BRANCH   2  20
HETATM   20  C   UNL     1     -12.372  12.523  70.868  1.00  0.00    -0.349 A  
HETATM   21  C   UNL     1     -13.825  13.648  72.458  1.00  0.00    -0.620 A  
HETATM   22  C   UNL     1     -13.786  16.155  72.734  1.00  0.00    -0.184 C  
HETATM   23  C   UNL     1     -13.375  12.475  71.844  1.00  0.00    -0.467 A  
HETATM   24  C   UNL     1     -12.265  14.934  71.144  1.00  0.00    -0.380 A  
HETATM   25  C   UNL     1     -13.280  14.887  72.108  1.00  0.00    -0.455 A  
HETATM   26  C   UNL     1     -11.812  13.760  70.530  1.00  0.00    -0.296 A  
ENDBRANCH   2  20
TORSDOF 5
ENDMDL
MODEL      139
REMARK 921   NORMALIZED FREE ENERGY PREDICTED BY IDOCK:   -4.78 KCAL/MOL
REMARK 922        TOTAL FREE ENERGY PREDICTED BY IDOCK:   -7.52 KCAL/MOL
REMARK 923 INTER-LIGAND FREE ENERGY PREDICTED BY IDOCK:   -6.14 KCAL/MOL
REMARK 924 INTRA-LIGAND FREE ENERGY PREDICTED BY IDOCK:   -1.38 KCAL/MOL
REMARK 927      BINDING AFFINITY PREDICTED BY RF-SCORE:    0.00 PKD
ROOT
HETATM    1  C   UNL     1     -10.697   9.784  66.423  1.00  0.00    -0.013 C  
HETATM    2  C   UNL     1     -10.064  10.484  65.452  1.00  0.00    -0.358 C  
ENDROOT
BRANCH   1   3
HETATM    3  C   UNL     1     -10.289   8.467  67.028  1.00  0.00    -0.309 C  
BRANCH   3   4
HETATM    4  N   UNL     1      -9.614   8.623  68.324  1.00  0.00    -0.145 NA 
HETATM    5  C   UNL     1      -8.269  10.198  69.528  1.00  0.00    -0.176 C  
HETATM    6  C   UNL     1      -7.663   8.808  69.572  1.00  0.00    -0.089 C  
HETATM    7  C   UNL     1      -9.563  10.034  68.735  1.00  0.00    -0.168 C  
HETATM    8  C   UNL     1      -8.230   8.144  68.331  1.00  0.00    -0.129 C  
ENDBRANCH   3   4
ENDBRANCH   1   3
BRANCH   2   9
HETATM    9  C   UNL     1     -10.708  11.745  65.017  1.00  0.00    -0.292 A  
HETATM   10  C   UNL     1     -12.043  12.973  63.456  1.00  0.00    -0.617 A  
HETATM   11  C   UNL     1     -11.225  13.957  65.479  1.00  0.00    -0.307 A  
HETATM   12  N   UNL     1     -10.607  12.807  65.851  1.00  0.00    -0.270 NA 
HETATM   13  C   UNL     1     -11.953  14.075  64.299  1.00  0.00    -0.463 A  
HETATM   14  C   UNL     1     -11.409  11.788  63.816  1.00  0.00    -0.524 A  
BRANCH  11  15
HETATM   15  C   UNL     1     -11.099  15.109  66.382  1.00  0.00    -0.312 C  
HETATM   16  C   UNL     1      -9.995  15.345  67.107  1.00  0.00    -0.234 C  
HETATM   17  C   UNL     1      -9.926  16.526  67.981  1.00  0.00    -0.245 C  
HETATM   18  O   UNL     1      -8.753  16.597  68.639  1.00  0.00    -0.230 OA 
HETATM   19  O   UNL     1     -10.815  17.353  68.102  1.00  0.00    -0.373 OA 
ENDBRANCH  11  15
ENDBRANCH   2   9
BRANCH   2  20
HETATM   20  C   UNL     1      -8.827   9.961  64.834  1.00  0.00    -0.223 A  
HETATM   21  C   UNL     1      -6.403   9.784  64.813  1.00  0.00    -0.097 A  
HETATM   22  C   UNL     1      -5.184   8.630  62.930  1.00  0.00    -0.069 C  
HETATM   23  C   UNL     1      -7.583  10.224  65.421  1.00  0.00    -0.146 A  
HETATM   24  C   UNL     1      -7.692   8.795  63.031  1.00  0.00    -0.118 A  
HETATM   25  C   UNL     1      -6.447   9.072  63.610  1.00  0.00    -0.089 A  
HETATM   26  C   UNL     1      -8.874   9.234  63.640  1.00  0.00    -0.146 A  
ENDBRANCH   2  20
TORSDOF 5
ENDMDL
MODEL      140
REMARK 921   NORMALIZED FREE ENERGY PREDICTED BY IDOCK:   -4.78 KCAL/MOL
REMARK 922        TOTAL FREE ENERGY PREDICTED BY IDOCK:   -7.52 KCAL/MOL
REMARK 923 INTER-LIGAND FREE ENERGY PREDICTED BY IDOCK:   -6.94 KCAL/MOL
REMARK 924 INTRA-LIGAND FREE ENERGY PREDICTED BY IDOCK:   -0.58 KCAL/MOL
REMARK 927      BINDING AFFINITY PREDICTED BY RF-SCORE:    0.00 PKD
ROOT
HETATM    1  C   UNL     1      -8.827  12.542  68.367  1.00  0.00    -0.123 C  
HETATM    2  C   UNL     1      -9.900  13.222  67.898  1.00  0.00    -0.234 C  
ENDROOT
BRANCH   1   3
HETATM    3  C   UNL     1      -8.132  11.364  67.737  1.00  0.00    -0.121 C  
BRANCH   3   4
HETATM    4  N   UNL     1      -8.136  10.176  68.600  1.00  0.00    -0.104 NA 
HETATM    5  C   UNL     1      -9.421   9.173  70.356  1.00  0.00    -0.269 C  
HETATM    6  C   UNL     1      -7.946   9.211  70.706  1.00  0.00    -0.192 C  
HETATM    7  C   UNL     1      -9.506   9.777  68.957  1.00  0.00    -0.173 C  
HETATM    8  C   UNL     1      -7.420  10.360  69.865  1.00  0.00    -0.125 C  
ENDBRANCH   3   4
ENDBRANCH   1   3
BRANCH   2   9
HETATM    9  C   UNL     1     -10.405  14.329  68.743  1.00  0.00    -0.239 A  
HETATM   10  C   UNL     1     -11.475  15.107  70.736  1.00  0.00    -0.350 A  
HETATM   11  C   UNL     1     -10.597  16.612  69.094  1.00  0.00    -0.340 A  
HETATM   12  N   UNL     1     -10.171  15.590  68.308  1.00  0.00    -0.221 NA 
HETATM   13  C   UNL     1     -11.243  16.411  70.310  1.00  0.00    -0.259 A  
HETATM   14  C   UNL     1     -11.053  14.047  69.941  1.00  0.00    -0.040 A  
BRANCH  11  15
HETATM   15  C   UNL     1     -10.353  17.977  68.610  1.00  0.00    -0.328 C  
HETATM   16  C   UNL     1     -10.543  18.339  67.332  1.00  0.00    -0.425 C  
HETATM   17  C   UNL     1     -10.296  19.728  66.915  1.00  0.00    -0.476 C  
HETATM   18  O   UNL     1     -10.527  19.906  65.599  1.00  0.00    -0.477 OA 
HETATM   19  O   UNL     1      -9.929  20.622  67.660  1.00  0.00    -0.402 OA 
ENDBRANCH  11  15
ENDBRANCH   2   9
BRANCH   2  20
HETATM   20  C   UNL     1     -10.549  12.820  66.632  1.00  0.00    -0.272 A  
HETATM   21  C   UNL     1     -10.376  11.999  64.351  1.00  0.00    -0.342 A  
HETATM   22  C   UNL     1     -12.398  11.843  62.851  1.00  0.00     0.153 C  
HETATM   23  C   UNL     1      -9.778  12.327  65.572  1.00  0.00    -0.174 A  
HETATM   24  C   UNL     1     -12.528  12.632  65.236  1.00  0.00    -0.483 A  
HETATM   25  C   UNL     1     -11.754  12.155  64.171  1.00  0.00    -0.478 A  
HETATM   26  C   UNL     1     -11.931  12.959  66.460  1.00  0.00    -0.447 A  
ENDBRANCH   2  20
TORSDOF 5
ENDMDL
MODEL      141
REMARK 921   NORMALIZED FREE ENERGY PREDICTED BY IDOCK:   -4.78 KCAL/MOL
REMARK 922        TOTAL FREE ENERGY PREDICTED BY IDOCK:   -7.52 KCAL/MOL
REMARK 923 INTER-LIGAND FREE ENERGY PREDICTED BY IDOCK:   -6.16 KCAL/MOL
REMARK 924 INTRA-LIGAND FREE ENERGY PREDICTED BY IDOCK:   -1.36 KCAL/MOL
REMARK 927      BINDING AFFINITY PREDICTED BY RF-SCORE:    0.00 PKD
ROOT
HETATM    1  C   UNL     1      -8.274  10.162  67.939  1.00  0.00    -0.109 C  
HETATM    2  C   UNL     1      -9.412  10.130  68.671  1.00  0.00    -0.164 C  
ENDROOT
BRANCH   1   3
HETATM    3  C   UNL     1      -7.209   9.103  67.838  1.00  0.00    -0.080 C  
BRANCH   3   4
HETATM    4  N   UNL     1      -6.085   9.340  68.753  1.00  0.00    -0.044 NA 
HETATM    5  C   UNL     1      -5.478   9.036  71.051  1.00  0.00    -0.037 C  
HETATM    6  C   UNL     1      -5.170  10.445  70.581  1.00  0.00    -0.064 C  
HETATM    7  C   UNL     1      -6.041   8.329  69.821  1.00  0.00    -0.029 C  
HETATM    8  C   UNL     1      -6.130  10.642  69.423  1.00  0.00    -0.047 C  
ENDBRANCH   3   4
ENDBRANCH   1   3
BRANCH   2   9
HETATM    9  C   UNL     1     -10.273  11.334  68.612  1.00  0.00    -0.203 A  
HETATM   10  C   UNL     1     -12.235  12.528  69.282  1.00  0.00    -0.087 A  
HETATM   11  C   UNL     1     -10.583  13.501  67.848  1.00  0.00    -0.248 A  
HETATM   12  N   UNL     1      -9.819  12.379  67.879  1.00  0.00    -0.196 NA 
HETATM   13  C   UNL     1     -11.786  13.614  68.537  1.00  0.00    -0.406 A  
HETATM   14  C   UNL     1     -11.470  11.368  69.320  1.00  0.00    -0.370 A  
BRANCH  11  15
HETATM   15  C   UNL     1     -10.092  14.625  67.040  1.00  0.00    -0.249 C  
HETATM   16  C   UNL     1     -10.868  15.285  66.168  1.00  0.00    -0.320 C  
HETATM   17  C   UNL     1     -10.319  16.414  65.400  1.00  0.00    -0.262 C  
HETATM   18  O   UNL     1     -11.235  16.949  64.568  1.00  0.00    -1.057 OA 
HETATM   19  O   UNL     1      -9.176  16.829  65.497  1.00  0.00    -0.443 OA 
ENDBRANCH  11  15
ENDBRANCH   2   9
BRANCH   2  20
HETATM   20  C   UNL     1      -9.724   8.964  69.524  1.00  0.00    -0.173 A  
HETATM   21  C   UNL     1     -10.626   6.720  69.765  1.00  0.00    -0.263 A  
HETATM   22  C   UNL     1     -10.844   5.624  72.027  1.00  0.00    -0.300 C  
HETATM   23  C   UNL     1     -10.274   7.806  68.959  1.00  0.00    -0.213 A  
HETATM   24  C   UNL     1      -9.867   7.922  71.713  1.00  0.00    -0.223 A  
HETATM   25  C   UNL     1     -10.432   6.771  71.150  1.00  0.00    -0.239 A  
HETATM   26  C   UNL     1      -9.512   9.009  70.906  1.00  0.00    -0.331 A  
ENDBRANCH   2  20
TORSDOF 5
ENDMDL
MODEL      142
REMARK 921   NORMALIZED FREE ENERGY PREDICTED BY IDOCK:   -4.78 KCAL/MOL
REMARK 922        TOTAL FREE ENERGY PREDICTED BY IDOCK:   -7.51 KCAL/MOL
REMARK 923 INTER-LIGAND FREE ENERGY PREDICTED BY IDOCK:   -6.66 KCAL/MOL
REMARK 924 INTRA-LIGAND FREE ENERGY PREDICTED BY IDOCK:   -0.86 KCAL/MOL
REMARK 927      BINDING AFFINITY PREDICTED BY RF-SCORE:    0.00 PKD
ROOT
HETATM    1  C   UNL     1     -10.596  10.235  66.507  1.00  0.00    -0.202 C  
HETATM    2  C   UNL     1     -10.055  11.454  66.272  1.00  0.00    -0.263 C  
ENDROOT
BRANCH   1   3
HETATM    3  C   UNL     1     -10.082   9.157  67.424  1.00  0.00    -0.230 C  
BRANCH   3   4
HETATM    4  N   UNL     1     -10.024   9.588  68.828  1.00  0.00    -0.169 NA 
HETATM    5  C   UNL     1     -10.400   8.740  71.036  1.00  0.00    -0.297 C  
HETATM    6  C   UNL     1     -11.089  10.076  70.834  1.00  0.00    -0.385 C  
HETATM    7  C   UNL     1      -9.681   8.468  69.718  1.00  0.00    -0.179 C  
HETATM    8  C   UNL     1     -11.283  10.141  69.330  1.00  0.00    -0.215 C  
ENDBRANCH   3   4
ENDBRANCH   1   3
BRANCH   2   9
HETATM    9  C   UNL     1     -10.755  12.311  65.287  1.00  0.00    -0.292 A  
HETATM   10  C   UNL     1     -12.172  12.558  63.375  1.00  0.00    -0.613 A  
HETATM   11  C   UNL     1     -11.339  14.443  64.592  1.00  0.00    -0.371 A  
HETATM   12  N   UNL     1     -10.670  13.650  65.467  1.00  0.00    -0.288 NA 
HETATM   13  C   UNL     1     -12.100  13.937  63.543  1.00  0.00    -0.135 A  
HETATM   14  C   UNL     1     -11.487  11.729  64.257  1.00  0.00    -0.386 A  
BRANCH  11  15
HETATM   15  C   UNL     1     -11.231  15.896  64.785  1.00  0.00    -0.364 C  
HETATM   16  C   UNL     1     -10.550  16.444  65.802  1.00  0.00    -0.327 C  
HETATM   17  C   UNL     1     -10.467  17.907  65.930  1.00  0.00    -0.253 C  
HETATM   18  O   UNL     1      -9.755  18.278  67.013  1.00  0.00    -0.284 OA 
HETATM   19  O   UNL     1     -10.973  18.702  65.155  1.00  0.00    -0.543 OA 
ENDBRANCH  11  15
ENDBRANCH   2   9
BRANCH   2  20
HETATM   20  C   UNL     1      -8.798  11.858  66.935  1.00  0.00    -0.197 A  
HETATM   21  C   UNL     1      -6.386  11.663  67.161  1.00  0.00    -0.139 A  
HETATM   22  C   UNL     1      -5.134  12.856  68.998  1.00  0.00    -0.068 C  
HETATM   23  C   UNL     1      -7.574  11.332  66.503  1.00  0.00    -0.111 A  
HETATM   24  C   UNL     1      -7.622  13.067  68.683  1.00  0.00    -0.089 A  
HETATM   25  C   UNL     1      -6.400  12.527  68.261  1.00  0.00    -0.062 A  
HETATM   26  C   UNL     1      -8.812  12.737  68.024  1.00  0.00    -0.195 A  
ENDBRANCH   2  20
TORSDOF 5
ENDMDL
MODEL      143
REMARK 921   NORMALIZED FREE ENERGY PREDICTED BY IDOCK:   -4.76 KCAL/MOL
REMARK 922        TOTAL FREE ENERGY PREDICTED BY IDOCK:   -7.49 KCAL/MOL
REMARK 923 INTER-LIGAND FREE ENERGY PREDICTED BY IDOCK:   -6.48 KCAL/MOL
REMARK 924 INTRA-LIGAND FREE ENERGY PREDICTED BY IDOCK:   -1.01 KCAL/MOL
REMARK 927      BINDING AFFINITY PREDICTED BY RF-SCORE:    0.00 PKD
ROOT
HETATM    1  C   UNL     1      -8.487  11.127  67.867  1.00  0.00    -0.131 C  
HETATM    2  C   UNL     1      -9.598  10.632  67.273  1.00  0.00    -0.186 C  
ENDROOT
BRANCH   1   3
HETATM    3  C   UNL     1      -7.800  12.439  67.593  1.00  0.00    -0.163 C  
BRANCH   3   4
HETATM    4  N   UNL     1      -8.558  13.592  68.097  1.00  0.00    -0.170 NA 
HETATM    5  C   UNL     1      -8.990  15.889  67.572  1.00  0.00    -0.201 C  
HETATM    6  C   UNL     1      -8.611  15.719  69.031  1.00  0.00    -0.236 C  
HETATM    7  C   UNL     1      -8.982  14.474  66.999  1.00  0.00    -0.240 C  
HETATM    8  C   UNL     1      -7.806  14.433  69.031  1.00  0.00    -0.077 C  
ENDBRANCH   3   4
ENDBRANCH   1   3
BRANCH   2   9
HETATM    9  C   UNL     1     -10.043   9.289  67.714  1.00  0.00    -0.204 A  
HETATM   10  C   UNL     1     -10.589   7.011  67.228  1.00  0.00    -0.395 A  
HETATM   11  C   UNL     1     -10.600   7.872  69.462  1.00  0.00    -0.219 A  
HETATM   12  N   UNL     1     -10.228   9.109  69.043  1.00  0.00    -0.202 NA 
HETATM   13  C   UNL     1     -10.783   6.803  68.590  1.00  0.00    -0.279 A  
HETATM   14  C   UNL     1     -10.216   8.274  66.780  1.00  0.00    -0.375 A  
BRANCH  11  15
HETATM   15  C   UNL     1     -10.813   7.687  70.903  1.00  0.00    -0.250 C  
HETATM   16  C   UNL     1      -9.871   7.962  71.817  1.00  0.00    -0.223 C  
HETATM   17  C   UNL     1     -10.154   7.770  73.248  1.00  0.00    -0.310 C  
HETATM   18  O   UNL     1      -9.093   8.085  74.017  1.00  0.00    -0.217 OA 
HETATM   19  O   UNL     1     -11.217   7.377  73.699  1.00  0.00    -0.180 OA 
ENDBRANCH  11  15
ENDBRANCH   2   9
BRANCH   2  20
HETATM   20  C   UNL     1     -10.278  11.389  66.201  1.00  0.00    -0.282 A  
HETATM   21  C   UNL     1     -12.208  12.637  65.411  1.00  0.00    -0.517 A  
HETATM   22  C   UNL     1     -12.381  13.421  63.020  1.00  0.00     0.156 C  
HETATM   23  C   UNL     1     -11.531  11.969  66.436  1.00  0.00    -0.417 A  
HETATM   24  C   UNL     1     -10.383  12.175  63.905  1.00  0.00    -0.441 A  
HETATM   25  C   UNL     1     -11.643  12.740  64.136  1.00  0.00    -0.456 A  
HETATM   26  C   UNL     1      -9.703  11.507  64.931  1.00  0.00    -0.264 A  
ENDBRANCH   2  20
TORSDOF 5
ENDMDL
MODEL      144
REMARK 921   NORMALIZED FREE ENERGY PREDICTED BY IDOCK:   -4.74 KCAL/MOL
REMARK 922        TOTAL FREE ENERGY PREDICTED BY IDOCK:   -7.47 KCAL/MOL
REMARK 923 INTER-LIGAND FREE ENERGY PREDICTED BY IDOCK:   -6.32 KCAL/MOL
REMARK 924 INTRA-LIGAND FREE ENERGY PREDICTED BY IDOCK:   -1.15 KCAL/MOL
REMARK 927      BINDING AFFINITY PREDICTED BY RF-SCORE:    0.00 PKD
ROOT
HETATM    1  C   UNL     1     -10.891   9.914  67.478  1.00  0.00    -0.307 C  
HETATM    2  C   UNL     1     -10.024   9.006  66.971  1.00  0.00    -0.295 C  
ENDROOT
BRANCH   1   3
HETATM    3  C   UNL     1     -10.911  11.401  67.247  1.00  0.00    -0.282 C  
BRANCH   3   4
HETATM    4  N   UNL     1     -11.825  12.105  68.158  1.00  0.00    -0.436 NA 
HETATM    5  C   UNL     1     -11.976  14.139  69.414  1.00  0.00    -0.382 C  
HETATM    6  C   UNL     1     -12.323  12.935  70.269  1.00  0.00    -0.294 C  
HETATM    7  C   UNL     1     -11.691  13.564  68.029  1.00  0.00    -0.359 C  
HETATM    8  C   UNL     1     -11.604  11.795  69.572  1.00  0.00    -0.332 C  
ENDBRANCH   3   4
ENDBRANCH   1   3
BRANCH   2   9
HETATM    9  C   UNL     1     -10.214   7.599  67.394  1.00  0.00    -0.251 A  
HETATM   10  C   UNL     1     -10.193   5.256  66.908  1.00  0.00    -0.279 A  
HETATM   11  C   UNL     1     -10.648   6.096  69.104  1.00  0.00    -0.282 A  
HETATM   12  N   UNL     1     -10.508   7.383  68.698  1.00  0.00    -0.198 NA 
HETATM   13  C   UNL     1     -10.493   5.012  68.245  1.00  0.00    -0.015 A  
HETATM   14  C   UNL     1     -10.053   6.569  66.472  1.00  0.00    -0.144 A  
BRANCH  11  15
HETATM   15  C   UNL     1     -10.981   5.869  70.517  1.00  0.00    -0.362 C  
HETATM   16  C   UNL     1     -10.606   6.708  71.494  1.00  0.00    -0.251 C  
HETATM   17  C   UNL     1     -10.985   6.432  72.888  1.00  0.00    -0.250 C  
HETATM   18  O   UNL     1     -10.515   7.371  73.732  1.00  0.00    -0.346 OA 
HETATM   19  O   UNL     1     -11.650   5.475  73.250  1.00  0.00    -0.180 OA 
ENDBRANCH  11  15
ENDBRANCH   2   9
BRANCH   2  20
HETATM   20  C   UNL     1      -8.917   9.435  66.089  1.00  0.00    -0.197 A  
HETATM   21  C   UNL     1      -8.103  10.028  63.878  1.00  0.00    -0.152 A  
HETATM   22  C   UNL     1      -5.658  10.478  63.451  1.00  0.00    -0.147 C  
HETATM   23  C   UNL     1      -9.154   9.678  64.731  1.00  0.00    -0.283 A  
HETATM   24  C   UNL     1      -6.563   9.916  65.730  1.00  0.00    -0.094 A  
HETATM   25  C   UNL     1      -6.798  10.142  64.368  1.00  0.00    -0.106 A  
HETATM   26  C   UNL     1      -7.616   9.567  66.586  1.00  0.00    -0.097 A  
ENDBRANCH   2  20
TORSDOF 5
ENDMDL
MODEL      145
REMARK 921   NORMALIZED FREE ENERGY PREDICTED BY IDOCK:   -4.72 KCAL/MOL
REMARK 922        TOTAL FREE ENERGY PREDICTED BY IDOCK:   -7.44 KCAL/MOL
REMARK 923 INTER-LIGAND FREE ENERGY PREDICTED BY IDOCK:   -6.51 KCAL/MOL
REMARK 924 INTRA-LIGAND FREE ENERGY PREDICTED BY IDOCK:   -0.93 KCAL/MOL
REMARK 927      BINDING AFFINITY PREDICTED BY RF-SCORE:    0.00 PKD
ROOT
HETATM    1  C   UNL     1      -8.352   8.928  70.024  1.00  0.00    -0.133 C  
HETATM    2  C   UNL     1      -9.665   8.861  70.348  1.00  0.00    -0.226 C  
ENDROOT
BRANCH   1   3
HETATM    3  C   UNL     1      -7.263   7.948  70.372  1.00  0.00    -0.053 C  
BRANCH   3   4
HETATM    4  N   UNL     1      -6.977   7.905  71.812  1.00  0.00    -0.063 NA 
HETATM    5  C   UNL     1      -5.149   8.161  73.339  1.00  0.00    -0.041 C  
HETATM    6  C   UNL     1      -5.941   6.900  73.633  1.00  0.00    -0.058 C  
HETATM    7  C   UNL     1      -5.876   8.814  72.166  1.00  0.00    -0.067 C  
HETATM    8  C   UNL     1      -6.587   6.579  72.298  1.00  0.00    -0.059 C  
ENDBRANCH   3   4
ENDBRANCH   1   3
BRANCH   2   9
HETATM    9  C   UNL     1     -10.516   9.989  69.903  1.00  0.00    -0.274 A  
HETATM   10  C   UNL     1     -12.175  11.652  70.355  1.00  0.00    -0.434 A  
HETATM   11  C   UNL     1     -11.084  11.490  68.230  1.00  0.00    -0.239 A  
HETATM   12  N   UNL     1     -10.335  10.433  68.636  1.00  0.00    -0.174 NA 
HETATM   13  C   UNL     1     -12.004  12.125  69.058  1.00  0.00    -0.302 A  
HETATM   14  C   UNL     1     -11.423  10.565  70.786  1.00  0.00    -0.376 A  
BRANCH  11  15
HETATM   15  C   UNL     1     -10.893  11.957  66.850  1.00  0.00    -0.305 C  
HETATM   16  C   UNL     1     -11.753  12.786  66.240  1.00  0.00    -0.460 C  
HETATM   17  C   UNL     1     -11.496  13.229  64.860  1.00  0.00    -0.318 C  
HETATM   18  O   UNL     1     -12.466  14.046  64.406  1.00  0.00    -0.623 OA 
HETATM   19  O   UNL     1     -10.523  12.907  64.198  1.00  0.00    -0.403 OA 
ENDBRANCH  11  15
ENDBRANCH   2   9
BRANCH   2  20
HETATM   20  C   UNL     1     -10.182   7.737  71.156  1.00  0.00    -0.214 A  
HETATM   21  C   UNL     1     -10.586   6.721  73.326  1.00  0.00    -0.335 A  
HETATM   22  C   UNL     1     -11.488   4.374  73.535  1.00  0.00    -0.274 C  
HETATM   23  C   UNL     1     -10.153   7.803  72.554  1.00  0.00    -0.301 A  
HETATM   24  C   UNL     1     -11.103   5.495  71.316  1.00  0.00    -0.134 A  
HETATM   25  C   UNL     1     -11.058   5.555  72.714  1.00  0.00    -0.340 A  
HETATM   26  C   UNL     1     -10.671   6.578  70.541  1.00  0.00    -0.305 A  
ENDBRANCH   2  20
TORSDOF 5
ENDMDL
MODEL      146
REMARK 921   NORMALIZED FREE ENERGY PREDICTED BY IDOCK:   -4.72 KCAL/MOL
REMARK 922        TOTAL FREE ENERGY PREDICTED BY IDOCK:   -7.44 KCAL/MOL
REMARK 923 INTER-LIGAND FREE ENERGY PREDICTED BY IDOCK:   -6.41 KCAL/MOL
REMARK 924 INTRA-LIGAND FREE ENERGY PREDICTED BY IDOCK:   -1.03 KCAL/MOL
REMARK 927      BINDING AFFINITY PREDICTED BY RF-SCORE:    0.00 PKD
ROOT
HETATM    1  C   UNL     1     -10.663   5.908  70.512  1.00  0.00    -0.363 C  
HETATM    2  C   UNL     1     -10.825   7.252  70.485  1.00  0.00    -0.262 C  
ENDROOT
BRANCH   1   3
HETATM    3  C   UNL     1      -9.498   5.108  69.993  1.00  0.00    -0.160 C  
BRANCH   3   4
HETATM    4  N   UNL     1      -8.470   4.873  71.016  1.00  0.00    -0.114 NA 
HETATM    5  C   UNL     1      -7.711   3.164  72.514  1.00  0.00    -0.058 C  
HETATM    6  C   UNL     1      -7.879   4.490  73.230  1.00  0.00    -0.091 C  
HETATM    7  C   UNL     1      -8.070   3.458  71.060  1.00  0.00    -0.062 C  
HETATM    8  C   UNL     1      -8.896   5.221  72.374  1.00  0.00    -0.128 C  
ENDBRANCH   3   4
ENDBRANCH   1   3
BRANCH   2   9
HETATM    9  C   UNL     1     -12.094   7.777  71.039  1.00  0.00    -0.244 A  
HETATM   10  C   UNL     1     -14.317   7.426  71.850  1.00  0.00    -0.520 A  
HETATM   11  C   UNL     1     -13.289   9.587  71.858  1.00  0.00    -0.437 A  
HETATM   12  N   UNL     1     -12.143   9.103  71.315  1.00  0.00    -0.309 NA 
HETATM   13  C   UNL     1     -14.388   8.784  72.143  1.00  0.00    -0.481 A  
HETATM   14  C   UNL     1     -13.155   6.912  71.287  1.00  0.00    -0.273 A  
BRANCH  11  15
HETATM   15  C   UNL     1     -13.340  11.028  72.141  1.00  0.00    -0.285 C  
HETATM   16  C   UNL     1     -12.808  11.948  71.322  1.00  0.00    -0.391 C  
HETATM   17  C   UNL     1     -12.907  13.377  71.656  1.00  0.00    -0.321 C  
HETATM   18  O   UNL     1     -12.309  14.152  70.730  1.00  0.00    -0.322 OA 
HETATM   19  O   UNL     1     -13.463  13.822  72.647  1.00  0.00    -0.541 OA 
ENDBRANCH  11  15
ENDBRANCH   2   9
BRANCH   2  20
HETATM   20  C   UNL     1      -9.797   8.121  69.875  1.00  0.00    -0.186 A  
HETATM   21  C   UNL     1      -7.953   9.685  70.121  1.00  0.00    -0.189 A  
HETATM   22  C   UNL     1      -6.925  10.833  68.124  1.00  0.00    -0.072 C  
HETATM   23  C   UNL     1      -8.892   8.816  70.686  1.00  0.00    -0.212 A  
HETATM   24  C   UNL     1      -8.797   9.164  67.922  1.00  0.00    -0.128 A  
HETATM   25  C   UNL     1      -7.903   9.872  68.735  1.00  0.00    -0.091 A  
HETATM   26  C   UNL     1      -9.735   8.292  68.487  1.00  0.00    -0.165 A  
ENDBRANCH   2  20
TORSDOF 5
ENDMDL
MODEL      147
REMARK 921   NORMALIZED FREE ENERGY PREDICTED BY IDOCK:   -4.70 KCAL/MOL
REMARK 922        TOTAL FREE ENERGY PREDICTED BY IDOCK:   -7.41 KCAL/MOL
REMARK 923 INTER-LIGAND FREE ENERGY PREDICTED BY IDOCK:   -6.08 KCAL/MOL
REMARK 924 INTRA-LIGAND FREE ENERGY PREDICTED BY IDOCK:   -1.33 KCAL/MOL
REMARK 927      BINDING AFFINITY PREDICTED BY RF-SCORE:    0.00 PKD
ROOT
HETATM    1  C   UNL     1      -9.059   9.053  67.026  1.00  0.00    -0.155 C  
HETATM    2  C   UNL     1      -9.237   9.651  68.228  1.00  0.00    -0.131 C  
ENDROOT
BRANCH   1   3
HETATM    3  C   UNL     1      -8.080   7.967  66.669  1.00  0.00    -0.107 C  
BRANCH   3   4
HETATM    4  N   UNL     1      -8.666   6.622  66.762  1.00  0.00    -0.117 NA 
HETATM    5  C   UNL     1     -10.515   5.480  67.769  1.00  0.00    -0.245 C  
HETATM    6  C   UNL     1      -9.212   4.743  68.014  1.00  0.00    -0.151 C  
HETATM    7  C   UNL     1     -10.128   6.685  66.916  1.00  0.00    -0.195 C  
HETATM    8  C   UNL     1      -8.168   5.837  67.893  1.00  0.00    -0.101 C  
ENDBRANCH   3   4
ENDBRANCH   1   3
BRANCH   2   9
HETATM    9  C   UNL     1     -10.256  10.724  68.292  1.00  0.00    -0.167 A  
HETATM   10  C   UNL     1     -11.662  12.190  69.555  1.00  0.00    -0.402 A  
HETATM   11  C   UNL     1     -11.551  12.281  67.166  1.00  0.00    -0.353 A  
HETATM   12  N   UNL     1     -10.646  11.272  67.116  1.00  0.00    -0.223 NA 
HETATM   13  C   UNL     1     -12.075  12.769  68.359  1.00  0.00    -0.145 A  
HETATM   14  C   UNL     1     -10.740  11.150  69.524  1.00  0.00    -0.193 A  
BRANCH  11  15
HETATM   15  C   UNL     1     -11.981  12.861  65.886  1.00  0.00    -0.504 C  
HETATM   16  C   UNL     1     -11.781  14.150  65.570  1.00  0.00    -0.344 C  
HETATM   17  C   UNL     1     -12.222  14.665  64.264  1.00  0.00    -0.408 C  
HETATM   18  O   UNL     1     -11.951  15.977  64.124  1.00  0.00    -0.671 OA 
HETATM   19  O   UNL     1     -12.764  13.995  63.400  1.00  0.00    -0.796 OA 
ENDBRANCH  11  15
ENDBRANCH   2   9
BRANCH   2  20
HETATM   20  C   UNL     1      -8.400   9.270  69.386  1.00  0.00    -0.127 A  
HETATM   21  C   UNL     1      -6.340   9.501  70.654  1.00  0.00    -0.086 A  
HETATM   22  C   UNL     1      -5.842   8.023  72.637  1.00  0.00    -0.045 C  
HETATM   23  C   UNL     1      -7.164   9.895  69.596  1.00  0.00    -0.108 A  
HETATM   24  C   UNL     1      -7.981   7.865  71.323  1.00  0.00    -0.094 A  
HETATM   25  C   UNL     1      -6.738   8.479  71.522  1.00  0.00    -0.073 A  
HETATM   26  C   UNL     1      -8.808   8.260  70.264  1.00  0.00    -0.141 A  
ENDBRANCH   2  20
TORSDOF 5
ENDMDL
MODEL      148
REMARK 921   NORMALIZED FREE ENERGY PREDICTED BY IDOCK:   -4.65 KCAL/MOL
REMARK 922        TOTAL FREE ENERGY PREDICTED BY IDOCK:   -7.35 KCAL/MOL
REMARK 923 INTER-LIGAND FREE ENERGY PREDICTED BY IDOCK:   -6.32 KCAL/MOL
REMARK 924 INTRA-LIGAND FREE ENERGY PREDICTED BY IDOCK:   -1.03 KCAL/MOL
REMARK 927      BINDING AFFINITY PREDICTED BY RF-SCORE:    0.00 PKD
ROOT
HETATM    1  C   UNL     1      -7.558  14.350  67.593  1.00  0.00    -0.195 C  
HETATM    2  C   UNL     1      -8.874  14.665  67.566  1.00  0.00    -0.191 C  
ENDROOT
BRANCH   1   3
HETATM    3  C   UNL     1      -6.382  15.291  67.593  1.00  0.00    -0.146 C  
BRANCH   3   4
HETATM    4  N   UNL     1      -6.355  16.165  68.773  1.00  0.00    -0.115 NA 
HETATM    5  C   UNL     1      -5.343  18.196  69.544  1.00  0.00    -0.195 C  
HETATM    6  C   UNL     1      -5.212  17.089  70.573  1.00  0.00    -0.236 C  
HETATM    7  C   UNL     1      -6.129  17.569  68.395  1.00  0.00    -0.173 C  
HETATM    8  C   UNL     1      -5.305  15.826  69.737  1.00  0.00    -0.119 C  
ENDBRANCH   3   4
ENDBRANCH   1   3
BRANCH   2   9
HETATM    9  C   UNL     1      -9.827  13.531  67.540  1.00  0.00    -0.227 A  
HETATM   10  C   UNL     1     -11.769  12.462  66.641  1.00  0.00    -0.438 A  
HETATM   11  C   UNL     1     -10.403  11.422  68.308  1.00  0.00    -0.194 A  
HETATM   12  N   UNL     1      -9.557  12.482  68.353  1.00  0.00    -0.206 NA 
HETATM   13  C   UNL     1     -11.509  11.373  67.467  1.00  0.00    -0.336 A  
HETATM   14  C   UNL     1     -10.918  13.561  66.678  1.00  0.00    -0.293 A  
BRANCH  11  15
HETATM   15  C   UNL     1     -10.112  10.293  69.204  1.00  0.00    -0.232 C  
HETATM   16  C   UNL     1     -10.575   9.054  68.982  1.00  0.00    -0.209 C  
HETATM   17  C   UNL     1     -10.234   7.964  69.910  1.00  0.00    -0.210 C  
HETATM   18  O   UNL     1     -10.792   6.795  69.538  1.00  0.00    -0.238 OA 
HETATM   19  O   UNL     1      -9.529   8.087  70.898  1.00  0.00    -0.158 OA 
ENDBRANCH  11  15
ENDBRANCH   2   9
BRANCH   2  20
HETATM   20  C   UNL     1      -9.308  16.077  67.507  1.00  0.00    -0.217 A  
HETATM   21  C   UNL     1      -9.512  18.162  66.275  1.00  0.00    -0.231 A  
HETATM   22  C   UNL     1     -10.365  20.265  67.376  1.00  0.00    -0.424 C  
HETATM   23  C   UNL     1      -9.159  16.810  66.323  1.00  0.00    -0.320 A  
HETATM   24  C   UNL     1     -10.186  18.067  68.589  1.00  0.00    -0.385 A  
HETATM   25  C   UNL     1     -10.021  18.804  67.409  1.00  0.00    -0.378 A  
HETATM   26  C   UNL     1      -9.834  16.713  68.637  1.00  0.00    -0.252 A  
ENDBRANCH   2  20
TORSDOF 5
ENDMDL
MODEL      149
REMARK 921   NORMALIZED FREE ENERGY PREDICTED BY IDOCK:   -4.63 KCAL/MOL
REMARK 922        TOTAL FREE ENERGY PREDICTED BY IDOCK:   -7.32 KCAL/MOL
REMARK 923 INTER-LIGAND FREE ENERGY PREDICTED BY IDOCK:   -6.23 KCAL/MOL
REMARK 924 INTRA-LIGAND FREE ENERGY PREDICTED BY IDOCK:   -1.09 KCAL/MOL
REMARK 927      BINDING AFFINITY PREDICTED BY RF-SCORE:    0.00 PKD
ROOT
HETATM    1  C   UNL     1      -7.658  12.310  68.575  1.00  0.00    -0.118 C  
HETATM    2  C   UNL     1      -8.676  11.436  68.393  1.00  0.00    -0.157 C  
ENDROOT
BRANCH   1   3
HETATM    3  C   UNL     1      -7.241  13.444  67.676  1.00  0.00    -0.161 C  
BRANCH   3   4
HETATM    4  N   UNL     1      -7.238  14.742  68.364  1.00  0.00    -0.108 NA 
HETATM    5  C   UNL     1      -5.743  16.522  68.940  1.00  0.00    -0.132 C  
HETATM    6  C   UNL     1      -6.564  16.082  70.137  1.00  0.00     0.141 C  
HETATM    7  C   UNL     1      -6.235  15.651  67.788  1.00  0.00    -0.158 C  
HETATM    8  C   UNL     1      -6.938  14.652  69.794  1.00  0.00    -0.130 C  
ENDBRANCH   3   4
ENDBRANCH   1   3
BRANCH   2   9
HETATM    9  C   UNL     1      -8.843  10.388  69.426  1.00  0.00    -0.123 A  
HETATM   10  C   UNL     1      -7.936   8.649  70.796  1.00  0.00    -0.127 A  
HETATM   11  C   UNL     1     -10.218   9.349  70.976  1.00  0.00    -0.299 A  
HETATM   12  N   UNL     1     -10.065  10.282  70.002  1.00  0.00    -0.188 NA 
HETATM   13  C   UNL     1      -9.183   8.524  71.402  1.00  0.00    -0.272 A  
HETATM   14  C   UNL     1      -7.762   9.593  69.790  1.00  0.00    -0.133 A  
BRANCH  11  15
HETATM   15  C   UNL     1     -11.550   9.229  71.586  1.00  0.00    -0.463 C  
HETATM   16  C   UNL     1     -12.363   8.188  71.353  1.00  0.00    -0.323 C  
HETATM   17  C   UNL     1     -13.679   8.120  72.008  1.00  0.00    -0.295 C  
HETATM   18  O   UNL     1     -14.362   7.015  71.650  1.00  0.00    -0.381 OA 
HETATM   19  O   UNL     1     -14.111   8.955  72.787  1.00  0.00    -0.500 OA 
ENDBRANCH  11  15
ENDBRANCH   2   9
BRANCH   2  20
HETATM   20  C   UNL     1      -9.524  11.513  67.185  1.00  0.00    -0.186 A  
HETATM   21  C   UNL     1      -9.986  10.838  64.896  1.00  0.00    -0.374 A  
HETATM   22  C   UNL     1     -11.860  11.882  63.568  1.00  0.00    -0.560 C  
HETATM   23  C   UNL     1      -9.225  10.729  66.064  1.00  0.00    -0.210 A  
HETATM   24  C   UNL     1     -11.372  12.502  65.957  1.00  0.00    -0.386 A  
HETATM   25  C   UNL     1     -11.062  11.730  64.830  1.00  0.00    -0.345 A  
HETATM   26  C   UNL     1     -10.611  12.393  67.127  1.00  0.00    -0.247 A  
ENDBRANCH   2  20
TORSDOF 5
ENDMDL
MODEL      150
REMARK 921   NORMALIZED FREE ENERGY PREDICTED BY IDOCK:   -4.57 KCAL/MOL
REMARK 922        TOTAL FREE ENERGY PREDICTED BY IDOCK:   -7.25 KCAL/MOL
REMARK 923 INTER-LIGAND FREE ENERGY PREDICTED BY IDOCK:   -6.19 KCAL/MOL
REMARK 924 INTRA-LIGAND FREE ENERGY PREDICTED BY IDOCK:   -1.06 KCAL/MOL
REMARK 927      BINDING AFFINITY PREDICTED BY RF-SCORE:    0.00 PKD
ROOT
HETATM    1  C   UNL     1      -9.698   8.573  67.766  1.00  0.00    -0.199 C  
HETATM    2  C   UNL     1      -9.344   9.859  67.531  1.00  0.00    -0.159 C  
ENDROOT
BRANCH   1   3
HETATM    3  C   UNL     1     -10.757   7.764  67.065  1.00  0.00    -0.246 C  
BRANCH   3   4
HETATM    4  N   UNL     1     -10.763   6.355  67.482  1.00  0.00    -0.278 NA 
HETATM    5  C   UNL     1     -10.170   4.981  69.353  1.00  0.00    -0.268 C  
HETATM    6  C   UNL     1      -9.617   4.418  68.058  1.00  0.00    -0.204 C  
HETATM    7  C   UNL     1     -10.946   6.228  68.936  1.00  0.00    -0.368 C  
HETATM    8  C   UNL     1      -9.527   5.638  67.160  1.00  0.00    -0.117 C  
ENDBRANCH   3   4
ENDBRANCH   1   3
BRANCH   2   9
HETATM    9  C   UNL     1      -8.284  10.424  68.399  1.00  0.00    -0.114 A  
HETATM   10  C   UNL     1      -6.537  10.139  70.008  1.00  0.00    -0.117 A  
HETATM   11  C   UNL     1      -7.057  12.275  69.062  1.00  0.00    -0.051 A  
HETATM   12  N   UNL     1      -8.051  11.754  68.298  1.00  0.00    -0.147 NA 
HETATM   13  C   UNL     1      -6.279  11.503  69.919  1.00  0.00    -0.147 A  
HETATM   14  C   UNL     1      -7.556   9.588  69.239  1.00  0.00    -0.084 A  
BRANCH  11  15
HETATM   15  C   UNL     1      -6.819  13.721  68.958  1.00  0.00    -0.111 C  
HETATM   16  C   UNL     1      -6.891  14.387  67.796  1.00  0.00    -0.194 C  
HETATM   17  C   UNL     1      -6.657  15.839  67.763  1.00  0.00    -0.159 C  
HETATM   18  O   UNL     1      -6.759  16.336  66.515  1.00  0.00    -0.226 OA 
HETATM   19  O   UNL     1      -6.405  16.524  68.741  1.00  0.00    -0.134 OA 
ENDBRANCH  11  15
ENDBRANCH   2   9
BRANCH   2  20
HETATM   20  C   UNL     1     -10.038  10.652  66.495  1.00  0.00    -0.275 A  
HETATM   21  C   UNL     1     -11.760  12.251  65.876  1.00  0.00    -0.451 A  
HETATM   22  C   UNL     1     -12.227  12.816  63.462  1.00  0.00    -0.613 C  
HETATM   23  C   UNL     1     -11.059  11.541  66.854  1.00  0.00    -0.366 A  
HETATM   24  C   UNL     1     -10.420  11.211  64.162  1.00  0.00    -0.442 A  
HETATM   25  C   UNL     1     -11.452  12.087  64.521  1.00  0.00    -0.385 A  
HETATM   26  C   UNL     1      -9.716  10.500  65.141  1.00  0.00    -0.341 A  
ENDBRANCH   2  20
TORSDOF 5
ENDMDL
MODEL      151
REMARK 921   NORMALIZED FREE ENERGY PREDICTED BY IDOCK:   -4.55 KCAL/MOL
REMARK 922        TOTAL FREE ENERGY PREDICTED BY IDOCK:   -7.22 KCAL/MOL
REMARK 923 INTER-LIGAND FREE ENERGY PREDICTED BY IDOCK:   -6.00 KCAL/MOL
REMARK 924 INTRA-LIGAND FREE ENERGY PREDICTED BY IDOCK:   -1.22 KCAL/MOL
REMARK 927      BINDING AFFINITY PREDICTED BY RF-SCORE:    0.00 PKD
ROOT
HETATM    1  C   UNL     1     -11.394   6.493  70.013  1.00  0.00    -0.472 C  
HETATM    2  C   UNL     1     -10.223   5.833  69.845  1.00  0.00    -0.302 C  
ENDROOT
BRANCH   1   3
HETATM    3  C   UNL     1     -12.189   6.657  71.280  1.00  0.00    -0.314 C  
BRANCH   3   4
HETATM    4  N   UNL     1     -12.150   8.031  71.800  1.00  0.00    -0.291 NA 
HETATM    5  C   UNL     1     -13.489  10.016  71.872  1.00  0.00    -0.449 C  
HETATM    6  C   UNL     1     -12.070  10.323  71.435  1.00  0.00    -0.457 C  
HETATM    7  C   UNL     1     -13.498   8.513  72.139  1.00  0.00    -0.358 C  
HETATM    8  C   UNL     1     -11.591   9.004  70.860  1.00  0.00    -0.290 C  
ENDBRANCH   3   4
ENDBRANCH   1   3
BRANCH   2   9
HETATM    9  C   UNL     1      -9.672   5.799  68.471  1.00  0.00    -0.131 A  
HETATM   10  C   UNL     1      -8.779   4.584  66.613  1.00  0.00    -0.111 A  
HETATM   11  C   UNL     1      -9.172   6.944  66.518  1.00  0.00    -0.163 A  
HETATM   12  N   UNL     1      -9.640   6.971  67.792  1.00  0.00    -0.123 NA 
HETATM   13  C   UNL     1      -8.740   5.777  65.897  1.00  0.00    -0.149 A  
HETATM   14  C   UNL     1      -9.249   4.593  67.922  1.00  0.00    -0.154 A  
BRANCH  11  15
HETATM   15  C   UNL     1      -9.127   8.221  65.793  1.00  0.00    -0.169 C  
HETATM   16  C   UNL     1      -9.928   9.254  66.093  1.00  0.00    -0.348 C  
HETATM   17  C   UNL     1      -9.822  10.512  65.337  1.00  0.00    -0.274 C  
HETATM   18  O   UNL     1     -10.708  11.432  65.767  1.00  0.00    -0.267 OA 
HETATM   19  O   UNL     1      -9.030  10.713  64.431  1.00  0.00    -0.192 OA 
ENDBRANCH  11  15
ENDBRANCH   2   9
BRANCH   2  20
HETATM   20  C   UNL     1      -9.582   5.141  70.983  1.00  0.00    -0.229 A  
HETATM   21  C   UNL     1      -9.439   3.218  72.462  1.00  0.00    -0.174 A  
HETATM   22  C   UNL     1      -7.873   3.190  74.439  1.00  0.00    -0.061 C  
HETATM   23  C   UNL     1      -9.999   3.856  71.351  1.00  0.00    -0.198 A  
HETATM   24  C   UNL     1      -8.021   5.130  72.845  1.00  0.00    -0.102 A  
HETATM   25  C   UNL     1      -8.451   3.852  73.222  1.00  0.00    -0.088 A  
HETATM   26  C   UNL     1      -8.580   5.770  71.732  1.00  0.00    -0.131 A  
ENDBRANCH   2  20
TORSDOF 5
ENDMDL
MODEL      152
REMARK 921   NORMALIZED FREE ENERGY PREDICTED BY IDOCK:   -4.55 KCAL/MOL
REMARK 922        TOTAL FREE ENERGY PREDICTED BY IDOCK:   -7.22 KCAL/MOL
REMARK 923 INTER-LIGAND FREE ENERGY PREDICTED BY IDOCK:   -6.00 KCAL/MOL
REMARK 924 INTRA-LIGAND FREE ENERGY PREDICTED BY IDOCK:   -1.21 KCAL/MOL
REMARK 927      BINDING AFFINITY PREDICTED BY RF-SCORE:    0.00 PKD
ROOT
HETATM    1  C   UNL     1      -8.490   9.481  69.685  1.00  0.00    -0.174 C  
HETATM    2  C   UNL     1      -8.223   9.786  68.394  1.00  0.00    -0.105 C  
ENDROOT
BRANCH   1   3
HETATM    3  C   UNL     1      -8.471   8.124  70.337  1.00  0.00    -0.129 C  
BRANCH   3   4
HETATM    4  N   UNL     1      -9.756   7.775  70.959  1.00  0.00    -0.163 NA 
HETATM    5  C   UNL     1     -11.996   8.601  71.157  1.00  0.00    -0.320 C  
HETATM    6  C   UNL     1     -11.430   8.211  72.509  1.00  0.00    -0.470 C  
HETATM    7  C   UNL     1     -10.889   8.268  70.160  1.00  0.00    -0.237 C  
HETATM    8  C   UNL     1      -9.931   8.326  72.304  1.00  0.00    -0.296 C  
ENDBRANCH   3   4
ENDBRANCH   1   3
BRANCH   2   9
HETATM    9  C   UNL     1      -8.350  11.211  68.009  1.00  0.00    -0.134 A  
HETATM   10  C   UNL     1      -7.411  13.400  67.782  1.00  0.00    -0.158 A  
HETATM   11  C   UNL     1      -9.636  12.890  67.060  1.00  0.00    -0.231 A  
HETATM   12  N   UNL     1      -9.522  11.595  67.450  1.00  0.00    -0.166 NA 
HETATM   13  C   UNL     1      -8.606  13.815  67.204  1.00  0.00    -0.210 A  
HETATM   14  C   UNL     1      -7.278  12.079  68.195  1.00  0.00    -0.090 A  
BRANCH  11  15
HETATM   15  C   UNL     1     -10.915  13.303  66.468  1.00  0.00    -0.299 C  
HETATM   16  C   UNL     1     -11.116  13.361  65.143  1.00  0.00    -0.315 C  
HETATM   17  C   UNL     1     -12.427  13.768  64.614  1.00  0.00    -0.315 C  
HETATM   18  O   UNL     1     -12.444  13.780  63.266  1.00  0.00    -0.819 OA 
HETATM   19  O   UNL     1     -13.393  14.058  65.300  1.00  0.00    -0.741 OA 
ENDBRANCH  11  15
ENDBRANCH   2   9
BRANCH   2  20
HETATM   20  C   UNL     1      -7.881   8.722  67.426  1.00  0.00    -0.098 A  
HETATM   21  C   UNL     1      -6.206   7.425  66.235  1.00  0.00    -0.041 A  
HETATM   22  C   UNL     1      -6.850   5.770  64.443  1.00  0.00    -0.050 C  
HETATM   23  C   UNL     1      -6.541   8.389  67.191  1.00  0.00    -0.058 A  
HETATM   24  C   UNL     1      -8.545   7.098  65.746  1.00  0.00    -0.143 A  
HETATM   25  C   UNL     1      -7.204   6.777  65.499  1.00  0.00    -0.077 A  
HETATM   26  C   UNL     1      -8.881   8.062  66.704  1.00  0.00    -0.166 A  
ENDBRANCH   2  20
TORSDOF 5
ENDMDL
MODEL      153
REMARK 921   NORMALIZED FREE ENERGY PREDICTED BY IDOCK:   -4.52 KCAL/MOL
REMARK 922        TOTAL FREE ENERGY PREDICTED BY IDOCK:   -7.18 KCAL/MOL
REMARK 923 INTER-LIGAND FREE ENERGY PREDICTED BY IDOCK:   -6.21 KCAL/MOL
REMARK 924 INTRA-LIGAND FREE ENERGY PREDICTED BY IDOCK:   -0.97 KCAL/MOL
REMARK 927      BINDING AFFINITY PREDICTED BY RF-SCORE:    0.00 PKD
ROOT
HETATM    1  C   UNL     1      -8.711   7.897  70.600  1.00  0.00    -0.135 C  
HETATM    2  C   UNL     1      -9.868   7.576  71.227  1.00  0.00    -0.188 C  
ENDROOT
BRANCH   1   3
HETATM    3  C   UNL     1      -7.452   7.077  70.508  1.00  0.00    -0.088 C  
BRANCH   3   4
HETATM    4  N   UNL     1      -6.550   7.291  71.648  1.00  0.00    -0.047 NA 
HETATM    5  C   UNL     1      -6.345   6.738  73.969  1.00  0.00    -0.068 C  
HETATM    6  C   UNL     1      -6.122   8.220  73.734  1.00  0.00    -0.117 C  
HETATM    7  C   UNL     1      -6.585   6.154  72.580  1.00  0.00    -0.064 C  
HETATM    8  C   UNL     1      -6.870   8.481  72.439  1.00  0.00    -0.067 C  
ENDBRANCH   3   4
ENDBRANCH   1   3
BRANCH   2   9
HETATM    9  C   UNL     1     -10.945   8.592  71.189  1.00  0.00    -0.253 A  
HETATM   10  C   UNL     1     -12.793   9.709  72.221  1.00  0.00    -0.407 A  
HETATM   11  C   UNL     1     -11.962  10.347  70.068  1.00  0.00    -0.247 A  
HETATM   12  N   UNL     1     -11.001   9.389  70.096  1.00  0.00    -0.237 NA 
HETATM   13  C   UNL     1     -12.866  10.541  71.107  1.00  0.00    -0.513 A  
HETATM   14  C   UNL     1     -11.820   8.717  72.264  1.00  0.00    -0.436 A  
BRANCH  11  15
HETATM   15  C   UNL     1     -12.026  11.199  68.873  1.00  0.00    -0.367 C  
HETATM   16  C   UNL     1     -11.140  11.108  67.869  1.00  0.00    -0.331 C  
HETATM   17  C   UNL     1     -11.270  11.981  66.691  1.00  0.00    -0.327 C  
HETATM   18  O   UNL     1     -10.291  11.760  65.792  1.00  0.00    -0.236 OA 
HETATM   19  O   UNL     1     -12.154  12.807  66.532  1.00  0.00    -0.468 OA 
ENDBRANCH  11  15
ENDBRANCH   2   9
BRANCH   2  20
HETATM   20  C   UNL     1      -9.998   6.296  71.954  1.00  0.00    -0.193 A  
HETATM   21  C   UNL     1     -10.179   3.873  71.923  1.00  0.00    -0.143 A  
HETATM   22  C   UNL     1     -10.596   2.556  74.034  1.00  0.00    -0.238 C  
HETATM   23  C   UNL     1      -9.998   5.085  71.251  1.00  0.00    -0.264 A  
HETATM   24  C   UNL     1     -10.344   5.059  74.016  1.00  0.00    -0.299 A  
HETATM   25  C   UNL     1     -10.361   3.850  73.310  1.00  0.00    -0.239 A  
HETATM   26  C   UNL     1     -10.161   6.274  73.343  1.00  0.00    -0.236 A  
ENDBRANCH   2  20
TORSDOF 5
ENDMDL
MODEL      154
REMARK 921   NORMALIZED FREE ENERGY PREDICTED BY IDOCK:   -4.51 KCAL/MOL
REMARK 922        TOTAL FREE ENERGY PREDICTED BY IDOCK:   -7.17 KCAL/MOL
REMARK 923 INTER-LIGAND FREE ENERGY PREDICTED BY IDOCK:   -5.82 KCAL/MOL
REMARK 924 INTRA-LIGAND FREE ENERGY PREDICTED BY IDOCK:   -1.35 KCAL/MOL
REMARK 927      BINDING AFFINITY PREDICTED BY RF-SCORE:    0.00 PKD
ROOT
HETATM    1  C   UNL     1     -11.195   6.218  70.152  1.00  0.00    -0.470 C  
HETATM    2  C   UNL     1     -10.364   6.201  69.083  1.00  0.00    -0.271 C  
ENDROOT
BRANCH   1   3
HETATM    3  C   UNL     1     -11.809   7.416  70.826  1.00  0.00    -0.258 C  
BRANCH   3   4
HETATM    4  N   UNL     1     -11.337   7.595  72.205  1.00  0.00    -0.285 NA 
HETATM    5  C   UNL     1      -9.302   7.877  73.438  1.00  0.00    -0.348 C  
HETATM    6  C   UNL     1     -10.179   6.806  74.059  1.00  0.00    -0.399 C  
HETATM    7  C   UNL     1     -10.106   8.399  72.250  1.00  0.00    -0.312 C  
HETATM    8  C   UNL     1     -11.032   6.339  72.894  1.00  0.00    -0.254 C  
ENDBRANCH   3   4
ENDBRANCH   1   3
BRANCH   2   9
HETATM    9  C   UNL     1      -9.877   4.874  68.642  1.00  0.00    -0.152 A  
HETATM   10  C   UNL     1      -9.130   2.657  69.144  1.00  0.00    -0.189 A  
HETATM   11  C   UNL     1      -9.408   3.426  66.894  1.00  0.00    -0.175 A  
HETATM   12  N   UNL     1      -9.818   4.652  67.307  1.00  0.00    -0.186 NA 
HETATM   13  C   UNL     1      -9.064   2.407  67.776  1.00  0.00    -0.222 A  
HETATM   14  C   UNL     1      -9.540   3.909  69.586  1.00  0.00    -0.259 A  
BRANCH  11  15
HETATM   15  C   UNL     1      -9.333   3.197  65.444  1.00  0.00    -0.127 C  
HETATM   16  C   UNL     1     -10.076   3.882  64.562  1.00  0.00    -0.224 C  
HETATM   17  C   UNL     1      -9.941   3.616  63.121  1.00  0.00    -0.156 C  
HETATM   18  O   UNL     1     -10.770   4.385  62.388  1.00  0.00    -0.117 OA 
HETATM   19  O   UNL     1      -9.174   2.802  62.635  1.00  0.00    -0.087 OA 
ENDBRANCH  11  15
ENDBRANCH   2   9
BRANCH   2  20
HETATM   20  C   UNL     1      -9.935   7.464  68.445  1.00  0.00    -0.177 A  
HETATM   21  C   UNL     1      -8.385   9.332  68.318  1.00  0.00    -0.120 A  
HETATM   22  C   UNL     1      -8.779  11.266  66.747  1.00  0.00    -0.166 C  
HETATM   23  C   UNL     1      -8.767   8.108  68.874  1.00  0.00    -0.137 A  
HETATM   24  C   UNL     1     -10.320   9.281  66.880  1.00  0.00    -0.316 A  
HETATM   25  C   UNL     1      -9.162   9.933  67.322  1.00  0.00    -0.156 A  
HETATM   26  C   UNL     1     -10.703   8.055  67.436  1.00  0.00    -0.260 A  
ENDBRANCH   2  20
TORSDOF 5
ENDMDL
MODEL      155
REMARK 921   NORMALIZED FREE ENERGY PREDICTED BY IDOCK:   -4.48 KCAL/MOL
REMARK 922        TOTAL FREE ENERGY PREDICTED BY IDOCK:   -7.13 KCAL/MOL
REMARK 923 INTER-LIGAND FREE ENERGY PREDICTED BY IDOCK:   -6.17 KCAL/MOL
REMARK 924 INTRA-LIGAND FREE ENERGY PREDICTED BY IDOCK:   -0.96 KCAL/MOL
REMARK 927      BINDING AFFINITY PREDICTED BY RF-SCORE:    0.00 PKD
ROOT
HETATM    1  C   UNL     1      -8.581   9.897  67.814  1.00  0.00    -0.121 C  
HETATM    2  C   UNL     1      -8.810  11.175  67.429  1.00  0.00    -0.139 C  
ENDROOT
BRANCH   1   3
HETATM    3  C   UNL     1      -9.205   8.642  67.266  1.00  0.00    -0.140 C  
BRANCH   3   4
HETATM    4  N   UNL     1     -10.236   8.087  68.153  1.00  0.00    -0.201 NA 
HETATM    5  C   UNL     1     -10.449   6.938  70.244  1.00  0.00    -0.227 C  
HETATM    6  C   UNL     1     -11.263   6.260  69.157  1.00  0.00    -0.439 C  
HETATM    7  C   UNL     1      -9.821   8.150  69.562  1.00  0.00    -0.181 C  
HETATM    8  C   UNL     1     -10.557   6.684  67.882  1.00  0.00    -0.247 C  
ENDBRANCH   3   4
ENDBRANCH   1   3
BRANCH   2   9
HETATM    9  C   UNL     1      -8.079  12.231  68.167  1.00  0.00    -0.158 A  
HETATM   10  C   UNL     1      -6.263  12.920  69.565  1.00  0.00    -0.118 A  
HETATM   11  C   UNL     1      -7.848  14.480  68.678  1.00  0.00    -0.140 A  
HETATM   12  N   UNL     1      -8.533  13.500  68.036  1.00  0.00    -0.165 NA 
HETATM   13  C   UNL     1      -6.712  14.231  69.442  1.00  0.00    -0.130 A  
HETATM   14  C   UNL     1      -6.957  11.901  68.921  1.00  0.00    -0.110 A  
BRANCH  11  15
HETATM   15  C   UNL     1      -8.354  15.853  68.544  1.00  0.00    -0.182 C  
HETATM   16  C   UNL     1      -7.622  16.931  68.861  1.00  0.00    -0.234 C  
HETATM   17  C   UNL     1      -8.183  18.280  68.688  1.00  0.00    -0.283 C  
HETATM   18  O   UNL     1      -7.314  19.238  69.065  1.00  0.00    -0.345 OA 
HETATM   19  O   UNL     1      -9.298  18.517  68.253  1.00  0.00    -0.305 OA 
ENDBRANCH  11  15
ENDBRANCH   2   9
BRANCH   2  20
HETATM   20  C   UNL     1      -9.791  11.475  66.364  1.00  0.00    -0.233 A  
HETATM   21  C   UNL     1     -12.035  12.126  65.698  1.00  0.00    -0.280 A  
HETATM   22  C   UNL     1     -12.737  12.145  63.275  1.00  0.00    -0.417 C  
HETATM   23  C   UNL     1     -11.084  11.896  66.697  1.00  0.00    -0.360 A  
HETATM   24  C   UNL     1     -10.411  11.534  64.016  1.00  0.00    -0.424 A  
HETATM   25  C   UNL     1     -11.710  11.939  64.351  1.00  0.00    -0.357 A  
HETATM   26  C   UNL     1      -9.457  11.306  65.016  1.00  0.00    -0.237 A  
ENDBRANCH   2  20
TORSDOF 5
ENDMDL
MODEL      156
REMARK 921   NORMALIZED FREE ENERGY PREDICTED BY IDOCK:   -4.46 KCAL/MOL
REMARK 922        TOTAL FREE ENERGY PREDICTED BY IDOCK:   -7.10 KCAL/MOL
REMARK 923 INTER-LIGAND FREE ENERGY PREDICTED BY IDOCK:   -5.91 KCAL/MOL
REMARK 924 INTRA-LIGAND FREE ENERGY PREDICTED BY IDOCK:   -1.19 KCAL/MOL
REMARK 927      BINDING AFFINITY PREDICTED BY RF-SCORE:    0.00 PKD
ROOT
HETATM    1  C   UNL     1      -9.633  14.547  69.002  1.00  0.00    -0.105 C  
HETATM    2  C   UNL     1      -9.342  13.577  68.103  1.00  0.00    -0.213 C  
ENDROOT
BRANCH   1   3
HETATM    3  C   UNL     1     -10.784  15.517  68.976  1.00  0.00    -0.243 C  
BRANCH   3   4
HETATM    4  N   UNL     1     -11.793  15.227  70.004  1.00  0.00    -0.310 NA 
HETATM    5  C   UNL     1     -11.961  14.780  72.352  1.00  0.00    -0.306 C  
HETATM    6  C   UNL     1     -12.747  13.767  71.540  1.00  0.00    -0.432 C  
HETATM    7  C   UNL     1     -11.381  15.743  71.319  1.00  0.00    -0.376 C  
HETATM    8  C   UNL     1     -12.058  13.799  70.188  1.00  0.00    -0.359 C  
ENDBRANCH   3   4
ENDBRANCH   1   3
BRANCH   2   9
HETATM    9  C   UNL     1      -8.119  12.782  68.358  1.00  0.00    -0.129 A  
HETATM   10  C   UNL     1      -5.738  12.548  68.309  1.00  0.00    -0.063 A  
HETATM   11  C   UNL     1      -7.163  10.859  69.230  1.00  0.00    -0.128 A  
HETATM   12  N   UNL     1      -8.281  11.579  68.959  1.00  0.00    -0.009 NA 
HETATM   13  C   UNL     1      -5.882  11.310  68.928  1.00  0.00    -0.043 A  
HETATM   14  C   UNL     1      -6.872  13.297  68.016  1.00  0.00    -0.122 A  
BRANCH  11  15
HETATM   15  C   UNL     1      -7.347   9.548  69.869  1.00  0.00    -0.103 C  
HETATM   16  C   UNL     1      -8.034   8.551  69.292  1.00  0.00    -0.111 C  
HETATM   17  C   UNL     1      -8.169   7.256  69.978  1.00  0.00    -0.132 C  
HETATM   18  O   UNL     1      -8.897   6.380  69.259  1.00  0.00    -0.127 OA 
HETATM   19  O   UNL     1      -7.681   6.993  71.065  1.00  0.00    -0.089 OA 
ENDBRANCH  11  15
ENDBRANCH   2   9
BRANCH   2  20
HETATM   20  C   UNL     1     -10.189  13.384  66.907  1.00  0.00    -0.252 A  
HETATM   21  C   UNL     1     -11.972  12.190  65.767  1.00  0.00    -0.267 A  
HETATM   22  C   UNL     1     -12.532  12.652  63.351  1.00  0.00    -0.474 C  
HETATM   23  C   UNL     1     -11.205  12.420  66.913  1.00  0.00    -0.359 A  
HETATM   24  C   UNL     1     -10.734  13.897  64.596  1.00  0.00    -0.422 A  
HETATM   25  C   UNL     1     -11.739  12.921  64.597  1.00  0.00    -0.407 A  
HETATM   26  C   UNL     1      -9.966  14.129  65.744  1.00  0.00    -0.331 A  
ENDBRANCH   2  20
TORSDOF 5
ENDMDL
MODEL      157
REMARK 921   NORMALIZED FREE ENERGY PREDICTED BY IDOCK:   -4.44 KCAL/MOL
REMARK 922        TOTAL FREE ENERGY PREDICTED BY IDOCK:   -7.08 KCAL/MOL
REMARK 923 INTER-LIGAND FREE ENERGY PREDICTED BY IDOCK:   -5.89 KCAL/MOL
REMARK 924 INTRA-LIGAND FREE ENERGY PREDICTED BY IDOCK:   -1.19 KCAL/MOL
REMARK 927      BINDING AFFINITY PREDICTED BY RF-SCORE:    0.00 PKD
ROOT
HETATM    1  C   UNL     1      -9.765   9.368  69.158  1.00  0.00    -0.165 C  
HETATM    2  C   UNL     1      -9.714   9.982  67.952  1.00  0.00    -0.168 C  
ENDROOT
BRANCH   1   3
HETATM    3  C   UNL     1     -10.172   9.961  70.481  1.00  0.00    -0.191 C  
BRANCH   3   4
HETATM    4  N   UNL     1     -11.621   9.896  70.710  1.00  0.00    -0.321 NA 
HETATM    5  C   UNL     1     -13.361  11.061  71.874  1.00  0.00    -0.423 C  
HETATM    6  C   UNL     1     -13.424   9.569  72.138  1.00  0.00    -0.535 C  
HETATM    7  C   UNL     1     -12.193  11.237  70.906  1.00  0.00    -0.356 C  
HETATM    8  C   UNL     1     -11.999   9.112  71.888  1.00  0.00    -0.373 C  
ENDBRANCH   3   4
ENDBRANCH   1   3
BRANCH   2   9
HETATM    9  C   UNL     1      -9.241   9.164  66.811  1.00  0.00    -0.155 A  
HETATM   10  C   UNL     1      -8.187   8.985  64.671  1.00  0.00    -0.160 A  
HETATM   11  C   UNL     1      -8.906   7.060  65.899  1.00  0.00    -0.103 A  
HETATM   12  N   UNL     1      -9.370   7.820  66.923  1.00  0.00    -0.159 NA 
HETATM   13  C   UNL     1      -8.307   7.602  64.766  1.00  0.00    -0.034 A  
HETATM   14  C   UNL     1      -8.663   9.781  65.707  1.00  0.00    -0.160 A  
BRANCH  11  15
HETATM   15  C   UNL     1      -9.061   5.604  66.020  1.00  0.00    -0.164 C  
HETATM   16  C   UNL     1      -8.513   4.741  65.152  1.00  0.00    -0.135 C  
HETATM   17  C   UNL     1      -8.693   3.292  65.339  1.00  0.00    -0.124 C  
HETATM   18  O   UNL     1      -8.086   2.581  64.369  1.00  0.00    -0.080 OA 
HETATM   19  O   UNL     1      -9.312   2.783  66.259  1.00  0.00    -0.111 OA 
ENDBRANCH  11  15
ENDBRANCH   2   9
BRANCH   2  20
HETATM   20  C   UNL     1     -10.062  11.413  67.823  1.00  0.00    -0.198 A  
HETATM   21  C   UNL     1      -9.465  13.752  68.099  1.00  0.00    -0.212 A  
HETATM   22  C   UNL     1     -11.130  15.596  67.661  1.00  0.00    -0.305 C  
HETATM   23  C   UNL     1      -9.126  12.398  68.162  1.00  0.00    -0.200 A  
HETATM   24  C   UNL     1     -11.676  13.162  67.338  1.00  0.00    -0.419 A  
HETATM   25  C   UNL     1     -10.745  14.146  67.693  1.00  0.00    -0.260 A  
HETATM   26  C   UNL     1     -11.336  11.805  67.400  1.00  0.00    -0.376 A  
ENDBRANCH   2  20
TORSDOF 5
ENDMDL
MODEL      158
REMARK 921   NORMALIZED FREE ENERGY PREDICTED BY IDOCK:   -4.44 KCAL/MOL
REMARK 922        TOTAL FREE ENERGY PREDICTED BY IDOCK:   -7.08 KCAL/MOL
REMARK 923 INTER-LIGAND FREE ENERGY PREDICTED BY IDOCK:   -5.82 KCAL/MOL
REMARK 924 INTRA-LIGAND FREE ENERGY PREDICTED BY IDOCK:   -1.26 KCAL/MOL
REMARK 927      BINDING AFFINITY PREDICTED BY RF-SCORE:    0.00 PKD
ROOT
HETATM    1  C   UNL     1      -9.733  12.913  67.210  1.00  0.00    -0.220 C  
HETATM    2  C   UNL     1      -8.631  12.597  67.931  1.00  0.00    -0.181 C  
ENDROOT
BRANCH   1   3
HETATM    3  C   UNL     1     -10.683  11.974  66.515  1.00  0.00    -0.258 C  
BRANCH   3   4
HETATM    4  N   UNL     1     -11.647  12.676  65.657  1.00  0.00    -0.356 NA 
HETATM    5  C   UNL     1     -11.959  13.313  63.368  1.00  0.00    -0.491 C  
HETATM    6  C   UNL     1     -12.202  14.482  64.305  1.00  0.00    -0.441 C  
HETATM    7  C   UNL     1     -11.634  12.138  64.287  1.00  0.00    -0.370 C  
HETATM    8  C   UNL     1     -11.395  14.113  65.535  1.00  0.00    -0.319 C  
ENDBRANCH   3   4
ENDBRANCH   1   3
BRANCH   2   9
HETATM    9  C   UNL     1      -7.851  13.730  68.481  1.00  0.00    -0.132 A  
HETATM   10  C   UNL     1      -5.955  14.570  69.673  1.00  0.00    -0.111 A  
HETATM   11  C   UNL     1      -7.575  16.023  68.676  1.00  0.00    -0.173 A  
HETATM   12  N   UNL     1      -8.303  14.977  68.208  1.00  0.00    -0.140 NA 
HETATM   13  C   UNL     1      -6.400  15.860  69.403  1.00  0.00    -0.160 A  
HETATM   14  C   UNL     1      -6.691  13.486  69.209  1.00  0.00    -0.080 A  
BRANCH  11  15
HETATM   15  C   UNL     1      -8.079  17.373  68.389  1.00  0.00    -0.264 C  
HETATM   16  C   UNL     1      -9.303  17.599  67.890  1.00  0.00    -0.268 C  
HETATM   17  C   UNL     1      -9.753  18.978  67.640  1.00  0.00    -0.315 C  
HETATM   18  O   UNL     1     -11.000  19.014  67.130  1.00  0.00    -0.433 OA 
HETATM   19  O   UNL     1      -9.090  19.977  67.866  1.00  0.00    -0.322 OA 
ENDBRANCH  11  15
ENDBRANCH   2   9
BRANCH   2  20
HETATM   20  C   UNL     1      -8.219  11.186  68.093  1.00  0.00    -0.131 A  
HETATM   21  C   UNL     1      -6.970   9.259  67.300  1.00  0.00    -0.081 A  
HETATM   22  C   UNL     1      -7.170   7.007  68.420  1.00  0.00    -0.088 C  
HETATM   23  C   UNL     1      -7.320  10.608  67.189  1.00  0.00    -0.098 A  
HETATM   24  C   UNL     1      -8.396   9.049  69.233  1.00  0.00    -0.122 A  
HETATM   25  C   UNL     1      -7.510   8.466  68.318  1.00  0.00    -0.096 A  
HETATM   26  C   UNL     1      -8.746  10.400  69.123  1.00  0.00    -0.173 A  
ENDBRANCH   2  20
TORSDOF 5
ENDMDL
MODEL      159
REMARK 921   NORMALIZED FREE ENERGY PREDICTED BY IDOCK:   -4.44 KCAL/MOL
REMARK 922        TOTAL FREE ENERGY PREDICTED BY IDOCK:   -7.08 KCAL/MOL
REMARK 923 INTER-LIGAND FREE ENERGY PREDICTED BY IDOCK:   -5.86 KCAL/MOL
REMARK 924 INTRA-LIGAND FREE ENERGY PREDICTED BY IDOCK:   -1.22 KCAL/MOL
REMARK 927      BINDING AFFINITY PREDICTED BY RF-SCORE:    0.00 PKD
ROOT
HETATM    1  C   UNL     1      -8.847   8.036  68.350  1.00  0.00    -0.134 C  
HETATM    2  C   UNL     1      -9.691   6.993  68.530  1.00  0.00    -0.141 C  
ENDROOT
BRANCH   1   3
HETATM    3  C   UNL     1      -7.772   8.185  67.306  1.00  0.00    -0.098 C  
BRANCH   3   4
HETATM    4  N   UNL     1      -8.287   8.708  66.033  1.00  0.00    -0.125 NA 
HETATM    5  C   UNL     1      -7.601  10.066  64.183  1.00  0.00    -0.140 C  
HETATM    6  C   UNL     1      -8.956  10.497  64.710  1.00  0.00    -0.227 C  
HETATM    7  C   UNL     1      -7.208   8.870  65.046  1.00  0.00    -0.091 C  
HETATM    8  C   UNL     1      -8.937  10.015  66.149  1.00  0.00    -0.149 C  
ENDBRANCH   3   4
ENDBRANCH   1   3
BRANCH   2   9
HETATM    9  C   UNL     1     -10.637   7.094  69.666  1.00  0.00    -0.234 A  
HETATM   10  C   UNL     1     -11.856   6.083  71.459  1.00  0.00    -0.089 A  
HETATM   11  C   UNL     1     -11.917   8.441  71.051  1.00  0.00    -0.231 A  
HETATM   12  N   UNL     1     -11.079   8.333  69.989  1.00  0.00    -0.200 NA 
HETATM   13  C   UNL     1     -12.320   7.346  71.810  1.00  0.00    -0.365 A  
HETATM   14  C   UNL     1     -11.003   5.951  70.369  1.00  0.00    -0.376 A  
BRANCH  11  15
HETATM   15  C   UNL     1     -12.404   9.786  71.388  1.00  0.00    -0.480 C  
HETATM   16  C   UNL     1     -12.054  10.879  70.693  1.00  0.00    -0.468 C  
HETATM   17  C   UNL     1     -12.590  12.195  71.073  1.00  0.00    -0.263 C  
HETATM   18  O   UNL     1     -12.124  13.176  70.275  1.00  0.00    -0.349 OA 
HETATM   19  O   UNL     1     -13.367  12.390  71.994  1.00  0.00    -0.507 OA 
ENDBRANCH  11  15
ENDBRANCH   2   9
BRANCH   2  20
HETATM   20  C   UNL     1      -9.610   5.802  67.658  1.00  0.00    -0.119 A  
HETATM   21  C   UNL     1      -8.523   3.715  67.049  1.00  0.00    -0.105 A  
HETATM   22  C   UNL     1      -9.212   2.421  64.996  1.00  0.00    -0.123 C  
HETATM   23  C   UNL     1      -8.645   4.816  67.902  1.00  0.00    -0.105 A  
HETATM   24  C   UNL     1     -10.340   4.556  65.705  1.00  0.00    -0.274 A  
HETATM   25  C   UNL     1      -9.364   3.580  65.939  1.00  0.00    -0.159 A  
HETATM   26  C   UNL     1     -10.464   5.658  66.559  1.00  0.00    -0.309 A  
ENDBRANCH   2  20
TORSDOF 5
ENDMDL
MODEL      160
REMARK 921   NORMALIZED FREE ENERGY PREDICTED BY IDOCK:   -4.43 KCAL/MOL
REMARK 922        TOTAL FREE ENERGY PREDICTED BY IDOCK:   -7.06 KCAL/MOL
REMARK 923 INTER-LIGAND FREE ENERGY PREDICTED BY IDOCK:   -5.86 KCAL/MOL
REMARK 924 INTRA-LIGAND FREE ENERGY PREDICTED BY IDOCK:   -1.20 KCAL/MOL
REMARK 927      BINDING AFFINITY PREDICTED BY RF-SCORE:    0.00 PKD
ROOT
HETATM    1  C   UNL     1     -11.160   6.321  70.800  1.00  0.00    -0.377 C  
HETATM    2  C   UNL     1     -10.254   7.307  70.597  1.00  0.00    -0.202 C  
ENDROOT
BRANCH   1   3
HETATM    3  C   UNL     1     -11.270   5.396  71.983  1.00  0.00    -0.089 C  
BRANCH   3   4
HETATM    4  N   UNL     1     -10.425   4.202  71.850  1.00  0.00    -0.033 NA 
HETATM    5  C   UNL     1      -8.178   3.476  72.254  1.00  0.00    -0.079 C  
HETATM    6  C   UNL     1      -8.639   3.096  70.860  1.00  0.00    -0.114 C  
HETATM    7  C   UNL     1      -9.383   4.166  72.888  1.00  0.00    -0.115 C  
HETATM    8  C   UNL     1      -9.728   4.110  70.566  1.00  0.00    -0.200 C  
ENDBRANCH   3   4
ENDBRANCH   1   3
BRANCH   2   9
HETATM    9  C   UNL     1     -10.355   8.047  69.318  1.00  0.00    -0.220 A  
HETATM   10  C   UNL     1     -10.280   8.096  66.927  1.00  0.00    -0.387 A  
HETATM   11  C   UNL     1     -10.834  10.032  68.222  1.00  0.00    -0.241 A  
HETATM   12  N   UNL     1     -10.703   9.354  69.390  1.00  0.00    -0.226 NA 
HETATM   13  C   UNL     1     -10.638   9.440  66.978  1.00  0.00    -0.272 A  
HETATM   14  C   UNL     1     -10.133   7.387  68.114  1.00  0.00    -0.210 A  
BRANCH  11  15
HETATM   15  C   UNL     1     -11.197  11.453  68.308  1.00  0.00    -0.326 C  
HETATM   16  C   UNL     1     -11.440  12.207  67.225  1.00  0.00    -0.413 C  
HETATM   17  C   UNL     1     -11.814  13.621  67.380  1.00  0.00    -0.393 C  
HETATM   18  O   UNL     1     -12.009  14.224  66.191  1.00  0.00    -0.391 OA 
HETATM   19  O   UNL     1     -11.942  14.192  68.451  1.00  0.00    -0.347 OA 
ENDBRANCH  11  15
ENDBRANCH   2   9
BRANCH   2  20
HETATM   20  C   UNL     1      -9.193   7.568  71.593  1.00  0.00    -0.152 A  
HETATM   21  C   UNL     1      -6.844   7.548  72.213  1.00  0.00    -0.060 A  
HETATM   22  C   UNL     1      -6.095   8.117  74.554  1.00  0.00    -0.115 C  
HETATM   23  C   UNL     1      -7.849   7.359  71.260  1.00  0.00    -0.095 A  
HETATM   24  C   UNL     1      -8.507   8.176  73.842  1.00  0.00    -0.306 A  
HETATM   25  C   UNL     1      -7.164   7.950  73.514  1.00  0.00    -0.150 A  
HETATM   26  C   UNL     1      -9.515   7.989  72.888  1.00  0.00    -0.346 A  
ENDBRANCH   2  20
TORSDOF 5
ENDMDL
MODEL      161
REMARK 921   NORMALIZED FREE ENERGY PREDICTED BY IDOCK:   -4.32 KCAL/MOL
REMARK 922        TOTAL FREE ENERGY PREDICTED BY IDOCK:   -6.92 KCAL/MOL
REMARK 923 INTER-LIGAND FREE ENERGY PREDICTED BY IDOCK:   -5.76 KCAL/MOL
REMARK 924 INTRA-LIGAND FREE ENERGY PREDICTED BY IDOCK:   -1.16 KCAL/MOL
REMARK 927      BINDING AFFINITY PREDICTED BY RF-SCORE:    0.00 PKD
ROOT
HETATM    1  C   UNL     1      -9.379   8.112  70.089  1.00  0.00    -0.159 C  
HETATM    2  C   UNL     1      -9.142   8.325  68.773  1.00  0.00    -0.144 C  
ENDROOT
BRANCH   1   3
HETATM    3  C   UNL     1      -9.951   9.076  71.094  1.00  0.00    -0.295 C  
BRANCH   3   4
HETATM    4  N   UNL     1     -11.420   9.104  71.082  1.00  0.00    -0.293 NA 
HETATM    5  C   UNL     1     -13.247  10.466  71.820  1.00  0.00    -0.529 C  
HETATM    6  C   UNL     1     -13.447   9.014  72.212  1.00  0.00    -0.529 C  
HETATM    7  C   UNL     1     -11.929  10.483  71.050  1.00  0.00    -0.364 C  
HETATM    8  C   UNL     1     -12.033   8.467  72.250  1.00  0.00    -0.389 C  
ENDBRANCH   3   4
ENDBRANCH   1   3
BRANCH   2   9
HETATM    9  C   UNL     1      -8.537   7.204  68.018  1.00  0.00    -0.128 A  
HETATM   10  C   UNL     1      -6.673   5.786  67.530  1.00  0.00    -0.059 A  
HETATM   11  C   UNL     1      -8.814   5.469  66.506  1.00  0.00    -0.121 A  
HETATM   12  N   UNL     1      -9.349   6.522  67.175  1.00  0.00    -0.123 NA 
HETATM   13  C   UNL     1      -7.490   5.069  66.661  1.00  0.00    -0.087 A  
HETATM   14  C   UNL     1      -7.201   6.872  68.219  1.00  0.00    -0.091 A  
BRANCH  11  15
HETATM   15  C   UNL     1      -9.696   4.742  65.583  1.00  0.00    -0.188 C  
HETATM   16  C   UNL     1      -9.250   4.166  64.456  1.00  0.00    -0.151 C  
HETATM   17  C   UNL     1     -10.184   3.439  63.581  1.00  0.00    -0.210 C  
HETATM   18  O   UNL     1      -9.566   2.937  62.494  1.00  0.00    -0.093 OA 
HETATM   19  O   UNL     1     -11.375   3.296  63.803  1.00  0.00    -0.198 OA 
ENDBRANCH  11  15
ENDBRANCH   2   9
BRANCH   2  20
HETATM   20  C   UNL     1      -9.428   9.641  68.163  1.00  0.00    -0.144 A  
HETATM   21  C   UNL     1     -10.928  11.103  66.930  1.00  0.00    -0.333 A  
HETATM   22  C   UNL     1     -10.207  13.401  66.182  1.00  0.00    -0.301 C  
HETATM   23  C   UNL     1     -10.669   9.882  67.561  1.00  0.00    -0.333 A  
HETATM   24  C   UNL     1      -8.716  11.869  67.508  1.00  0.00    -0.163 A  
HETATM   25  C   UNL     1      -9.952  12.103  66.892  1.00  0.00    -0.217 A  
HETATM   26  C   UNL     1      -8.456  10.648  68.141  1.00  0.00    -0.122 A  
ENDBRANCH   2  20
TORSDOF 5
ENDMDL
MODEL      162
REMARK 921   NORMALIZED FREE ENERGY PREDICTED BY IDOCK:   -4.27 KCAL/MOL
REMARK 922        TOTAL FREE ENERGY PREDICTED BY IDOCK:   -6.86 KCAL/MOL
REMARK 923 INTER-LIGAND FREE ENERGY PREDICTED BY IDOCK:   -5.50 KCAL/MOL
REMARK 924 INTRA-LIGAND FREE ENERGY PREDICTED BY IDOCK:   -1.36 KCAL/MOL
REMARK 927      BINDING AFFINITY PREDICTED BY RF-SCORE:    0.00 PKD
ROOT
HETATM    1  C   UNL     1      -8.424   5.936  71.529  1.00  0.00    -0.128 C  
HETATM    2  C   UNL     1      -9.202   6.520  70.588  1.00  0.00    -0.163 C  
ENDROOT
BRANCH   1   3
HETATM    3  C   UNL     1      -8.678   5.841  73.010  1.00  0.00    -0.123 C  
BRANCH   3   4
HETATM    4  N   UNL     1      -9.235   4.541  73.408  1.00  0.00    -0.113 NA 
HETATM    5  C   UNL     1     -10.254   2.598  72.448  1.00  0.00    -0.215 C  
HETATM    6  C   UNL     1     -11.050   3.110  73.634  1.00  0.00    -0.321 C  
HETATM    7  C   UNL     1      -9.053   3.535  72.351  1.00  0.00    -0.097 C  
HETATM    8  C   UNL     1     -10.670   4.577  73.699  1.00  0.00    -0.272 C  
ENDBRANCH   3   4
ENDBRANCH   1   3
BRANCH   2   9
HETATM    9  C   UNL     1      -8.692   6.498  69.197  1.00  0.00    -0.129 A  
HETATM   10  C   UNL     1      -7.400   7.473  67.436  1.00  0.00    -0.099 A  
HETATM   11  C   UNL     1      -8.506   5.365  67.184  1.00  0.00    -0.106 A  
HETATM   12  N   UNL     1      -9.000   5.413  68.447  1.00  0.00    -0.107 NA 
HETATM   13  C   UNL     1      -7.702   6.366  66.648  1.00  0.00    -0.099 A  
HETATM   14  C   UNL     1      -7.903   7.544  68.730  1.00  0.00    -0.121 A  
BRANCH  11  15
HETATM   15  C   UNL     1      -8.855   4.192  66.370  1.00  0.00    -0.118 C  
HETATM   16  C   UNL     1      -9.736   4.247  65.360  1.00  0.00    -0.204 C  
HETATM   17  C   UNL     1     -10.031   3.038  64.574  1.00  0.00    -0.054 C  
HETATM   18  O   UNL     1     -10.943   3.276  63.611  1.00  0.00    -0.253 OA 
HETATM   19  O   UNL     1      -9.516   1.947  64.758  1.00  0.00    -0.127 OA 
ENDBRANCH  11  15
ENDBRANCH   2   9
BRANCH   2  20
HETATM   20  C   UNL     1     -10.464   7.191  70.967  1.00  0.00    -0.230 A  
HETATM   21  C   UNL     1     -11.630   9.150  71.809  1.00  0.00    -0.457 A  
HETATM   22  C   UNL     1     -14.106   9.103  72.289  1.00  0.00    -0.439 C  
HETATM   23  C   UNL     1     -10.451   8.525  71.392  1.00  0.00    -0.305 A  
HETATM   24  C   UNL     1     -12.859   7.123  71.365  1.00  0.00    -0.431 A  
HETATM   25  C   UNL     1     -12.842   8.452  71.806  1.00  0.00    -0.371 A  
HETATM   26  C   UNL     1     -11.679   6.497  70.946  1.00  0.00    -0.416 A  
ENDBRANCH   2  20
TORSDOF 5
ENDMDL
MODEL      163
REMARK 921   NORMALIZED FREE ENERGY PREDICTED BY IDOCK:   -4.19 KCAL/MOL
REMARK 922        TOTAL FREE ENERGY PREDICTED BY IDOCK:   -6.76 KCAL/MOL
REMARK 923 INTER-LIGAND FREE ENERGY PREDICTED BY IDOCK:   -5.51 KCAL/MOL
REMARK 924 INTRA-LIGAND FREE ENERGY PREDICTED BY IDOCK:   -1.25 KCAL/MOL
REMARK 927      BINDING AFFINITY PREDICTED BY RF-SCORE:    0.00 PKD
ROOT
HETATM    1  C   UNL     1      -9.851  12.950  67.499  1.00  0.00    -0.208 C  
HETATM    2  C   UNL     1      -8.709  13.404  68.067  1.00  0.00    -0.178 C  
ENDROOT
BRANCH   1   3
HETATM    3  C   UNL     1     -10.888  13.742  66.748  1.00  0.00    -0.284 C  
BRANCH   3   4
HETATM    4  N   UNL     1     -10.861  13.485  65.302  1.00  0.00    -0.299 NA 
HETATM    5  C   UNL     1     -12.325  12.871  63.508  1.00  0.00    -0.521 C  
HETATM    6  C   UNL     1     -11.068  12.021  63.509  1.00  0.00    -0.519 C  
HETATM    7  C   UNL     1     -12.141  13.843  64.670  1.00  0.00    -0.431 C  
HETATM    8  C   UNL     1     -10.609  12.085  64.954  1.00  0.00    -0.291 C  
ENDBRANCH   3   4
ENDBRANCH   1   3
BRANCH   2   9
HETATM    9  C   UNL     1      -7.879  12.405  68.779  1.00  0.00     0.020 A  
HETATM   10  C   UNL     1      -5.860  11.798  69.910  1.00  0.00    -0.135 A  
HETATM   11  C   UNL     1      -7.704  10.286  69.702  1.00  0.00    -0.160 A  
HETATM   12  N   UNL     1      -8.442  11.196  69.017  1.00  0.00    -0.093 NA 
HETATM   13  C   UNL     1      -6.420  10.550  70.167  1.00  0.00    -0.144 A  
HETATM   14  C   UNL     1      -6.598  12.741  69.203  1.00  0.00    -0.101 A  
BRANCH  11  15
HETATM   15  C   UNL     1      -8.316   8.971  69.943  1.00  0.00    -0.134 C  
HETATM   16  C   UNL     1      -9.434   8.567  69.323  1.00  0.00    -0.158 C  
HETATM   17  C   UNL     1      -9.987   7.231  69.598  1.00  0.00    -0.176 C  
HETATM   18  O   UNL     1     -11.114   7.000  68.898  1.00  0.00    -0.153 OA 
HETATM   19  O   UNL     1      -9.492   6.419  70.363  1.00  0.00    -0.161 OA 
ENDBRANCH  11  15
ENDBRANCH   2   9
BRANCH   2  20
HETATM   20  C   UNL     1      -8.363  14.840  68.013  1.00  0.00    -0.143 A  
HETATM   21  C   UNL     1      -7.189  16.679  66.942  1.00  0.00    -0.261 A  
HETATM   22  C   UNL     1      -7.159  18.990  67.954  1.00  0.00    -0.254 C  
HETATM   23  C   UNL     1      -7.570  15.334  66.970  1.00  0.00    -0.161 A  
HETATM   24  C   UNL     1      -8.404  17.064  68.989  1.00  0.00    -0.125 A  
HETATM   25  C   UNL     1      -7.597  17.554  67.955  1.00  0.00    -0.204 A  
HETATM   26  C   UNL     1      -8.787  15.718  69.017  1.00  0.00    -0.236 A  
ENDBRANCH   2  20
TORSDOF 5
ENDMDL
MODEL      164
REMARK 921   NORMALIZED FREE ENERGY PREDICTED BY IDOCK:   -4.17 KCAL/MOL
REMARK 922        TOTAL FREE ENERGY PREDICTED BY IDOCK:   -6.73 KCAL/MOL
REMARK 923 INTER-LIGAND FREE ENERGY PREDICTED BY IDOCK:   -5.62 KCAL/MOL
REMARK 924 INTRA-LIGAND FREE ENERGY PREDICTED BY IDOCK:   -1.11 KCAL/MOL
REMARK 927      BINDING AFFINITY PREDICTED BY RF-SCORE:    0.00 PKD
ROOT
HETATM    1  C   UNL     1      -9.700  12.178  67.265  1.00  0.00    -0.193 C  
HETATM    2  C   UNL     1      -9.147  11.569  68.341  1.00  0.00    -0.185 C  
ENDROOT
BRANCH   1   3
HETATM    3  C   UNL     1     -10.953  11.790  66.526  1.00  0.00    -0.295 C  
BRANCH   3   4
HETATM    4  N   UNL     1     -11.052  12.424  65.205  1.00  0.00    -0.300 NA 
HETATM    5  C   UNL     1     -11.429  14.571  64.211  1.00  0.00    -0.194 C  
HETATM    6  C   UNL     1     -12.307  13.508  63.577  1.00  0.00    -0.343 C  
HETATM    7  C   UNL     1     -10.594  13.822  65.246  1.00  0.00    -0.353 C  
HETATM    8  C   UNL     1     -12.413  12.454  64.663  1.00  0.00    -0.420 C  
ENDBRANCH   3   4
ENDBRANCH   1   3
BRANCH   2   9
HETATM    9  C   UNL     1      -7.882  12.146  68.851  1.00  0.00     0.070 A  
HETATM   10  C   UNL     1      -5.711  11.877  69.820  1.00  0.00    -0.108 A  
HETATM   11  C   UNL     1      -6.552  14.019  69.160  1.00  0.00    -0.113 A  
HETATM   12  N   UNL     1      -7.723  13.486  68.729  1.00  0.00    -0.090 NA 
HETATM   13  C   UNL     1      -5.526  13.251  69.702  1.00  0.00    -0.094 A  
HETATM   14  C   UNL     1      -6.907  11.313  69.391  1.00  0.00    -0.121 A  
BRANCH  11  15
HETATM   15  C   UNL     1      -6.392  15.475  69.038  1.00  0.00    -0.113 C  
HETATM   16  C   UNL     1      -7.432  16.309  68.890  1.00  0.00    -0.209 C  
HETATM   17  C   UNL     1      -7.205  17.759  68.789  1.00  0.00    -0.271 C  
HETATM   18  O   UNL     1      -8.359  18.438  68.635  1.00  0.00    -0.324 OA 
HETATM   19  O   UNL     1      -6.111  18.296  68.842  1.00  0.00    -0.202 OA 
ENDBRANCH  11  15
ENDBRANCH   2   9
BRANCH   2  20
HETATM   20  C   UNL     1      -9.766  10.358  68.919  1.00  0.00    -0.203 A  
HETATM   21  C   UNL     1     -10.043   7.944  68.933  1.00  0.00    -0.203 A  
HETATM   22  C   UNL     1     -11.724   6.820  70.442  1.00  0.00    -0.418 C  
HETATM   23  C   UNL     1      -9.420   9.091  68.433  1.00  0.00    -0.154 A  
HETATM   24  C   UNL     1     -11.356   9.309  70.426  1.00  0.00    -0.283 A  
HETATM   25  C   UNL     1     -11.021   8.043  69.928  1.00  0.00    -0.172 A  
HETATM   26  C   UNL     1     -10.732  10.458  69.927  1.00  0.00    -0.331 A  
ENDBRANCH   2  20
TORSDOF 5
ENDMDL
MODEL      165
REMARK 921   NORMALIZED FREE ENERGY PREDICTED BY IDOCK:   -4.14 KCAL/MOL
REMARK 922        TOTAL FREE ENERGY PREDICTED BY IDOCK:   -6.70 KCAL/MOL
REMARK 923 INTER-LIGAND FREE ENERGY PREDICTED BY IDOCK:   -6.12 KCAL/MOL
REMARK 924 INTRA-LIGAND FREE ENERGY PREDICTED BY IDOCK:   -0.58 KCAL/MOL
REMARK 927      BINDING AFFINITY PREDICTED BY RF-SCORE:    0.00 PKD
ROOT
HETATM    1  C   UNL     1     -11.259  15.908  67.431  1.00  0.00    -0.134 C  
HETATM    2  C   UNL     1     -10.280  14.993  67.234  1.00  0.00    -0.242 C  
ENDROOT
BRANCH   1   3
HETATM    3  C   UNL     1     -11.192  17.171  68.247  1.00  0.00     0.028 C  
BRANCH   3   4
HETATM    4  N   UNL     1     -10.197  18.124  67.737  1.00  0.00    -0.364 NA 
HETATM    5  C   UNL     1      -9.862  20.482  67.477  1.00  0.00    -0.534 C  
HETATM    6  C   UNL     1      -9.554  19.736  66.192  1.00  0.00    -0.484 C  
HETATM    7  C   UNL     1     -10.243  19.394  68.478  1.00  0.00    -0.398 C  
HETATM    8  C   UNL     1     -10.374  18.466  66.324  1.00  0.00    -0.415 C  
ENDBRANCH   3   4
ENDBRANCH   1   3
BRANCH   2   9
HETATM    9  C   UNL     1     -10.629  13.815  66.406  1.00  0.00    -0.284 A  
HETATM   10  C   UNL     1     -12.168  12.638  65.003  1.00  0.00    -0.535 A  
HETATM   11  C   UNL     1      -9.967  11.810  65.451  1.00  0.00    -0.253 A  
HETATM   12  N   UNL     1      -9.670  12.875  66.239  1.00  0.00    -0.272 NA 
HETATM   13  C   UNL     1     -11.196  11.660  64.816  1.00  0.00    -0.300 A  
HETATM   14  C   UNL     1     -11.884  13.732  65.812  1.00  0.00    -0.392 A  
BRANCH  11  15
HETATM   15  C   UNL     1      -8.927  10.786  65.286  1.00  0.00    -0.211 C  
HETATM   16  C   UNL     1      -9.027   9.557  65.815  1.00  0.00    -0.219 C  
HETATM   17  C   UNL     1      -7.956   8.572  65.599  1.00  0.00    -0.107 C  
HETATM   18  O   UNL     1      -8.220   7.400  66.210  1.00  0.00    -0.114 OA 
HETATM   19  O   UNL     1      -6.947   8.776  64.944  1.00  0.00    -0.072 OA 
ENDBRANCH  11  15
ENDBRANCH   2   9
BRANCH   2  20
HETATM   20  C   UNL     1      -8.957  15.159  67.873  1.00  0.00    -0.174 A  
HETATM   21  C   UNL     1      -7.429  14.662  69.696  1.00  0.00    -0.029 A  
HETATM   22  C   UNL     1      -5.182  15.795  69.877  1.00  0.00    -0.119 C  
HETATM   23  C   UNL     1      -8.655  14.467  69.052  1.00  0.00    -0.041 A  
HETATM   24  C   UNL     1      -6.779  16.229  67.982  1.00  0.00    -0.143 A  
HETATM   25  C   UNL     1      -6.484  15.550  69.171  1.00  0.00    -0.128 A  
HETATM   26  C   UNL     1      -8.006  16.033  67.336  1.00  0.00    -0.184 A  
ENDBRANCH   2  20
TORSDOF 5
ENDMDL
MODEL      166
REMARK 921   NORMALIZED FREE ENERGY PREDICTED BY IDOCK:   -4.14 KCAL/MOL
REMARK 922        TOTAL FREE ENERGY PREDICTED BY IDOCK:   -6.69 KCAL/MOL
REMARK 923 INTER-LIGAND FREE ENERGY PREDICTED BY IDOCK:   -5.72 KCAL/MOL
REMARK 924 INTRA-LIGAND FREE ENERGY PREDICTED BY IDOCK:   -0.97 KCAL/MOL
REMARK 927      BINDING AFFINITY PREDICTED BY RF-SCORE:    0.00 PKD
ROOT
HETATM    1  C   UNL     1      -8.101   9.271  68.550  1.00  0.00    -0.106 C  
HETATM    2  C   UNL     1      -9.436   9.478  68.457  1.00  0.00    -0.146 C  
ENDROOT
BRANCH   1   3
HETATM    3  C   UNL     1      -7.374   8.326  69.470  1.00  0.00    -0.074 C  
BRANCH   3   4
HETATM    4  N   UNL     1      -7.508   8.698  70.885  1.00  0.00    -0.073 NA 
HETATM    5  C   UNL     1      -6.275   8.623  72.938  1.00  0.00    -0.072 C  
HETATM    6  C   UNL     1      -7.684   8.092  73.121  1.00  0.00    -0.204 C  
HETATM    7  C   UNL     1      -6.204   9.045  71.473  1.00  0.00    -0.075 C  
HETATM    8  C   UNL     1      -8.067   7.637  71.726  1.00  0.00    -0.103 C  
ENDBRANCH   3   4
ENDBRANCH   1   3
BRANCH   2   9
HETATM    9  C   UNL     1      -9.882  10.499  67.481  1.00  0.00    -0.168 A  
HETATM   10  C   UNL     1     -10.587  11.107  65.277  1.00  0.00    -0.303 A  
HETATM   11  C   UNL     1     -10.514  12.691  67.071  1.00  0.00    -0.232 A  
HETATM   12  N   UNL     1     -10.069  11.756  67.949  1.00  0.00    -0.182 NA 
HETATM   13  C   UNL     1     -10.788  12.405  65.737  1.00  0.00    -0.312 A  
HETATM   14  C   UNL     1     -10.125  10.137  66.160  1.00  0.00    -0.314 A  
BRANCH  11  15
HETATM   15  C   UNL     1     -10.700  14.056  67.581  1.00  0.00    -0.261 C  
HETATM   16  C   UNL     1     -10.168  15.133  66.984  1.00  0.00    -0.262 C  
HETATM   17  C   UNL     1     -10.406  16.475  67.538  1.00  0.00    -0.294 C  
HETATM   18  O   UNL     1      -9.788  17.432  66.818  1.00  0.00    -0.271 OA 
HETATM   19  O   UNL     1     -11.081  16.709  68.526  1.00  0.00    -0.349 OA 
ENDBRANCH  11  15
ENDBRANCH   2   9
BRANCH   2  20
HETATM   20  C   UNL     1     -10.372   8.749  69.340  1.00  0.00    -0.217 A  
HETATM   21  C   UNL     1     -11.797   8.703  71.308  1.00  0.00    -0.344 A  
HETATM   22  C   UNL     1     -12.938   6.581  72.057  1.00  0.00    -0.035 C  
HETATM   23  C   UNL     1     -10.956   9.399  70.434  1.00  0.00    -0.317 A  
HETATM   24  C   UNL     1     -11.498   6.700  69.997  1.00  0.00    -0.434 A  
HETATM   25  C   UNL     1     -12.069   7.346  71.101  1.00  0.00    -0.357 A  
HETATM   26  C   UNL     1     -10.658   7.397  69.121  1.00  0.00    -0.213 A  
ENDBRANCH   2  20
TORSDOF 5
ENDMDL
MODEL      167
REMARK 921   NORMALIZED FREE ENERGY PREDICTED BY IDOCK:   -4.09 KCAL/MOL
REMARK 922        TOTAL FREE ENERGY PREDICTED BY IDOCK:   -6.62 KCAL/MOL
REMARK 923 INTER-LIGAND FREE ENERGY PREDICTED BY IDOCK:   -5.24 KCAL/MOL
REMARK 924 INTRA-LIGAND FREE ENERGY PREDICTED BY IDOCK:   -1.39 KCAL/MOL
REMARK 927      BINDING AFFINITY PREDICTED BY RF-SCORE:    0.00 PKD
ROOT
HETATM    1  C   UNL     1      -9.998  13.509  67.791  1.00  0.00    -0.232 C  
HETATM    2  C   UNL     1      -9.105  12.513  68.000  1.00  0.00    -0.200 C  
ENDROOT
BRANCH   1   3
HETATM    3  C   UNL     1     -11.444  13.385  67.392  1.00  0.00    -0.333 C  
BRANCH   3   4
HETATM    4  N   UNL     1     -12.360  13.943  68.397  1.00  0.00    -0.139 NA 
HETATM    5  C   UNL     1     -12.337  15.347  70.338  1.00  0.00    -0.443 C  
HETATM    6  C   UNL     1     -13.113  14.068  70.591  1.00  0.00    -0.178 C  
HETATM    7  C   UNL     1     -11.889  15.250  68.882  1.00  0.00    -0.320 C  
HETATM    8  C   UNL     1     -12.523  13.100  69.583  1.00  0.00     0.073 C  
ENDBRANCH   3   4
ENDBRANCH   1   3
BRANCH   2   9
HETATM    9  C   UNL     1      -7.726  12.922  68.355  1.00  0.00    -0.133 A  
HETATM   10  C   UNL     1      -5.516  12.379  69.094  1.00  0.00    -0.069 A  
HETATM   11  C   UNL     1      -6.134  14.604  68.461  1.00  0.00    -0.091 A  
HETATM   12  N   UNL     1      -7.406  14.226  68.175  1.00  0.00    -0.114 NA 
HETATM   13  C   UNL     1      -5.166  13.714  68.915  1.00  0.00    -0.071 A  
HETATM   14  C   UNL     1      -6.817  11.975  68.813  1.00  0.00    -0.094 A  
BRANCH  11  15
HETATM   15  C   UNL     1      -5.798  16.022  68.278  1.00  0.00    -0.113 C  
HETATM   16  C   UNL     1      -6.313  16.995  69.045  1.00  0.00    -0.198 C  
HETATM   17  C   UNL     1      -5.923  18.396  68.819  1.00  0.00    -0.203 C  
HETATM   18  O   UNL     1      -6.544  19.234  69.672  1.00  0.00    -0.296 OA 
HETATM   19  O   UNL     1      -5.130  18.767  67.969  1.00  0.00    -0.170 OA 
ENDBRANCH  11  15
ENDBRANCH   2   9
BRANCH   2  20
HETATM   20  C   UNL     1      -9.500  11.100  67.818  1.00  0.00    -0.173 A  
HETATM   21  C   UNL     1      -9.736   9.154  66.383  1.00  0.00    -0.330 A  
HETATM   22  C   UNL     1     -10.846   7.041  67.200  1.00  0.00    -0.427 C  
HETATM   23  C   UNL     1      -9.312  10.471  66.581  1.00  0.00    -0.186 A  
HETATM   24  C   UNL     1     -10.525   9.065  68.660  1.00  0.00    -0.229 A  
HETATM   25  C   UNL     1     -10.352   8.442  67.417  1.00  0.00    -0.355 A  
HETATM   26  C   UNL     1     -10.100  10.384  68.860  1.00  0.00    -0.213 A  
ENDBRANCH   2  20
TORSDOF 5
ENDMDL
MODEL      168
REMARK 921   NORMALIZED FREE ENERGY PREDICTED BY IDOCK:   -4.02 KCAL/MOL
REMARK 922        TOTAL FREE ENERGY PREDICTED BY IDOCK:   -6.54 KCAL/MOL
REMARK 923 INTER-LIGAND FREE ENERGY PREDICTED BY IDOCK:   -5.25 KCAL/MOL
REMARK 924 INTRA-LIGAND FREE ENERGY PREDICTED BY IDOCK:   -1.28 KCAL/MOL
REMARK 927      BINDING AFFINITY PREDICTED BY RF-SCORE:    0.00 PKD
ROOT
HETATM    1  C   UNL     1      -7.569   8.232  69.348  1.00  0.00    -0.096 C  
HETATM    2  C   UNL     1      -8.822   7.736  69.482  1.00  0.00    -0.139 C  
ENDROOT
BRANCH   1   3
HETATM    3  C   UNL     1      -7.065   9.590  69.759  1.00  0.00    -0.075 C  
BRANCH   3   4
HETATM    4  N   UNL     1      -6.796  10.466  68.610  1.00  0.00    -0.057 NA 
HETATM    5  C   UNL     1      -7.946  11.899  67.072  1.00  0.00    -0.158 C  
HETATM    6  C   UNL     1      -7.011  10.949  66.348  1.00  0.00    -0.134 C  
HETATM    7  C   UNL     1      -7.753  11.582  68.553  1.00  0.00    -0.134 C  
HETATM    8  C   UNL     1      -6.879   9.787  67.315  1.00  0.00    -0.083 C  
ENDBRANCH   3   4
ENDBRANCH   1   3
BRANCH   2   9
HETATM    9  C   UNL     1      -9.053   6.370  68.957  1.00  0.00    -0.130 A  
HETATM   10  C   UNL     1      -9.534   4.054  69.315  1.00  0.00    -0.260 A  
HETATM   11  C   UNL     1      -9.320   4.983  67.119  1.00  0.00    -0.125 A  
HETATM   12  N   UNL     1      -9.072   6.224  67.611  1.00  0.00    -0.118 NA 
HETATM   13  C   UNL     1      -9.560   3.881  67.935  1.00  0.00    -0.193 A  
HETATM   14  C   UNL     1      -9.274   5.316  69.837  1.00  0.00    -0.178 A  
BRANCH  11  15
HETATM   15  C   UNL     1      -9.325   4.828  65.658  1.00  0.00    -0.166 C  
HETATM   16  C   UNL     1     -10.145   3.979  65.021  1.00  0.00    -0.203 C  
HETATM   17  C   UNL     1     -10.111   3.883  63.553  1.00  0.00    -0.174 C  
HETATM   18  O   UNL     1     -10.991   2.974  63.089  1.00  0.00    -0.215 OA 
HETATM   19  O   UNL     1      -9.382   4.543  62.831  1.00  0.00    -0.140 OA 
ENDBRANCH  11  15
ENDBRANCH   2   9
BRANCH   2  20
HETATM   20  C   UNL     1      -9.897   8.560  70.072  1.00  0.00    -0.181 A  
HETATM   21  C   UNL     1     -11.351   9.086  71.947  1.00  0.00    -0.438 A  
HETATM   22  C   UNL     1     -13.184  10.808  71.749  1.00  0.00    -0.523 C  
HETATM   23  C   UNL     1     -10.296   8.351  71.398  1.00  0.00    -0.285 A  
HETATM   24  C   UNL     1     -11.615  10.264  69.859  1.00  0.00    -0.326 A  
HETATM   25  C   UNL     1     -12.024  10.043  71.180  1.00  0.00    -0.484 A  
HETATM   26  C   UNL     1     -10.557   9.530  69.309  1.00  0.00    -0.236 A  
ENDBRANCH   2  20
TORSDOF 5
ENDMDL
MODEL      169
REMARK 921   NORMALIZED FREE ENERGY PREDICTED BY IDOCK:   -4.00 KCAL/MOL
REMARK 922        TOTAL FREE ENERGY PREDICTED BY IDOCK:   -6.51 KCAL/MOL
REMARK 923 INTER-LIGAND FREE ENERGY PREDICTED BY IDOCK:   -5.37 KCAL/MOL
REMARK 924 INTRA-LIGAND FREE ENERGY PREDICTED BY IDOCK:   -1.14 KCAL/MOL
REMARK 927      BINDING AFFINITY PREDICTED BY RF-SCORE:    0.00 PKD
ROOT
HETATM    1  C   UNL     1      -8.455   4.157  68.896  1.00  0.00    -0.099 C  
HETATM    2  C   UNL     1      -8.970   5.333  69.326  1.00  0.00    -0.126 C  
ENDROOT
BRANCH   1   3
HETATM    3  C   UNL     1      -7.768   3.872  67.587  1.00  0.00    -0.075 C  
BRANCH   3   4
HETATM    4  N   UNL     1      -8.714   3.610  66.495  1.00  0.00    -0.115 NA 
HETATM    5  C   UNL     1      -9.270   1.909  64.902  1.00  0.00    -0.114 C  
HETATM    6  C   UNL     1      -9.144   3.266  64.237  1.00  0.00    -0.122 C  
HETATM    7  C   UNL     1      -9.020   2.175  66.384  1.00  0.00    -0.100 C  
HETATM    8  C   UNL     1      -8.229   4.029  65.178  1.00  0.00    -0.101 C  
ENDBRANCH   3   4
ENDBRANCH   1   3
BRANCH   2   9
HETATM    9  C   UNL     1      -9.627   5.324  70.653  1.00  0.00    -0.176 A  
HETATM   10  C   UNL     1      -9.826   4.454  72.873  1.00  0.00    -0.186 A  
HETATM   11  C   UNL     1     -11.169   6.278  72.097  1.00  0.00    -0.282 A  
HETATM   12  N   UNL     1     -10.587   6.254  70.871  1.00  0.00    -0.230 NA 
HETATM   13  C   UNL     1     -10.813   5.404  73.119  1.00  0.00    -0.333 A  
HETATM   14  C   UNL     1      -9.224   4.409  71.621  1.00  0.00    -0.186 A  
BRANCH  11  15
HETATM   15  C   UNL     1     -12.219   7.280  72.322  1.00  0.00    -0.192 C  
HETATM   16  C   UNL     1     -12.141   8.532  71.847  1.00  0.00    -0.411 C  
HETATM   17  C   UNL     1     -13.236   9.484  72.094  1.00  0.00    -0.451 C  
HETATM   18  O   UNL     1     -12.982  10.693  71.554  1.00  0.00    -0.404 OA 
HETATM   19  O   UNL     1     -14.257   9.223  72.708  1.00  0.00    -0.502 OA 
ENDBRANCH  11  15
ENDBRANCH   2   9
BRANCH   2  20
HETATM   20  C   UNL     1      -8.917   6.534  68.466  1.00  0.00    -0.126 A  
HETATM   21  C   UNL     1      -7.800   8.582  67.786  1.00  0.00    -0.103 A  
HETATM   22  C   UNL     1      -8.847  10.164  66.122  1.00  0.00    -0.162 C  
HETATM   23  C   UNL     1      -7.831   7.414  68.552  1.00  0.00    -0.122 A  
HETATM   24  C   UNL     1      -9.933   8.004  66.820  1.00  0.00    -0.344 A  
HETATM   25  C   UNL     1      -8.854   8.891  66.919  1.00  0.00    -0.141 A  
HETATM   26  C   UNL     1      -9.964   6.832  67.586  1.00  0.00    -0.171 A  
ENDBRANCH   2  20
TORSDOF 5
ENDMDL
MODEL      170
REMARK 921   NORMALIZED FREE ENERGY PREDICTED BY IDOCK:   -3.90 KCAL/MOL
REMARK 922        TOTAL FREE ENERGY PREDICTED BY IDOCK:   -6.38 KCAL/MOL
REMARK 923 INTER-LIGAND FREE ENERGY PREDICTED BY IDOCK:   -5.84 KCAL/MOL
REMARK 924 INTRA-LIGAND FREE ENERGY PREDICTED BY IDOCK:   -0.55 KCAL/MOL
REMARK 927      BINDING AFFINITY PREDICTED BY RF-SCORE:    0.00 PKD
ROOT
HETATM    1  C   UNL     1     -11.239   7.327  70.186  1.00  0.00    -0.264 C  
HETATM    2  C   UNL     1     -10.690   8.187  69.296  1.00  0.00    -0.141 C  
ENDROOT
BRANCH   1   3
HETATM    3  C   UNL     1     -12.297   7.615  71.218  1.00  0.00    -0.309 C  
BRANCH   3   4
HETATM    4  N   UNL     1     -11.972   7.055  72.536  1.00  0.00    -0.125 NA 
HETATM    5  C   UNL     1     -10.102   6.747  74.001  1.00  0.00    -0.389 C  
HETATM    6  C   UNL     1     -10.894   5.463  73.840  1.00  0.00    -0.228 C  
HETATM    7  C   UNL     1     -10.856   7.777  73.165  1.00  0.00    -0.339 C  
HETATM    8  C   UNL     1     -11.579   5.644  72.498  1.00  0.00    -0.246 C  
ENDBRANCH   3   4
ENDBRANCH   1   3
BRANCH   2   9
HETATM    9  C   UNL     1      -9.635   7.641  68.411  1.00  0.00    -0.151 A  
HETATM   10  C   UNL     1      -7.333   7.445  67.787  1.00  0.00    -0.092 A  
HETATM   11  C   UNL     1      -9.062   6.227  66.666  1.00  0.00    -0.144 A  
HETATM   12  N   UNL     1     -10.026   6.761  67.458  1.00  0.00    -0.133 NA 
HETATM   13  C   UNL     1      -7.713   6.538  66.803  1.00  0.00    -0.099 A  
HETATM   14  C   UNL     1      -8.307   8.009  68.603  1.00  0.00    -0.127 A  
BRANCH  11  15
HETATM   15  C   UNL     1      -9.495   5.284  65.625  1.00  0.00    -0.097 C  
HETATM   16  C   UNL     1      -8.676   4.846  64.657  1.00  0.00    -0.152 C  
HETATM   17  C   UNL     1      -9.168   3.889  63.653  1.00  0.00    -0.129 C  
HETATM   18  O   UNL     1      -8.216   3.569  62.755  1.00  0.00    -0.072 OA 
HETATM   19  O   UNL     1     -10.298   3.430  63.627  1.00  0.00    -0.188 OA 
ENDBRANCH  11  15
ENDBRANCH   2   9
BRANCH   2  20
HETATM   20  C   UNL     1     -11.100   9.607  69.272  1.00  0.00    -0.149 A  
HETATM   21  C   UNL     1     -11.399  11.686  68.050  1.00  0.00    -0.366 A  
HETATM   22  C   UNL     1     -12.087  13.813  69.219  1.00  0.00    -0.374 C  
HETATM   23  C   UNL     1     -11.068  10.328  68.072  1.00  0.00    -0.336 A  
HETATM   24  C   UNL     1     -11.818  11.621  70.424  1.00  0.00    -0.385 A  
HETATM   25  C   UNL     1     -11.769  12.346  69.227  1.00  0.00    -0.386 A  
HETATM   26  C   UNL     1     -11.489  10.260  70.446  1.00  0.00    -0.415 A  
ENDBRANCH   2  20
TORSDOF 5
ENDMDL
MODEL      171
REMARK 921   NORMALIZED FREE ENERGY PREDICTED BY IDOCK:   -3.83 KCAL/MOL
REMARK 922        TOTAL FREE ENERGY PREDICTED BY IDOCK:   -6.29 KCAL/MOL
REMARK 923 INTER-LIGAND FREE ENERGY PREDICTED BY IDOCK:   -7.08 KCAL/MOL
REMARK 924 INTRA-LIGAND FREE ENERGY PREDICTED BY IDOCK:    0.79 KCAL/MOL
REMARK 927      BINDING AFFINITY PREDICTED BY RF-SCORE:    0.00 PKD
ROOT
HETATM    1  C   UNL     1     -10.207  10.249  67.873  1.00  0.00    -0.217 C  
HETATM    2  C   UNL     1     -10.712   9.801  69.047  1.00  0.00    -0.238 C  
ENDROOT
BRANCH   1   3
HETATM    3  C   UNL     1     -10.212  11.657  67.341  1.00  0.00    -0.203 C  
BRANCH   3   4
HETATM    4  N   UNL     1     -11.105  11.824  66.186  1.00  0.00    -0.310 NA 
HETATM    5  C   UNL     1     -11.020  12.313  63.843  1.00  0.00    -0.464 C  
HETATM    6  C   UNL     1     -12.052  13.172  64.548  1.00  0.00    -0.462 C  
HETATM    7  C   UNL     1     -10.445  11.417  64.936  1.00  0.00    -0.305 C  
HETATM    8  C   UNL     1     -11.556  13.203  65.982  1.00  0.00    -0.353 C  
ENDBRANCH   3   4
ENDBRANCH   1   3
BRANCH   2   9
HETATM    9  C   UNL     1     -10.599   8.347  69.306  1.00  0.00    -0.182 A  
HETATM   10  C   UNL     1     -11.161   6.411  70.593  1.00  0.00    -0.376 A  
HETATM   11  C   UNL     1      -9.805   6.279  68.625  1.00  0.00    -0.136 A  
HETATM   12  N   UNL     1      -9.883   7.618  68.417  1.00  0.00    -0.162 NA 
HETATM   13  C   UNL     1     -10.431   5.642  69.692  1.00  0.00    -0.374 A  
HETATM   14  C   UNL     1     -11.246   7.785  70.402  1.00  0.00    -0.246 A  
BRANCH  11  15
HETATM   15  C   UNL     1      -9.014   5.496  67.666  1.00  0.00    -0.108 C  
HETATM   16  C   UNL     1      -8.712   5.944  66.438  1.00  0.00    -0.131 C  
HETATM   17  C   UNL     1      -7.902   5.117  65.530  1.00  0.00    -0.092 C  
HETATM   18  O   UNL     1      -7.708   5.719  64.340  1.00  0.00    -0.086 OA 
HETATM   19  O   UNL     1      -7.450   4.018  65.809  1.00  0.00    -0.078 OA 
ENDBRANCH  11  15
ENDBRANCH   2   9
BRANCH   2  20
HETATM   20  C   UNL     1     -11.387  10.731  69.976  1.00  0.00    -0.397 A  
HETATM   21  C   UNL     1     -12.675  11.109  72.003  1.00  0.00    -0.144 A  
HETATM   22  C   UNL     1     -13.555  13.397  72.596  1.00  0.00    -0.543 C  
HETATM   23  C   UNL     1     -11.984  10.246  71.147  1.00  0.00    -0.472 A  
HETATM   24  C   UNL     1     -12.170  12.960  70.542  1.00  0.00    -0.395 A  
HETATM   25  C   UNL     1     -12.781  12.471  71.704  1.00  0.00    -0.297 A  
HETATM   26  C   UNL     1     -11.476  12.097  69.685  1.00  0.00    -0.308 A  
ENDBRANCH   2  20
TORSDOF 5
ENDMDL
MODEL      172
REMARK 921   NORMALIZED FREE ENERGY PREDICTED BY IDOCK:   -3.81 KCAL/MOL
REMARK 922        TOTAL FREE ENERGY PREDICTED BY IDOCK:   -6.27 KCAL/MOL
REMARK 923 INTER-LIGAND FREE ENERGY PREDICTED BY IDOCK:   -5.56 KCAL/MOL
REMARK 924 INTRA-LIGAND FREE ENERGY PREDICTED BY IDOCK:   -0.71 KCAL/MOL
REMARK 927      BINDING AFFINITY PREDICTED BY RF-SCORE:    0.00 PKD
ROOT
HETATM    1  C   UNL     1      -9.147  11.550  68.374  1.00  0.00    -0.185 C  
HETATM    2  C   UNL     1      -9.730  10.767  67.437  1.00  0.00    -0.194 C  
ENDROOT
BRANCH   1   3
HETATM    3  C   UNL     1      -9.135  13.054  68.444  1.00  0.00    -0.129 C  
BRANCH   3   4
HETATM    4  N   UNL     1      -7.924  13.639  67.852  1.00  0.00    -0.145 NA 
HETATM    5  C   UNL     1      -5.786  14.504  68.497  1.00  0.00    -0.096 C  
HETATM    6  C   UNL     1      -6.500  15.449  67.549  1.00  0.00    -0.174 C  
HETATM    7  C   UNL     1      -6.729  13.313  68.644  1.00  0.00    -0.095 C  
HETATM    8  C   UNL     1      -7.962  15.100  67.748  1.00  0.00    -0.143 C  
ENDBRANCH   3   4
ENDBRANCH   1   3
BRANCH   2   9
HETATM    9  C   UNL     1      -9.558   9.304  67.594  1.00  0.00    -0.142 A  
HETATM   10  C   UNL     1      -8.617   7.227  66.869  1.00  0.00    -0.124 A  
HETATM   11  C   UNL     1      -9.949   7.396  68.852  1.00  0.00    -0.169 A  
HETATM   12  N   UNL     1     -10.133   8.730  68.678  1.00  0.00    -0.184 NA 
HETATM   13  C   UNL     1      -9.198   6.617  67.977  1.00  0.00    -0.112 A  
HETATM   14  C   UNL     1      -8.801   8.591  66.671  1.00  0.00    -0.157 A  
BRANCH  11  15
HETATM   15  C   UNL     1     -10.587   6.778  70.021  1.00  0.00    -0.256 C  
HETATM   16  C   UNL     1      -9.960   5.886  70.803  1.00  0.00    -0.241 C  
HETATM   17  C   UNL     1     -10.651   5.315  71.970  1.00  0.00    -0.216 C  
HETATM   18  O   UNL     1      -9.876   4.433  72.631  1.00  0.00    -0.143 OA 
HETATM   19  O   UNL     1     -11.787   5.600  72.313  1.00  0.00    -0.226 OA 
ENDBRANCH  11  15
ENDBRANCH   2   9
BRANCH   2  20
HETATM   20  C   UNL     1     -10.446  11.371  66.293  1.00  0.00    -0.301 A  
HETATM   21  C   UNL     1     -10.577  11.852  63.914  1.00  0.00    -0.444 A  
HETATM   22  C   UNL     1     -12.403  13.311  62.964  1.00  0.00     0.070 C  
HETATM   23  C   UNL     1      -9.939  11.236  64.995  1.00  0.00    -0.323 A  
HETATM   24  C   UNL     1     -12.252  12.734  65.409  1.00  0.00    -0.532 A  
HETATM   25  C   UNL     1     -11.734  12.612  64.113  1.00  0.00    -0.468 A  
HETATM   26  C   UNL     1     -11.614  12.115  66.491  1.00  0.00    -0.425 A  
ENDBRANCH   2  20
TORSDOF 5
ENDMDL
MODEL      173
REMARK 921   NORMALIZED FREE ENERGY PREDICTED BY IDOCK:   -3.78 KCAL/MOL
REMARK 922        TOTAL FREE ENERGY PREDICTED BY IDOCK:   -6.22 KCAL/MOL
REMARK 923 INTER-LIGAND FREE ENERGY PREDICTED BY IDOCK:   -5.07 KCAL/MOL
REMARK 924 INTRA-LIGAND FREE ENERGY PREDICTED BY IDOCK:   -1.15 KCAL/MOL
REMARK 927      BINDING AFFINITY PREDICTED BY RF-SCORE:    0.00 PKD
ROOT
HETATM    1  C   UNL     1      -8.483  10.476  67.443  1.00  0.00    -0.122 C  
HETATM    2  C   UNL     1      -9.578  11.160  67.850  1.00  0.00    -0.181 C  
ENDROOT
BRANCH   1   3
HETATM    3  C   UNL     1      -7.524  10.838  66.340  1.00  0.00    -0.142 C  
BRANCH   3   4
HETATM    4  N   UNL     1      -7.176   9.691  65.491  1.00  0.00    -0.094 NA 
HETATM    5  C   UNL     1      -5.398   8.124  65.142  1.00  0.00    -0.032 C  
HETATM    6  C   UNL     1      -5.860   8.735  63.832  1.00  0.00    -0.071 C  
HETATM    7  C   UNL     1      -6.305   8.742  66.202  1.00  0.00    -0.064 C  
HETATM    8  C   UNL     1      -6.468  10.057  64.262  1.00  0.00    -0.131 C  
ENDBRANCH   3   4
ENDBRANCH   1   3
BRANCH   2   9
HETATM    9  C   UNL     1     -10.369  10.554  68.945  1.00  0.00    -0.208 A  
HETATM   10  C   UNL     1     -12.413  10.347  70.172  1.00  0.00    -0.247 A  
HETATM   11  C   UNL     1     -10.500   8.991  70.652  1.00  0.00    -0.230 A  
HETATM   12  N   UNL     1      -9.770   9.579  69.670  1.00  0.00    -0.187 NA 
HETATM   13  C   UNL     1     -11.818   9.342  70.927  1.00  0.00    -0.346 A  
HETATM   14  C   UNL     1     -11.679  10.967  69.166  1.00  0.00    -0.397 A  
BRANCH  11  15
HETATM   15  C   UNL     1      -9.839   7.944  71.444  1.00  0.00    -0.203 C  
HETATM   16  C   UNL     1      -8.646   7.428  71.112  1.00  0.00    -0.122 C  
HETATM   17  C   UNL     1      -8.031   6.392  71.957  1.00  0.00    -0.108 C  
HETATM   18  O   UNL     1      -6.844   5.984  71.467  1.00  0.00    -0.063 OA 
HETATM   19  O   UNL     1      -8.522   5.950  72.982  1.00  0.00    -0.118 OA 
ENDBRANCH  11  15
ENDBRANCH   2   9
BRANCH   2  20
HETATM   20  C   UNL     1      -9.972  12.416  67.177  1.00  0.00    -0.211 A  
HETATM   21  C   UNL     1     -11.036  13.555  65.313  1.00  0.00    -0.307 A  
HETATM   22  C   UNL     1     -10.945  16.065  65.078  1.00  0.00    -0.393 C  
HETATM   23  C   UNL     1     -10.710  12.375  65.987  1.00  0.00    -0.294 A  
HETATM   24  C   UNL     1      -9.909  14.839  67.015  1.00  0.00    -0.240 A  
HETATM   25  C   UNL     1     -10.633  14.796  65.817  1.00  0.00    -0.338 A  
HETATM   26  C   UNL     1      -9.583  13.658  67.692  1.00  0.00    -0.221 A  
ENDBRANCH   2  20
TORSDOF 5
ENDMDL
MODEL      174
REMARK 921   NORMALIZED FREE ENERGY PREDICTED BY IDOCK:   -3.78 KCAL/MOL
REMARK 922        TOTAL FREE ENERGY PREDICTED BY IDOCK:   -6.22 KCAL/MOL
REMARK 923 INTER-LIGAND FREE ENERGY PREDICTED BY IDOCK:   -4.93 KCAL/MOL
REMARK 924 INTRA-LIGAND FREE ENERGY PREDICTED BY IDOCK:   -1.29 KCAL/MOL
REMARK 927      BINDING AFFINITY PREDICTED BY RF-SCORE:    0.00 PKD
ROOT
HETATM    1  C   UNL     1      -9.214   9.245  68.175  1.00  0.00    -0.136 C  
HETATM    2  C   UNL     1      -9.163  10.091  67.119  1.00  0.00    -0.161 C  
ENDROOT
BRANCH   1   3
HETATM    3  C   UNL     1      -9.648   9.549  69.584  1.00  0.00    -0.202 C  
BRANCH   3   4
HETATM    4  N   UNL     1      -9.953   8.339  70.358  1.00  0.00    -0.187 NA 
HETATM    5  C   UNL     1     -10.592   6.053  70.035  1.00  0.00    -0.340 C  
HETATM    6  C   UNL     1     -11.469   6.729  71.071  1.00  0.00    -0.372 C  
HETATM    7  C   UNL     1      -9.587   7.122  69.616  1.00  0.00    -0.154 C  
HETATM    8  C   UNL     1     -11.369   8.198  70.703  1.00  0.00    -0.249 C  
ENDBRANCH   3   4
ENDBRANCH   1   3
BRANCH   2   9
HETATM    9  C   UNL     1      -8.661   9.531  65.844  1.00  0.00    -0.132 A  
HETATM   10  C   UNL     1      -7.825   9.830  63.622  1.00  0.00    -0.142 A  
HETATM   11  C   UNL     1      -8.011   7.667  64.629  1.00  0.00    -0.136 A  
HETATM   12  N   UNL     1      -8.506   8.187  65.781  1.00  0.00    -0.142 NA 
HETATM   13  C   UNL     1      -7.656   8.452  63.537  1.00  0.00    -0.133 A  
HETATM   14  C   UNL     1      -8.338  10.381  64.791  1.00  0.00    -0.157 A  
BRANCH  11  15
HETATM   15  C   UNL     1      -7.859   6.207  64.563  1.00  0.00    -0.114 C  
HETATM   16  C   UNL     1      -8.450   5.376  65.434  1.00  0.00    -0.144 C  
HETATM   17  C   UNL     1      -8.270   3.921  65.303  1.00  0.00    -0.101 C  
HETATM   18  O   UNL     1      -8.925   3.245  66.267  1.00  0.00    -0.134 OA 
HETATM   19  O   UNL     1      -7.613   3.379  64.430  1.00  0.00    -0.074 OA 
ENDBRANCH  11  15
ENDBRANCH   2   9
BRANCH   2  20
HETATM   20  C   UNL     1      -9.540  11.512  67.278  1.00  0.00    -0.183 A  
HETATM   21  C   UNL     1     -11.205  13.274  67.112  1.00  0.00    -0.327 A  
HETATM   22  C   UNL     1     -10.610  15.691  67.522  1.00  0.00    -0.297 C  
HETATM   23  C   UNL     1     -10.853  11.924  67.022  1.00  0.00    -0.303 A  
HETATM   24  C   UNL     1      -8.940  13.821  67.734  1.00  0.00    -0.194 A  
HETATM   25  C   UNL     1     -10.250  14.235  67.462  1.00  0.00    -0.240 A  
HETATM   26  C   UNL     1      -8.588  12.469  67.646  1.00  0.00    -0.178 A  
ENDBRANCH   2  20
TORSDOF 5
ENDMDL
MODEL      175
REMARK 921   NORMALIZED FREE ENERGY PREDICTED BY IDOCK:   -3.73 KCAL/MOL
REMARK 922        TOTAL FREE ENERGY PREDICTED BY IDOCK:   -6.17 KCAL/MOL
REMARK 923 INTER-LIGAND FREE ENERGY PREDICTED BY IDOCK:   -5.12 KCAL/MOL
REMARK 924 INTRA-LIGAND FREE ENERGY PREDICTED BY IDOCK:   -1.05 KCAL/MOL
REMARK 927      BINDING AFFINITY PREDICTED BY RF-SCORE:    0.00 PKD
ROOT
HETATM    1  C   UNL     1      -9.233   9.398  70.419  1.00  0.00    -0.305 C  
HETATM    2  C   UNL     1      -8.552   9.171  69.271  1.00  0.00    -0.137 C  
ENDROOT
BRANCH   1   3
HETATM    3  C   UNL     1     -10.117   8.442  71.174  1.00  0.00    -0.196 C  
BRANCH   3   4
HETATM    4  N   UNL     1     -11.251   9.111  71.825  1.00  0.00    -0.375 NA 
HETATM    5  C   UNL     1     -13.599   8.817  72.203  1.00  0.00    -0.480 C  
HETATM    6  C   UNL     1     -13.293  10.210  71.687  1.00  0.00    -0.463 C  
HETATM    7  C   UNL     1     -12.237   8.136  72.317  1.00  0.00    -0.346 C  
HETATM    8  C   UNL     1     -11.983  10.026  70.946  1.00  0.00    -0.361 C  
ENDBRANCH   3   4
ENDBRANCH   1   3
BRANCH   2   9
HETATM    9  C   UNL     1      -7.779  10.309  68.722  1.00  0.00    -0.096 A  
HETATM   10  C   UNL     1      -5.752  11.213  67.828  1.00  0.00    -0.043 A  
HETATM   11  C   UNL     1      -7.755  12.512  68.003  1.00  0.00    -0.140 A  
HETATM   12  N   UNL     1      -8.445  11.474  68.541  1.00  0.00    -0.154 NA 
HETATM   13  C   UNL     1      -6.418  12.419  67.631  1.00  0.00    -0.130 A  
HETATM   14  C   UNL     1      -6.440  10.140  68.385  1.00  0.00    -0.053 A  
BRANCH  11  15
HETATM   15  C   UNL     1      -8.480  13.777  67.822  1.00  0.00    -0.181 C  
HETATM   16  C   UNL     1      -7.871  14.972  67.849  1.00  0.00    -0.147 C  
HETATM   17  C   UNL     1      -8.653  16.202  67.646  1.00  0.00    -0.173 C  
HETATM   18  O   UNL     1      -7.882  17.305  67.716  1.00  0.00    -0.183 OA 
HETATM   19  O   UNL     1      -9.854  16.234  67.434  1.00  0.00    -0.236 OA 
ENDBRANCH  11  15
ENDBRANCH   2   9
BRANCH   2  20
HETATM   20  C   UNL     1      -8.642   7.861  68.592  1.00  0.00    -0.128 A  
HETATM   21  C   UNL     1      -7.713   5.661  68.141  1.00  0.00    -0.089 A  
HETATM   22  C   UNL     1      -8.764   4.109  66.452  1.00  0.00    -0.115 C  
HETATM   23  C   UNL     1      -7.669   6.881  68.822  1.00  0.00    -0.110 A  
HETATM   24  C   UNL     1      -9.714   6.373  66.999  1.00  0.00    -0.182 A  
HETATM   25  C   UNL     1      -8.731   5.400  67.218  1.00  0.00    -0.107 A  
HETATM   26  C   UNL     1      -9.672   7.594  67.683  1.00  0.00    -0.189 A  
ENDBRANCH   2  20
TORSDOF 5
ENDMDL
MODEL      176
REMARK 921   NORMALIZED FREE ENERGY PREDICTED BY IDOCK:   -3.69 KCAL/MOL
REMARK 922        TOTAL FREE ENERGY PREDICTED BY IDOCK:   -6.11 KCAL/MOL
REMARK 923 INTER-LIGAND FREE ENERGY PREDICTED BY IDOCK:   -4.75 KCAL/MOL
REMARK 924 INTRA-LIGAND FREE ENERGY PREDICTED BY IDOCK:   -1.36 KCAL/MOL
REMARK 927      BINDING AFFINITY PREDICTED BY RF-SCORE:    0.00 PKD
ROOT
HETATM    1  C   UNL     1      -8.361   4.142  69.357  1.00  0.00    -0.080 C  
HETATM    2  C   UNL     1      -8.603   5.257  70.087  1.00  0.00    -0.122 C  
ENDROOT
BRANCH   1   3
HETATM    3  C   UNL     1      -7.480   4.006  68.143  1.00  0.00    -0.067 C  
BRANCH   3   4
HETATM    4  N   UNL     1      -8.221   4.163  66.884  1.00  0.00    -0.101 NA 
HETATM    5  C   UNL     1      -9.110   5.878  65.467  1.00  0.00    -0.006 C  
HETATM    6  C   UNL     1     -10.140   4.799  65.740  1.00  0.00    -0.236 C  
HETATM    7  C   UNL     1      -7.854   5.413  66.200  1.00  0.00    -0.103 C  
HETATM    8  C   UNL     1      -9.675   4.200  67.054  1.00  0.00    -0.197 C  
ENDBRANCH   3   4
ENDBRANCH   1   3
BRANCH   2   9
HETATM    9  C   UNL     1      -9.545   5.115  71.221  1.00  0.00    -0.162 A  
HETATM   10  C   UNL     1     -10.286   3.963  73.183  1.00  0.00    -0.241 A  
HETATM   11  C   UNL     1     -11.330   5.979  72.422  1.00  0.00    -0.301 A  
HETATM   12  N   UNL     1     -10.485   6.080  71.364  1.00  0.00    -0.223 NA 
HETATM   13  C   UNL     1     -11.258   4.945  73.350  1.00  0.00    -0.415 A  
HETATM   14  C   UNL     1      -9.416   4.045  72.101  1.00  0.00    -0.192 A  
BRANCH  11  15
HETATM   15  C   UNL     1     -12.356   7.021  72.563  1.00  0.00     0.107 C  
HETATM   16  C   UNL     1     -12.220   8.248  72.039  1.00  0.00    -0.398 C  
HETATM   17  C   UNL     1     -13.292   9.242  72.203  1.00  0.00    -0.468 C  
HETATM   18  O   UNL     1     -12.980  10.418  71.624  1.00  0.00    -0.406 OA 
HETATM   19  O   UNL     1     -14.344   9.039  72.786  1.00  0.00    -0.596 OA 
ENDBRANCH  11  15
ENDBRANCH   2   9
BRANCH   2  20
HETATM   20  C   UNL     1      -7.989   6.548  69.712  1.00  0.00    -0.120 A  
HETATM   21  C   UNL     1      -8.037   8.594  68.401  1.00  0.00    -0.118 A  
HETATM   22  C   UNL     1      -6.113  10.225  68.434  1.00  0.00    -0.044 C  
HETATM   23  C   UNL     1      -8.637   7.398  68.806  1.00  0.00    -0.129 A  
HETATM   24  C   UNL     1      -6.141   8.121  69.813  1.00  0.00    -0.029 A  
HETATM   25  C   UNL     1      -6.781   8.962  68.895  1.00  0.00    -0.053 A  
HETATM   26  C   UNL     1      -6.741   6.924  70.221  1.00  0.00    -0.052 A  
ENDBRANCH   2  20
TORSDOF 5
ENDMDL
MODEL      177
REMARK 921   NORMALIZED FREE ENERGY PREDICTED BY IDOCK:   -3.64 KCAL/MOL
REMARK 922        TOTAL FREE ENERGY PREDICTED BY IDOCK:   -6.04 KCAL/MOL
REMARK 923 INTER-LIGAND FREE ENERGY PREDICTED BY IDOCK:   -4.93 KCAL/MOL
REMARK 924 INTRA-LIGAND FREE ENERGY PREDICTED BY IDOCK:   -1.11 KCAL/MOL
REMARK 927      BINDING AFFINITY PREDICTED BY RF-SCORE:    0.00 PKD
ROOT
HETATM    1  C   UNL     1      -9.376   7.787  70.621  1.00  0.00    -0.162 C  
HETATM    2  C   UNL     1      -9.090   7.462  69.338  1.00  0.00    -0.139 C  
ENDROOT
BRANCH   1   3
HETATM    3  C   UNL     1      -9.897   9.098  71.148  1.00  0.00    -0.301 C  
BRANCH   3   4
HETATM    4  N   UNL     1     -11.360   9.203  71.062  1.00  0.00    -0.286 NA 
HETATM    5  C   UNL     1     -13.136  10.717  71.600  1.00  0.00    -0.555 C  
HETATM    6  C   UNL     1     -13.437   9.315  72.096  1.00  0.00    -0.539 C  
HETATM    7  C   UNL     1     -11.787  10.601  70.896  1.00  0.00    -0.331 C  
HETATM    8  C   UNL     1     -12.059   8.698  72.245  1.00  0.00    -0.373 C  
ENDBRANCH   3   4
ENDBRANCH   1   3
BRANCH   2   9
HETATM    9  C   UNL     1      -8.555   6.101  69.102  1.00  0.00    -0.119 A  
HETATM   10  C   UNL     1      -7.446   4.133  69.890  1.00  0.00    -0.049 A  
HETATM   11  C   UNL     1      -8.318   4.296  67.667  1.00  0.00    -0.098 A  
HETATM   12  N   UNL     1      -8.772   5.558  67.881  1.00  0.00    -0.107 NA 
HETATM   13  C   UNL     1      -7.660   3.555  68.643  1.00  0.00    -0.053 A  
HETATM   14  C   UNL     1      -7.897   5.427  70.126  1.00  0.00    -0.081 A  
BRANCH  11  15
HETATM   15  C   UNL     1      -8.544   3.719  66.335  1.00  0.00    -0.113 C  
HETATM   16  C   UNL     1      -7.615   2.998  65.690  1.00  0.00    -0.074 C  
HETATM   17  C   UNL     1      -7.911   2.433  64.363  1.00  0.00    -0.077 C  
HETATM   18  O   UNL     1      -6.862   1.751  63.863  1.00  0.00    -0.029 OA 
HETATM   19  O   UNL     1      -8.973   2.557  63.777  1.00  0.00    -0.092 OA 
ENDBRANCH  11  15
ENDBRANCH   2   9
BRANCH   2  20
HETATM   20  C   UNL     1      -9.257   8.455  68.256  1.00  0.00    -0.136 A  
HETATM   21  C   UNL     1      -8.348  10.251  66.895  1.00  0.00    -0.123 A  
HETATM   22  C   UNL     1      -9.784  11.514  65.250  1.00  0.00    -0.268 C  
HETATM   23  C   UNL     1      -8.183   9.269  67.876  1.00  0.00    -0.115 A  
HETATM   24  C   UNL     1     -10.659   9.610  66.643  1.00  0.00    -0.173 A  
HETATM   25  C   UNL     1      -9.588  10.435  66.276  1.00  0.00    -0.230 A  
HETATM   26  C   UNL     1     -10.494   8.625  67.625  1.00  0.00    -0.311 A  
ENDBRANCH   2  20
TORSDOF 5
ENDMDL
MODEL      178
REMARK 921   NORMALIZED FREE ENERGY PREDICTED BY IDOCK:   -3.63 KCAL/MOL
REMARK 922        TOTAL FREE ENERGY PREDICTED BY IDOCK:   -6.03 KCAL/MOL
REMARK 923 INTER-LIGAND FREE ENERGY PREDICTED BY IDOCK:   -4.93 KCAL/MOL
REMARK 924 INTRA-LIGAND FREE ENERGY PREDICTED BY IDOCK:   -1.10 KCAL/MOL
REMARK 927      BINDING AFFINITY PREDICTED BY RF-SCORE:    0.00 PKD
ROOT
HETATM    1  C   UNL     1      -9.963   6.399  70.965  1.00  0.00    -0.205 C  
HETATM    2  C   UNL     1      -9.222   6.774  69.895  1.00  0.00    -0.147 C  
ENDROOT
BRANCH   1   3
HETATM    3  C   UNL     1     -10.734   7.282  71.910  1.00  0.00    -0.215 C  
BRANCH   3   4
HETATM    4  N   UNL     1     -12.095   7.567  71.437  1.00  0.00    -0.314 NA 
HETATM    5  C   UNL     1     -14.058   8.779  72.083  1.00  0.00    -0.519 C  
HETATM    6  C   UNL     1     -14.397   7.358  71.672  1.00  0.00    -0.614 C  
HETATM    7  C   UNL     1     -12.549   8.894  71.882  1.00  0.00    -0.377 C  
HETATM    8  C   UNL     1     -13.098   6.610  71.908  1.00  0.00    -0.056 C  
ENDBRANCH   3   4
ENDBRANCH   1   3
BRANCH   2   9
HETATM    9  C   UNL     1      -8.535   5.691  69.152  1.00  0.00    -0.102 A  
HETATM   10  C   UNL     1      -7.054   3.813  69.102  1.00  0.00    -0.046 A  
HETATM   11  C   UNL     1      -8.249   4.542  67.159  1.00  0.00    -0.101 A  
HETATM   12  N   UNL     1      -8.844   5.555  67.840  1.00  0.00    -0.106 NA 
HETATM   13  C   UNL     1      -7.359   3.653  67.753  1.00  0.00    -0.062 A  
HETATM   14  C   UNL     1      -7.648   4.849  69.814  1.00  0.00    -0.056 A  
BRANCH  11  15
HETATM   15  C   UNL     1      -8.577   4.409  65.733  1.00  0.00    -0.115 C  
HETATM   16  C   UNL     1      -9.763   3.953  65.302  1.00  0.00    -0.187 C  
HETATM   17  C   UNL     1     -10.034   3.859  63.859  1.00  0.00    -0.180 C  
HETATM   18  O   UNL     1     -11.266   3.372  63.610  1.00  0.00    -0.272 OA 
HETATM   19  O   UNL     1      -9.250   4.181  62.982  1.00  0.00    -0.121 OA 
ENDBRANCH  11  15
ENDBRANCH   2   9
BRANCH   2  20
HETATM   20  C   UNL     1      -9.076   8.202  69.546  1.00  0.00    -0.151 A  
HETATM   21  C   UNL     1      -9.933  10.195  68.450  1.00  0.00    -0.173 A  
HETATM   22  C   UNL     1      -8.575  12.318  68.327  1.00  0.00    -0.172 C  
HETATM   23  C   UNL     1     -10.087   8.860  68.836  1.00  0.00    -0.209 A  
HETATM   24  C   UNL     1      -7.760  10.244  69.497  1.00  0.00    -0.167 A  
HETATM   25  C   UNL     1      -8.765  10.896  68.771  1.00  0.00    -0.158 A  
HETATM   26  C   UNL     1      -7.915   8.907  69.884  1.00  0.00    -0.108 A  
ENDBRANCH   2  20
TORSDOF 5
ENDMDL
MODEL      179
REMARK 921   NORMALIZED FREE ENERGY PREDICTED BY IDOCK:   -3.59 KCAL/MOL
REMARK 922        TOTAL FREE ENERGY PREDICTED BY IDOCK:   -5.99 KCAL/MOL
REMARK 923 INTER-LIGAND FREE ENERGY PREDICTED BY IDOCK:   -4.98 KCAL/MOL
REMARK 924 INTRA-LIGAND FREE ENERGY PREDICTED BY IDOCK:   -1.01 KCAL/MOL
REMARK 927      BINDING AFFINITY PREDICTED BY RF-SCORE:    0.00 PKD
ROOT
HETATM    1  C   UNL     1      -8.212  12.885  68.223  1.00  0.00    -0.153 C  
HETATM    2  C   UNL     1      -8.813  11.881  67.543  1.00  0.00    -0.169 C  
ENDROOT
BRANCH   1   3
HETATM    3  C   UNL     1      -8.433  14.367  68.072  1.00  0.00    -0.164 C  
BRANCH   3   4
HETATM    4  N   UNL     1      -9.765  14.791  68.524  1.00  0.00    -0.213 NA 
HETATM    5  C   UNL     1     -11.359  16.546  68.184  1.00  0.00    -0.150 C  
HETATM    6  C   UNL     1     -11.125  16.293  69.661  1.00  0.00    -0.333 C  
HETATM    7  C   UNL     1     -10.482  15.522  67.468  1.00  0.00    -0.282 C  
HETATM    8  C   UNL     1      -9.739  15.675  69.691  1.00  0.00    -0.276 C  
ENDBRANCH   3   4
ENDBRANCH   1   3
BRANCH   2   9
HETATM    9  C   UNL     1      -8.379  10.504  67.872  1.00  0.00    -0.115 A  
HETATM   10  C   UNL     1      -7.169   8.514  67.325  1.00  0.00    -0.084 A  
HETATM   11  C   UNL     1      -8.318   8.770  69.409  1.00  0.00    -0.117 A  
HETATM   12  N   UNL     1      -8.742  10.017  69.083  1.00  0.00    -0.155 NA 
HETATM   13  C   UNL     1      -7.529   7.995  68.564  1.00  0.00    -0.102 A  
HETATM   14  C   UNL     1      -7.601   9.787  66.969  1.00  0.00    -0.092 A  
BRANCH  11  15
HETATM   15  C   UNL     1      -8.728   8.242  70.717  1.00  0.00    -0.151 C  
HETATM   16  C   UNL     1      -8.313   8.774  71.877  1.00  0.00    -0.131 C  
HETATM   17  C   UNL     1      -8.773   8.207  73.154  1.00  0.00    -0.240 C  
HETATM   18  O   UNL     1      -8.248   8.858  74.211  1.00  0.00    -0.224 OA 
HETATM   19  O   UNL     1      -9.542   7.265  73.259  1.00  0.00    -0.172 OA 
ENDBRANCH  11  15
ENDBRANCH   2   9
BRANCH   2  20
HETATM   20  C   UNL     1      -9.807  12.178  66.490  1.00  0.00    -0.232 A  
HETATM   21  C   UNL     1     -12.124  12.347  65.776  1.00  0.00    -0.381 A  
HETATM   22  C   UNL     1     -12.731  12.827  63.375  1.00  0.00    -0.172 C  
HETATM   23  C   UNL     1     -11.176  12.125  66.780  1.00  0.00    -0.375 A  
HETATM   24  C   UNL     1     -10.351  12.696  64.180  1.00  0.00    -0.412 A  
HETATM   25  C   UNL     1     -11.720  12.627  64.467  1.00  0.00    -0.416 A  
HETATM   26  C   UNL     1      -9.401  12.476  65.185  1.00  0.00     0.332 A  
ENDBRANCH   2  20
TORSDOF 5
ENDMDL
MODEL      180
REMARK 921   NORMALIZED FREE ENERGY PREDICTED BY IDOCK:   -3.59 KCAL/MOL
REMARK 922        TOTAL FREE ENERGY PREDICTED BY IDOCK:   -5.98 KCAL/MOL
REMARK 923 INTER-LIGAND FREE ENERGY PREDICTED BY IDOCK:   -6.08 KCAL/MOL
REMARK 924 INTRA-LIGAND FREE ENERGY PREDICTED BY IDOCK:    0.10 KCAL/MOL
REMARK 927      BINDING AFFINITY PREDICTED BY RF-SCORE:    0.00 PKD
ROOT
HETATM    1  C   UNL     1     -11.416  11.930  68.840  1.00  0.00    -0.358 C  
HETATM    2  C   UNL     1     -10.939  10.730  68.434  1.00  0.00    -0.299 C  
ENDROOT
BRANCH   1   3
HETATM    3  C   UNL     1     -11.508  13.205  68.046  1.00  0.00    -0.311 C  
BRANCH   3   4
HETATM    4  N   UNL     1     -10.193  13.705  67.622  1.00  0.00    -0.236 NA 
HETATM    5  C   UNL     1      -8.536  15.314  68.261  1.00  0.00    -0.159 C  
HETATM    6  C   UNL     1      -8.860  15.412  66.782  1.00  0.00    -0.300 C  
HETATM    7  C   UNL     1      -9.398  14.163  68.773  1.00  0.00    -0.092 C  
HETATM    8  C   UNL     1     -10.261  14.837  66.695  1.00  0.00    -0.269 C  
ENDBRANCH   3   4
ENDBRANCH   1   3
BRANCH   2   9
HETATM    9  C   UNL     1     -10.935   9.642  69.440  1.00  0.00    -0.190 A  
HETATM   10  C   UNL     1     -11.374   8.851  71.654  1.00  0.00    -0.407 A  
HETATM   11  C   UNL     1     -10.582   7.402  69.921  1.00  0.00    -0.236 A  
HETATM   12  N   UNL     1     -10.554   8.414  69.015  1.00  0.00    -0.195 NA 
HETATM   13  C   UNL     1     -10.990   7.580  71.239  1.00  0.00    -0.262 A  
HETATM   14  C   UNL     1     -11.345   9.901  70.743  1.00  0.00    -0.430 A  
BRANCH  11  15
HETATM   15  C   UNL     1     -10.155   6.075  69.457  1.00  0.00    -0.246 C  
HETATM   16  C   UNL     1      -8.969   5.860  68.868  1.00  0.00    -0.118 C  
HETATM   17  C   UNL     1      -8.594   4.503  68.441  1.00  0.00    -0.094 C  
HETATM   18  O   UNL     1      -7.379   4.476  67.860  1.00  0.00    -0.064 OA 
HETATM   19  O   UNL     1      -9.288   3.511  68.591  1.00  0.00    -0.153 OA 
ENDBRANCH  11  15
ENDBRANCH   2   9
BRANCH   2  20
HETATM   20  C   UNL     1     -10.402  10.559  67.067  1.00  0.00    -0.289 A  
HETATM   21  C   UNL     1      -8.650   9.762  65.584  1.00  0.00    -0.154 A  
HETATM   22  C   UNL     1      -8.703  10.239  63.107  1.00  0.00    -0.207 C  
HETATM   23  C   UNL     1      -9.196   9.877  66.866  1.00  0.00    -0.171 A  
HETATM   24  C   UNL     1     -10.517  10.992  64.680  1.00  0.00    -0.398 A  
HETATM   25  C   UNL     1      -9.302  10.324  64.481  1.00  0.00    -0.328 A  
HETATM   26  C   UNL     1     -11.065  11.107  65.963  1.00  0.00    -0.117 A  
ENDBRANCH   2  20
TORSDOF 5
ENDMDL
MODEL      181
REMARK 921   NORMALIZED FREE ENERGY PREDICTED BY IDOCK:   -3.54 KCAL/MOL
REMARK 922        TOTAL FREE ENERGY PREDICTED BY IDOCK:   -5.91 KCAL/MOL
REMARK 923 INTER-LIGAND FREE ENERGY PREDICTED BY IDOCK:   -4.70 KCAL/MOL
REMARK 924 INTRA-LIGAND FREE ENERGY PREDICTED BY IDOCK:   -1.21 KCAL/MOL
REMARK 927      BINDING AFFINITY PREDICTED BY RF-SCORE:    0.00 PKD
ROOT
HETATM    1  C   UNL     1      -8.673   4.895  70.281  1.00  0.00    -0.122 C  
HETATM    2  C   UNL     1      -8.395   6.214  70.158  1.00  0.00    -0.128 C  
ENDROOT
BRANCH   1   3
HETATM    3  C   UNL     1      -8.334   3.983  71.430  1.00  0.00    -0.077 C  
BRANCH   3   4
HETATM    4  N   UNL     1      -9.396   3.927  72.443  1.00  0.00    -0.115 NA 
HETATM    5  C   UNL     1     -11.344   5.133  73.144  1.00  0.00    -0.385 C  
HETATM    6  C   UNL     1     -10.442   4.810  74.321  1.00  0.00    -0.337 C  
HETATM    7  C   UNL     1     -10.649   4.509  71.937  1.00  0.00     0.003 C  
HETATM    8  C   UNL     1      -9.077   4.649  73.677  1.00  0.00    -0.105 C  
ENDBRANCH   3   4
ENDBRANCH   1   3
BRANCH   2   9
HETATM    9  C   UNL     1      -8.818   6.865  68.896  1.00  0.00    -0.129 A  
HETATM   10  C   UNL     1      -8.976   6.877  66.509  1.00  0.00    -0.166 A  
HETATM   11  C   UNL     1      -9.939   8.606  67.855  1.00  0.00    -0.188 A  
HETATM   12  N   UNL     1      -9.515   8.021  69.004  1.00  0.00    -0.151 NA 
HETATM   13  C   UNL     1      -9.696   8.065  66.597  1.00  0.00    -0.313 A  
HETATM   14  C   UNL     1      -8.526   6.267  67.675  1.00  0.00    -0.116 A  
BRANCH  11  15
HETATM   15  C   UNL     1     -10.683   9.868  67.979  1.00  0.00    -0.296 C  
HETATM   16  C   UNL     1     -10.747  10.772  66.990  1.00  0.00    -0.320 C  
HETATM   17  C   UNL     1     -11.522  12.009  67.173  1.00  0.00    -0.335 C  
HETATM   18  O   UNL     1     -11.465  12.803  66.085  1.00  0.00    -0.315 OA 
HETATM   19  O   UNL     1     -12.148  12.294  68.180  1.00  0.00    -0.407 OA 
ENDBRANCH  11  15
ENDBRANCH   2   9
BRANCH   2  20
HETATM   20  C   UNL     1      -7.655   6.928  71.219  1.00  0.00    -0.087 A  
HETATM   21  C   UNL     1      -7.661   8.274  73.243  1.00  0.00    -0.182 A  
HETATM   22  C   UNL     1      -5.527   9.206  74.212  1.00  0.00    -0.127 C  
HETATM   23  C   UNL     1      -8.349   7.546  72.267  1.00  0.00    -0.123 A  
HETATM   24  C   UNL     1      -5.573   7.762  72.152  1.00  0.00    -0.036 A  
HETATM   25  C   UNL     1      -6.269   8.394  73.190  1.00  0.00    -0.109 A  
HETATM   26  C   UNL     1      -6.260   7.032  71.175  1.00  0.00    -0.037 A  
ENDBRANCH   2  20
TORSDOF 5
ENDMDL
MODEL      182
REMARK 921   NORMALIZED FREE ENERGY PREDICTED BY IDOCK:   -3.48 KCAL/MOL
REMARK 922        TOTAL FREE ENERGY PREDICTED BY IDOCK:   -5.84 KCAL/MOL
REMARK 923 INTER-LIGAND FREE ENERGY PREDICTED BY IDOCK:   -4.47 KCAL/MOL
REMARK 924 INTRA-LIGAND FREE ENERGY PREDICTED BY IDOCK:   -1.37 KCAL/MOL
REMARK 927      BINDING AFFINITY PREDICTED BY RF-SCORE:    0.00 PKD
ROOT
HETATM    1  C   UNL     1      -9.075   8.975  68.703  1.00  0.00    -0.137 C  
HETATM    2  C   UNL     1      -9.285   9.626  67.535  1.00  0.00    -0.149 C  
ENDROOT
BRANCH   1   3
HETATM    3  C   UNL     1      -9.370   9.459  70.098  1.00  0.00    -0.241 C  
BRANCH   3   4
HETATM    4  N   UNL     1      -8.199   9.388  70.983  1.00  0.00    -0.308 NA 
HETATM    5  C   UNL     1      -5.807   9.322  70.878  1.00  0.00    -0.055 C  
HETATM    6  C   UNL     1      -6.349   8.238  71.790  1.00  0.00    -0.052 C  
HETATM    7  C   UNL     1      -7.041  10.080  70.396  1.00  0.00    -0.122 C  
HETATM    8  C   UNL     1      -7.758   8.022  71.271  1.00  0.00    -0.090 C  
ENDBRANCH   3   4
ENDBRANCH   1   3
BRANCH   2   9
HETATM    9  C   UNL     1      -8.868   8.924  66.300  1.00  0.00    -0.158 A  
HETATM   10  C   UNL     1      -8.291   8.956  63.978  1.00  0.00    -0.168 A  
HETATM   11  C   UNL     1      -8.183   6.954  65.287  1.00  0.00    -0.129 A  
HETATM   12  N   UNL     1      -8.603   7.600  66.405  1.00  0.00    -0.135 NA 
HETATM   13  C   UNL     1      -8.011   7.596  64.064  1.00  0.00    -0.099 A  
HETATM   14  C   UNL     1      -8.729   9.632  65.111  1.00  0.00    -0.192 A  
BRANCH  11  15
HETATM   15  C   UNL     1      -7.911   5.515  65.405  1.00  0.00    -0.109 C  
HETATM   16  C   UNL     1      -8.008   4.851  66.566  1.00  0.00    -0.107 C  
HETATM   17  C   UNL     1      -7.737   3.406  66.614  1.00  0.00    -0.080 C  
HETATM   18  O   UNL     1      -7.872   2.910  67.859  1.00  0.00    -0.060 OA 
HETATM   19  O   UNL     1      -7.431   2.725  65.649  1.00  0.00    -0.070 OA 
ENDBRANCH  11  15
ENDBRANCH   2   9
BRANCH   2  20
HETATM   20  C   UNL     1      -9.851  10.992  67.528  1.00  0.00    -0.190 A  
HETATM   21  C   UNL     1      -9.547  13.392  67.758  1.00  0.00    -0.213 A  
HETATM   22  C   UNL     1     -11.510  14.976  67.730  1.00  0.00    -0.347 C  
HETATM   23  C   UNL     1      -9.014  12.101  67.704  1.00  0.00    -0.178 A  
HETATM   24  C   UNL     1     -11.761  12.490  67.441  1.00  0.00    -0.432 A  
HETATM   25  C   UNL     1     -10.925  13.597  67.634  1.00  0.00    -0.283 A  
HETATM   26  C   UNL     1     -11.228  11.196  67.386  1.00  0.00    -0.363 A  
ENDBRANCH   2  20
TORSDOF 5
ENDMDL
MODEL      183
REMARK 921   NORMALIZED FREE ENERGY PREDICTED BY IDOCK:   -3.44 KCAL/MOL
REMARK 922        TOTAL FREE ENERGY PREDICTED BY IDOCK:   -5.79 KCAL/MOL
REMARK 923 INTER-LIGAND FREE ENERGY PREDICTED BY IDOCK:   -5.43 KCAL/MOL
REMARK 924 INTRA-LIGAND FREE ENERGY PREDICTED BY IDOCK:   -0.36 KCAL/MOL
REMARK 927      BINDING AFFINITY PREDICTED BY RF-SCORE:    0.00 PKD
ROOT
HETATM    1  C   UNL     1      -8.601   7.388  68.345  1.00  0.00    -0.124 C  
HETATM    2  C   UNL     1      -9.446   6.645  69.098  1.00  0.00    -0.136 C  
ENDROOT
BRANCH   1   3
HETATM    3  C   UNL     1      -8.534   8.888  68.239  1.00  0.00    -0.130 C  
BRANCH   3   4
HETATM    4  N   UNL     1      -9.444   9.426  67.220  1.00  0.00    -0.130 NA 
HETATM    5  C   UNL     1      -9.404  10.339  65.006  1.00  0.00    -0.290 C  
HETATM    6  C   UNL     1     -10.218  11.208  65.946  1.00  0.00    -0.303 C  
HETATM    7  C   UNL     1      -8.944   9.163  65.862  1.00  0.00    -0.189 C  
HETATM    8  C   UNL     1      -9.644  10.874  67.310  1.00  0.00    -0.164 C  
ENDBRANCH   3   4
ENDBRANCH   1   3
BRANCH   2   9
HETATM    9  C   UNL     1      -9.315   5.173  68.986  1.00  0.00    -0.121 A  
HETATM   10  C   UNL     1      -9.286   3.001  69.989  1.00  0.00    -0.216 A  
HETATM   11  C   UNL     1      -9.102   3.311  67.622  1.00  0.00    -0.174 A  
HETATM   12  N   UNL     1      -9.185   4.661  67.739  1.00  0.00    -0.120 NA 
HETATM   13  C   UNL     1      -9.154   2.454  68.717  1.00  0.00    -0.197 A  
HETATM   14  C   UNL     1      -9.365   4.382  70.129  1.00  0.00    -0.225 A  
BRANCH  11  15
HETATM   15  C   UNL     1      -8.946   2.763  66.268  1.00  0.00    -0.149 C  
HETATM   16  C   UNL     1      -9.750   3.106  65.250  1.00  0.00     0.013 C  
HETATM   17  C   UNL     1      -9.531   2.532  63.913  1.00  0.00    -0.119 C  
HETATM   18  O   UNL     1     -10.436   2.979  63.020  1.00  0.00    -0.145 OA 
HETATM   19  O   UNL     1      -8.639   1.748  63.631  1.00  0.00    -0.079 OA 
ENDBRANCH  11  15
ENDBRANCH   2   9
BRANCH   2  20
HETATM   20  C   UNL     1     -10.476   7.296  69.935  1.00  0.00    -0.236 A  
HETATM   21  C   UNL     1     -11.139   9.094  71.430  1.00  0.00    -0.415 A  
HETATM   22  C   UNL     1     -13.395   9.103  72.559  1.00  0.00    -0.481 C  
HETATM   23  C   UNL     1     -10.192   8.501  70.590  1.00  0.00    -0.230 A  
HETATM   24  C   UNL     1     -12.678   7.298  70.960  1.00  0.00    -0.284 A  
HETATM   25  C   UNL     1     -12.387   8.494  71.628  1.00  0.00    -0.371 A  
HETATM   26  C   UNL     1     -11.730   6.704  70.118  1.00  0.00    -0.412 A  
ENDBRANCH   2  20
TORSDOF 5
ENDMDL
MODEL      184
REMARK 921   NORMALIZED FREE ENERGY PREDICTED BY IDOCK:   -3.43 KCAL/MOL
REMARK 922        TOTAL FREE ENERGY PREDICTED BY IDOCK:   -5.77 KCAL/MOL
REMARK 923 INTER-LIGAND FREE ENERGY PREDICTED BY IDOCK:   -4.73 KCAL/MOL
REMARK 924 INTRA-LIGAND FREE ENERGY PREDICTED BY IDOCK:   -1.04 KCAL/MOL
REMARK 927      BINDING AFFINITY PREDICTED BY RF-SCORE:    0.00 PKD
ROOT
HETATM    1  C   UNL     1      -8.430   6.868  69.851  1.00  0.00    -0.140 C  
HETATM    2  C   UNL     1      -9.487   6.161  70.318  1.00  0.00    -0.178 C  
ENDROOT
BRANCH   1   3
HETATM    3  C   UNL     1      -8.234   8.360  69.873  1.00  0.00    -0.122 C  
BRANCH   3   4
HETATM    4  N   UNL     1      -7.778   8.892  68.582  1.00  0.00    -0.096 NA 
HETATM    5  C   UNL     1      -7.467   8.204  66.308  1.00  0.00    -0.082 C  
HETATM    6  C   UNL     1      -6.239   8.917  66.842  1.00  0.00    -0.059 C  
HETATM    7  C   UNL     1      -8.468   8.238  67.460  1.00  0.00    -0.130 C  
HETATM    8  C   UNL     1      -6.344   8.713  68.341  1.00  0.00    -0.055 C  
ENDBRANCH   3   4
ENDBRANCH   1   3
BRANCH   2   9
HETATM    9  C   UNL     1      -9.435   4.692  70.136  1.00  0.00    -0.176 A  
HETATM   10  C   UNL     1      -9.550   2.476  71.030  1.00  0.00    -0.206 A  
HETATM   11  C   UNL     1      -9.294   2.889  68.686  1.00  0.00    -0.174 A  
HETATM   12  N   UNL     1      -9.304   4.234  68.868  1.00  0.00    -0.146 NA 
HETATM   13  C   UNL     1      -9.419   1.984  69.735  1.00  0.00    -0.119 A  
HETATM   14  C   UNL     1      -9.556   3.851  71.237  1.00  0.00    -0.241 A  
BRANCH  11  15
HETATM   15  C   UNL     1      -9.137   2.400  67.309  1.00  0.00    -0.180 C  
HETATM   16  C   UNL     1      -9.466   3.134  66.236  1.00  0.00    -0.055 C  
HETATM   17  C   UNL     1      -9.270   2.591  64.883  1.00  0.00    -0.133 C  
HETATM   18  O   UNL     1      -9.664   3.459  63.931  1.00  0.00    -0.132 OA 
HETATM   19  O   UNL     1      -8.805   1.490  64.638  1.00  0.00    -0.094 OA 
ENDBRANCH  11  15
ENDBRANCH   2   9
BRANCH   2  20
HETATM   20  C   UNL     1     -10.645   6.853  70.922  1.00  0.00    -0.243 A  
HETATM   21  C   UNL     1     -13.009   7.415  70.885  1.00  0.00    -0.103 A  
HETATM   22  C   UNL     1     -14.002   9.040  72.539  1.00  0.00    -0.472 C  
HETATM   23  C   UNL     1     -11.918   6.718  70.356  1.00  0.00    -0.343 A  
HETATM   24  C   UNL     1     -11.575   8.380  72.566  1.00  0.00    -0.426 A  
HETATM   25  C   UNL     1     -12.845   8.258  71.990  1.00  0.00    -0.369 A  
HETATM   26  C   UNL     1     -10.482   7.681  72.038  1.00  0.00    -0.258 A  
ENDBRANCH   2  20
TORSDOF 5
ENDMDL
MODEL      185
REMARK 921   NORMALIZED FREE ENERGY PREDICTED BY IDOCK:   -3.37 KCAL/MOL
REMARK 922        TOTAL FREE ENERGY PREDICTED BY IDOCK:   -5.70 KCAL/MOL
REMARK 923 INTER-LIGAND FREE ENERGY PREDICTED BY IDOCK:   -4.74 KCAL/MOL
REMARK 924 INTRA-LIGAND FREE ENERGY PREDICTED BY IDOCK:   -0.96 KCAL/MOL
REMARK 927      BINDING AFFINITY PREDICTED BY RF-SCORE:    0.00 PKD
ROOT
HETATM    1  C   UNL     1      -8.891   5.441  68.334  1.00  0.00    -0.102 C  
HETATM    2  C   UNL     1      -8.933   5.895  69.609  1.00  0.00    -0.133 C  
ENDROOT
BRANCH   1   3
HETATM    3  C   UNL     1      -8.985   4.017  67.856  1.00  0.00    -0.125 C  
BRANCH   3   4
HETATM    4  N   UNL     1      -8.882   3.899  66.396  1.00  0.00    -0.119 NA 
HETATM    5  C   UNL     1     -10.271   3.867  64.444  1.00  0.00    -0.239 C  
HETATM    6  C   UNL     1      -9.279   2.719  64.434  1.00  0.00    -0.130 C  
HETATM    7  C   UNL     1      -9.959   4.641  65.722  1.00  0.00    -0.230 C  
HETATM    8  C   UNL     1      -8.964   2.522  65.905  1.00  0.00    -0.122 C  
ENDBRANCH   3   4
ENDBRANCH   1   3
BRANCH   2   9
HETATM    9  C   UNL     1      -8.782   7.357  69.797  1.00  0.00    -0.141 A  
HETATM   10  C   UNL     1      -7.684   9.225  70.811  1.00  0.00    -0.164 A  
HETATM   11  C   UNL     1      -9.417   9.500  69.183  1.00  0.00    -0.163 A  
HETATM   12  N   UNL     1      -9.573   8.159  69.045  1.00  0.00    -0.155 NA 
HETATM   13  C   UNL     1      -8.485  10.067  70.046  1.00  0.00    -0.126 A  
HETATM   14  C   UNL     1      -7.835   7.848  70.689  1.00  0.00    -0.095 A  
BRANCH  11  15
HETATM   15  C   UNL     1     -10.288  10.364  68.374  1.00  0.00    -0.198 C  
HETATM   16  C   UNL     1     -10.575  11.629  68.716  1.00  0.00    -0.241 C  
HETATM   17  C   UNL     1     -11.442  12.446  67.854  1.00  0.00    -0.328 C  
HETATM   18  O   UNL     1     -11.630  13.682  68.357  1.00  0.00    -0.297 OA 
HETATM   19  O   UNL     1     -11.935  12.066  66.805  1.00  0.00    -0.616 OA 
ENDBRANCH  11  15
ENDBRANCH   2   9
BRANCH   2  20
HETATM   20  C   UNL     1      -9.063   4.951  70.738  1.00  0.00    -0.181 A  
HETATM   21  C   UNL     1      -8.131   3.173  72.107  1.00  0.00    -0.062 A  
HETATM   22  C   UNL     1      -9.498   2.031  73.894  1.00  0.00    -0.093 C  
HETATM   23  C   UNL     1      -7.997   4.110  71.079  1.00  0.00    -0.071 A  
HETATM   24  C   UNL     1     -10.394   3.914  72.485  1.00  0.00    -0.210 A  
HETATM   25  C   UNL     1      -9.333   3.062  72.814  1.00  0.00    -0.135 A  
HETATM   26  C   UNL     1     -10.260   4.854  71.456  1.00  0.00    -0.264 A  
ENDBRANCH   2  20
TORSDOF 5
ENDMDL
MODEL      186
REMARK 921   NORMALIZED FREE ENERGY PREDICTED BY IDOCK:   -3.36 KCAL/MOL
REMARK 922        TOTAL FREE ENERGY PREDICTED BY IDOCK:   -5.68 KCAL/MOL
REMARK 923 INTER-LIGAND FREE ENERGY PREDICTED BY IDOCK:   -4.98 KCAL/MOL
REMARK 924 INTRA-LIGAND FREE ENERGY PREDICTED BY IDOCK:   -0.70 KCAL/MOL
REMARK 927      BINDING AFFINITY PREDICTED BY RF-SCORE:    0.00 PKD
ROOT
HETATM    1  C   UNL     1      -7.695  17.700  66.192  1.00  0.00    -0.293 C  
HETATM    2  C   UNL     1      -8.136  16.505  66.652  1.00  0.00    -0.314 C  
ENDROOT
BRANCH   1   3
HETATM    3  C   UNL     1      -6.523  18.505  66.686  1.00  0.00    -0.183 C  
BRANCH   3   4
HETATM    4  N   UNL     1      -6.442  18.549  68.152  1.00  0.00    -0.206 NA 
HETATM    5  C   UNL     1      -6.783  20.064  69.975  1.00  0.00    -0.217 C  
HETATM    6  C   UNL     1      -5.450  19.350  70.094  1.00  0.00    -0.247 C  
HETATM    7  C   UNL     1      -7.423  19.489  68.715  1.00  0.00    -0.352 C  
HETATM    8  C   UNL     1      -5.134  18.967  68.660  1.00  0.00    -0.192 C  
ENDBRANCH   3   4
ENDBRANCH   1   3
BRANCH   2   9
HETATM    9  C   UNL     1      -9.344  15.948  66.000  1.00  0.00    -0.349 A  
HETATM   10  C   UNL     1     -11.510  16.241  65.028  1.00  0.00     0.060 A  
HETATM   11  C   UNL     1     -10.417  14.112  65.079  1.00  0.00    -0.425 A  
HETATM   12  N   UNL     1      -9.331  14.625  65.710  1.00  0.00    -0.143 NA 
HETATM   13  C   UNL     1     -11.517  14.885  64.719  1.00  0.00    -0.410 A  
HETATM   14  C   UNL     1     -10.409  16.783  65.681  1.00  0.00    -0.284 A  
BRANCH  11  15
HETATM   15  C   UNL     1     -10.403  12.673  64.780  1.00  0.00    -0.335 C  
HETATM   16  C   UNL     1      -9.708  11.788  65.510  1.00  0.00    -0.248 C  
HETATM   17  C   UNL     1      -9.748  10.357  65.167  1.00  0.00    -0.291 C  
HETATM   18  O   UNL     1      -8.984   9.620  65.997  1.00  0.00    -0.148 OA 
HETATM   19  O   UNL     1     -10.393   9.882  64.247  1.00  0.00     0.325 OA 
ENDBRANCH  11  15
ENDBRANCH   2   9
BRANCH   2  20
HETATM   20  C   UNL     1      -7.461  15.842  67.788  1.00  0.00    -0.157 A  
HETATM   21  C   UNL     1      -5.671  14.433  68.635  1.00  0.00    -0.088 A  
HETATM   22  C   UNL     1      -5.590  13.718  71.053  1.00  0.00    -0.208 C  
HETATM   23  C   UNL     1      -6.285  15.111  67.578  1.00  0.00    -0.079 A  
HETATM   24  C   UNL     1      -7.387  15.221  70.135  1.00  0.00     0.179 A  
HETATM   25  C   UNL     1      -6.221  14.476  69.921  1.00  0.00    -0.150 A  
HETATM   26  C   UNL     1      -8.002  15.902  69.077  1.00  0.00    -0.222 A  
ENDBRANCH   2  20
TORSDOF 5
ENDMDL
MODEL      187
REMARK 921   NORMALIZED FREE ENERGY PREDICTED BY IDOCK:   -3.27 KCAL/MOL
REMARK 922        TOTAL FREE ENERGY PREDICTED BY IDOCK:   -5.57 KCAL/MOL
REMARK 923 INTER-LIGAND FREE ENERGY PREDICTED BY IDOCK:   -4.79 KCAL/MOL
REMARK 924 INTRA-LIGAND FREE ENERGY PREDICTED BY IDOCK:   -0.77 KCAL/MOL
REMARK 927      BINDING AFFINITY PREDICTED BY RF-SCORE:    0.00 PKD
ROOT
HETATM    1  C   UNL     1     -10.207   7.662  69.673  1.00  0.00    -0.204 C  
HETATM    2  C   UNL     1      -9.535   8.526  68.875  1.00  0.00    -0.147 C  
ENDROOT
BRANCH   1   3
HETATM    3  C   UNL     1     -11.593   7.815  70.240  1.00  0.00    -0.034 C  
BRANCH   3   4
HETATM    4  N   UNL     1     -11.678   7.406  71.648  1.00  0.00    -0.268 NA 
HETATM    5  C   UNL     1     -10.353   7.370  73.644  1.00  0.00    -0.367 C  
HETATM    6  C   UNL     1     -11.006   6.024  73.391  1.00  0.00    -0.202 C  
HETATM    7  C   UNL     1     -10.844   8.262  72.506  1.00  0.00    -0.351 C  
HETATM    8  C   UNL     1     -11.240   6.030  71.892  1.00  0.00    -0.282 C  
ENDBRANCH   3   4
ENDBRANCH   1   3
BRANCH   2   9
HETATM    9  C   UNL     1      -8.159   8.137  68.487  1.00  0.00    -0.124 A  
HETATM   10  C   UNL     1      -5.856   7.800  69.038  1.00  0.00    -0.031 A  
HETATM   11  C   UNL     1      -6.732   7.286  66.870  1.00  0.00    -0.064 A  
HETATM   12  N   UNL     1      -7.982   7.680  67.224  1.00  0.00    -0.117 NA 
HETATM   13  C   UNL     1      -5.652   7.326  67.746  1.00  0.00    -0.025 A  
HETATM   14  C   UNL     1      -7.127   8.215  69.417  1.00  0.00    -0.055 A  
BRANCH  11  15
HETATM   15  C   UNL     1      -6.545   6.806  65.495  1.00  0.00    -0.051 C  
HETATM   16  C   UNL     1      -7.546   6.746  64.604  1.00  0.00    -0.105 C  
HETATM   17  C   UNL     1      -7.288   6.269  63.236  1.00  0.00    -0.064 C  
HETATM   18  O   UNL     1      -8.407   6.265  62.486  1.00  0.00    -0.096 OA 
HETATM   19  O   UNL     1      -6.197   5.920  62.817  1.00  0.00    -0.024 OA 
ENDBRANCH  11  15
ENDBRANCH   2   9
BRANCH   2  20
HETATM   20  C   UNL     1     -10.147   9.810  68.476  1.00  0.00    -0.185 A  
HETATM   21  C   UNL     1     -11.301  11.864  69.076  1.00  0.00    -0.337 A  
HETATM   22  C   UNL     1     -12.136  13.468  67.318  1.00  0.00    -0.367 C  
HETATM   23  C   UNL     1     -10.668  10.674  69.448  1.00  0.00    -0.281 A  
HETATM   24  C   UNL     1     -10.887  11.357  66.755  1.00  0.00    -0.336 A  
HETATM   25  C   UNL     1     -11.423  12.212  67.727  1.00  0.00    -0.398 A  
HETATM   26  C   UNL     1     -10.252  10.166  67.127  1.00  0.00    -0.278 A  
ENDBRANCH   2  20
TORSDOF 5
ENDMDL
MODEL      188
REMARK 921   NORMALIZED FREE ENERGY PREDICTED BY IDOCK:   -3.27 KCAL/MOL
REMARK 922        TOTAL FREE ENERGY PREDICTED BY IDOCK:   -5.56 KCAL/MOL
REMARK 923 INTER-LIGAND FREE ENERGY PREDICTED BY IDOCK:   -4.49 KCAL/MOL
REMARK 924 INTRA-LIGAND FREE ENERGY PREDICTED BY IDOCK:   -1.08 KCAL/MOL
REMARK 927      BINDING AFFINITY PREDICTED BY RF-SCORE:    0.00 PKD
ROOT
HETATM    1  C   UNL     1      -6.827   9.778  67.248  1.00  0.00    -0.083 C  
HETATM    2  C   UNL     1      -6.846  10.604  68.321  1.00  0.00    -0.068 C  
ENDROOT
BRANCH   1   3
HETATM    3  C   UNL     1      -6.947  10.147  65.794  1.00  0.00    -0.123 C  
BRANCH   3   4
HETATM    4  N   UNL     1      -8.312   9.978  65.276  1.00  0.00    -0.146 NA 
HETATM    5  C   UNL     1      -9.560  10.223  63.246  1.00  0.00    -0.305 C  
HETATM    6  C   UNL     1     -10.268  10.886  64.412  1.00  0.00    -0.423 C  
HETATM    7  C   UNL     1      -8.302   9.607  63.853  1.00  0.00    -0.172 C  
HETATM    8  C   UNL     1      -9.138  11.183  65.380  1.00  0.00    -0.177 C  
ENDBRANCH   3   4
ENDBRANCH   1   3
BRANCH   2   9
HETATM    9  C   UNL     1      -6.741   9.965  69.653  1.00  0.00    -0.061 A  
HETATM   10  C   UNL     1      -5.502   9.483  71.641  1.00  0.00    -0.073 A  
HETATM   11  C   UNL     1      -7.774   8.785  71.360  1.00  0.00    -0.114 A  
HETATM   12  N   UNL     1      -7.848   9.342  70.124  1.00  0.00    -0.123 NA 
HETATM   13  C   UNL     1      -6.627   8.840  72.146  1.00  0.00    -0.042 A  
HETATM   14  C   UNL     1      -5.555  10.053  70.374  1.00  0.00    -0.056 A  
BRANCH  11  15
HETATM   15  C   UNL     1      -8.973   8.099  71.859  1.00  0.00    -0.225 C  
HETATM   16  C   UNL     1     -10.192   8.659  71.836  1.00  0.00    -0.404 C  
HETATM   17  C   UNL     1     -11.356   7.911  72.337  1.00  0.00    -0.369 C  
HETATM   18  O   UNL     1     -12.492   8.630  72.248  1.00  0.00    -0.367 OA 
HETATM   19  O   UNL     1     -11.313   6.775  72.780  1.00  0.00    -0.254 OA 
ENDBRANCH  11  15
ENDBRANCH   2   9
BRANCH   2  20
HETATM   20  C   UNL     1      -7.022  12.061  68.142  1.00  0.00    -0.079 A  
HETATM   21  C   UNL     1      -6.082  14.243  67.631  1.00  0.00    -0.071 A  
HETATM   22  C   UNL     1      -7.458  16.349  67.826  1.00  0.00    -0.158 C  
HETATM   23  C   UNL     1      -5.940  12.857  67.746  1.00  0.00    -0.141 A  
HETATM   24  C   UNL     1      -8.395  14.060  68.289  1.00  0.00    -0.162 A  
HETATM   25  C   UNL     1      -7.308  14.857  67.909  1.00  0.00    -0.159 A  
HETATM   26  C   UNL     1      -8.254  12.671  68.402  1.00  0.00    -0.129 A  
ENDBRANCH   2  20
TORSDOF 5
ENDMDL
MODEL      189
REMARK 921   NORMALIZED FREE ENERGY PREDICTED BY IDOCK:   -3.23 KCAL/MOL
REMARK 922        TOTAL FREE ENERGY PREDICTED BY IDOCK:   -5.52 KCAL/MOL
REMARK 923 INTER-LIGAND FREE ENERGY PREDICTED BY IDOCK:   -4.78 KCAL/MOL
REMARK 924 INTRA-LIGAND FREE ENERGY PREDICTED BY IDOCK:   -0.73 KCAL/MOL
REMARK 927      BINDING AFFINITY PREDICTED BY RF-SCORE:    0.00 PKD
ROOT
HETATM    1  C   UNL     1      -8.474   8.449  66.141  1.00  0.00    -0.139 C  
HETATM    2  C   UNL     1      -9.291   7.993  67.121  1.00  0.00    -0.186 C  
ENDROOT
BRANCH   1   3
HETATM    3  C   UNL     1      -8.127   9.878  65.818  1.00  0.00    -0.123 C  
BRANCH   3   4
HETATM    4  N   UNL     1      -7.145  10.448  66.750  1.00  0.00    -0.100 NA 
HETATM    5  C   UNL     1      -6.357  12.571  67.531  1.00  0.00    -0.154 C  
HETATM    6  C   UNL     1      -5.205  11.665  67.140  1.00  0.00    -0.096 C  
HETATM    7  C   UNL     1      -7.610  11.731  67.299  1.00  0.00    -0.150 C  
HETATM    8  C   UNL     1      -5.838  10.711  66.145  1.00  0.00    -0.112 C  
ENDBRANCH   3   4
ENDBRANCH   1   3
BRANCH   2   9
HETATM    9  C   UNL     1      -9.484   6.527  67.194  1.00  0.00    -0.131 A  
HETATM   10  C   UNL     1     -10.141   4.458  66.187  1.00  0.00    -0.257 A  
HETATM   11  C   UNL     1      -9.229   4.562  68.398  1.00  0.00    -0.133 A  
HETATM   12  N   UNL     1      -9.091   5.911  68.335  1.00  0.00    -0.115 NA 
HETATM   13  C   UNL     1      -9.741   3.806  67.349  1.00  0.00    -0.143 A  
HETATM   14  C   UNL     1     -10.014   5.841  66.107  1.00  0.00    -0.066 A  
BRANCH  11  15
HETATM   15  C   UNL     1      -8.813   3.903  69.644  1.00  0.00    -0.144 C  
HETATM   16  C   UNL     1      -9.587   3.867  70.739  1.00  0.00    -0.259 C  
HETATM   17  C   UNL     1      -9.118   3.176  71.950  1.00  0.00    -0.101 C  
HETATM   18  O   UNL     1     -10.017   3.251  72.951  1.00  0.00    -0.130 OA 
HETATM   19  O   UNL     1      -8.049   2.598  72.050  1.00  0.00    -0.053 OA 
ENDBRANCH  11  15
ENDBRANCH   2   9
BRANCH   2  20
HETATM   20  C   UNL     1      -9.987   8.939  68.018  1.00  0.00    -0.215 A  
HETATM   21  C   UNL     1     -10.466   9.740  70.263  1.00  0.00    -0.345 A  
HETATM   22  C   UNL     1     -12.174  11.548  70.680  1.00  0.00    -0.473 C  
HETATM   23  C   UNL     1      -9.768   8.888  69.401  1.00  0.00    -0.169 A  
HETATM   24  C   UNL     1     -11.599  10.721  68.374  1.00  0.00    -0.311 A  
HETATM   25  C   UNL     1     -11.392  10.658  69.758  1.00  0.00    -0.371 A  
HETATM   26  C   UNL     1     -10.900   9.870  67.510  1.00  0.00    -0.307 A  
ENDBRANCH   2  20
TORSDOF 5
ENDMDL
MODEL      190
REMARK 921   NORMALIZED FREE ENERGY PREDICTED BY IDOCK:   -3.19 KCAL/MOL
REMARK 922        TOTAL FREE ENERGY PREDICTED BY IDOCK:   -5.46 KCAL/MOL
REMARK 923 INTER-LIGAND FREE ENERGY PREDICTED BY IDOCK:   -4.65 KCAL/MOL
REMARK 924 INTRA-LIGAND FREE ENERGY PREDICTED BY IDOCK:   -0.81 KCAL/MOL
REMARK 927      BINDING AFFINITY PREDICTED BY RF-SCORE:    0.00 PKD
ROOT
HETATM    1  C   UNL     1      -8.463  14.076  67.170  1.00  0.00    -0.207 C  
HETATM    2  C   UNL     1      -8.791  12.803  66.845  1.00  0.00    -0.194 C  
ENDROOT
BRANCH   1   3
HETATM    3  C   UNL     1      -9.117  15.348  66.699  1.00  0.00    -0.279 C  
BRANCH   3   4
HETATM    4  N   UNL     1      -9.007  16.439  67.678  1.00  0.00    -0.196 NA 
HETATM    5  C   UNL     1      -8.998  18.832  67.782  1.00  0.00    -0.308 C  
HETATM    6  C   UNL     1      -7.840  18.241  68.565  1.00  0.00    -0.313 C  
HETATM    7  C   UNL     1      -9.762  17.624  67.245  1.00  0.00    -0.284 C  
HETATM    8  C   UNL     1      -7.632  16.889  67.909  1.00  0.00    -0.171 C  
ENDBRANCH   3   4
ENDBRANCH   1   3
BRANCH   2   9
HETATM    9  C   UNL     1      -7.952  11.732  67.430  1.00  0.00    -0.155 A  
HETATM   10  C   UNL     1      -6.761  10.795  69.281  1.00  0.00    -0.081 A  
HETATM   11  C   UNL     1      -6.945   9.659  67.182  1.00  0.00    -0.085 A  
HETATM   12  N   UNL     1      -7.683  10.663  66.643  1.00  0.00    -0.125 NA 
HETATM   13  C   UNL     1      -6.475   9.686  68.491  1.00  0.00    -0.051 A  
HETATM   14  C   UNL     1      -7.509  11.837  68.744  1.00  0.00    -0.109 A  
BRANCH  11  15
HETATM   15  C   UNL     1      -6.645   8.509  66.318  1.00  0.00    -0.061 C  
HETATM   16  C   UNL     1      -7.275   7.331  66.433  1.00  0.00    -0.079 C  
HETATM   17  C   UNL     1      -6.938   6.223  65.526  1.00  0.00    -0.056 C  
HETATM   18  O   UNL     1      -7.660   5.117  65.793  1.00  0.00    -0.081 OA 
HETATM   19  O   UNL     1      -6.110   6.285  64.632  1.00  0.00    -0.028 OA 
ENDBRANCH  11  15
ENDBRANCH   2   9
BRANCH   2  20
HETATM   20  C   UNL     1      -9.900  12.530  65.906  1.00  0.00    -0.257 A  
HETATM   21  C   UNL     1     -10.672  12.038  63.655  1.00  0.00    -0.506 A  
HETATM   22  C   UNL     1     -13.130  11.944  63.097  1.00  0.00     0.150 C  
HETATM   23  C   UNL     1      -9.628  12.241  64.563  1.00  0.00     0.097 A  
HETATM   24  C   UNL     1     -12.276  12.393  65.420  1.00  0.00    -0.386 A  
HETATM   25  C   UNL     1     -12.004  12.120  64.074  1.00  0.00    -0.533 A  
HETATM   26  C   UNL     1     -11.231  12.594  66.331  1.00  0.00    -0.350 A  
ENDBRANCH   2  20
TORSDOF 5
ENDMDL
MODEL      191
REMARK 921   NORMALIZED FREE ENERGY PREDICTED BY IDOCK:   -3.18 KCAL/MOL
REMARK 922        TOTAL FREE ENERGY PREDICTED BY IDOCK:   -5.45 KCAL/MOL
REMARK 923 INTER-LIGAND FREE ENERGY PREDICTED BY IDOCK:   -4.75 KCAL/MOL
REMARK 924 INTRA-LIGAND FREE ENERGY PREDICTED BY IDOCK:   -0.71 KCAL/MOL
REMARK 927      BINDING AFFINITY PREDICTED BY RF-SCORE:    0.00 PKD
ROOT
HETATM    1  C   UNL     1      -8.788  15.373  67.986  1.00  0.00    -0.165 C  
HETATM    2  C   UNL     1      -9.401  14.276  68.489  1.00  0.00    -0.200 C  
ENDROOT
BRANCH   1   3
HETATM    3  C   UNL     1      -9.159  16.817  68.197  1.00  0.00    -0.227 C  
BRANCH   3   4
HETATM    4  N   UNL     1      -8.109  17.744  67.752  1.00  0.00    -0.222 NA 
HETATM    5  C   UNL     1      -7.858  19.908  66.756  1.00  0.00    -0.330 C  
HETATM    6  C   UNL     1      -7.007  18.872  66.046  1.00  0.00    -0.294 C  
HETATM    7  C   UNL     1      -8.538  19.144  67.889  1.00  0.00    -0.305 C  
HETATM    8  C   UNL     1      -7.722  17.569  66.350  1.00  0.00    -0.297 C  
ENDBRANCH   3   4
ENDBRANCH   1   3
BRANCH   2   9
HETATM    9  C   UNL     1      -8.843  12.963  68.090  1.00  0.00    -0.194 A  
HETATM   10  C   UNL     1      -8.111  11.438  66.398  1.00  0.00    -0.106 A  
HETATM   11  C   UNL     1      -7.933  10.930  68.730  1.00  0.00    -0.139 A  
HETATM   12  N   UNL     1      -8.479  12.120  69.086  1.00  0.00     0.388 NA 
HETATM   13  C   UNL     1      -7.728  10.558  67.405  1.00  0.00    -0.102 A  
HETATM   14  C   UNL     1      -8.680  12.659  66.742  1.00  0.00    -0.135 A  
BRANCH  11  15
HETATM   15  C   UNL     1      -7.554  10.015  69.815  1.00  0.00    -0.167 C  
HETATM   16  C   UNL     1      -7.837   8.704  69.791  1.00  0.00    -0.093 C  
HETATM   17  C   UNL     1      -7.415   7.838  70.903  1.00  0.00    -0.073 C  
HETATM   18  O   UNL     1      -7.793   6.558  70.715  1.00  0.00    -0.102 OA 
HETATM   19  O   UNL     1      -6.795   8.218  71.882  1.00  0.00    -0.069 OA 
ENDBRANCH  11  15
ENDBRANCH   2   9
BRANCH   2  20
HETATM   20  C   UNL     1     -10.599  14.411  69.345  1.00  0.00    -0.140 A  
HETATM   21  C   UNL     1     -11.657  15.268  71.357  1.00  0.00    -0.446 A  
HETATM   22  C   UNL     1     -14.022  14.641  71.971  1.00  0.00    -0.581 C  
HETATM   23  C   UNL     1     -10.547  15.182  70.512  1.00  0.00    -0.127 A  
HETATM   24  C   UNL     1     -12.897  13.828  69.873  1.00  0.00     0.195 A  
HETATM   25  C   UNL     1     -12.839  14.586  71.049  1.00  0.00    -0.418 A  
HETATM   26  C   UNL     1     -11.786  13.743  69.025  1.00  0.00    -0.397 A  
ENDBRANCH   2  20
TORSDOF 5
ENDMDL
MODEL      192
REMARK 921   NORMALIZED FREE ENERGY PREDICTED BY IDOCK:   -3.06 KCAL/MOL
REMARK 922        TOTAL FREE ENERGY PREDICTED BY IDOCK:   -5.29 KCAL/MOL
REMARK 923 INTER-LIGAND FREE ENERGY PREDICTED BY IDOCK:   -4.30 KCAL/MOL
REMARK 924 INTRA-LIGAND FREE ENERGY PREDICTED BY IDOCK:   -0.99 KCAL/MOL
REMARK 927      BINDING AFFINITY PREDICTED BY RF-SCORE:    0.00 PKD
ROOT
HETATM    1  C   UNL     1      -7.443  15.517  67.005  1.00  0.00    -0.205 C  
HETATM    2  C   UNL     1      -7.932  14.529  67.791  1.00  0.00    -0.168 C  
ENDROOT
BRANCH   1   3
HETATM    3  C   UNL     1      -8.077  16.845  66.687  1.00  0.00    -0.263 C  
BRANCH   3   4
HETATM    4  N   UNL     1      -7.275  17.983  67.155  1.00  0.00    -0.191 NA 
HETATM    5  C   UNL     1      -6.797  19.206  69.159  1.00  0.00    -0.361 C  
HETATM    6  C   UNL     1      -7.139  20.138  68.012  1.00  0.00    -0.319 C  
HETATM    7  C   UNL     1      -6.859  17.806  68.555  1.00  0.00    -0.233 C  
HETATM    8  C   UNL     1      -7.977  19.267  67.095  1.00  0.00    -0.264 C  
ENDBRANCH   3   4
ENDBRANCH   1   3
BRANCH   2   9
HETATM    9  C   UNL     1      -7.109  13.303  67.905  1.00  0.00    -0.133 A  
HETATM   10  C   UNL     1      -5.821  11.557  66.896  1.00  0.00    -0.132 A  
HETATM   11  C   UNL     1      -6.046  11.761  69.271  1.00  0.00    -0.084 A  
HETATM   12  N   UNL     1      -6.831  12.862  69.155  1.00  0.00    -0.086 NA 
HETATM   13  C   UNL     1      -5.521  11.089  68.172  1.00  0.00    -0.042 A  
HETATM   14  C   UNL     1      -6.629  12.680  66.757  1.00  0.00     0.619 A  
BRANCH  11  15
HETATM   15  C   UNL     1      -5.760  11.280  70.629  1.00  0.00    -0.123 C  
HETATM   16  C   UNL     1      -6.053  10.035  71.035  1.00  0.00    -0.031 C  
HETATM   17  C   UNL     1      -5.726   9.611  72.406  1.00  0.00     0.162 C  
HETATM   18  O   UNL     1      -6.100   8.338  72.640  1.00  0.00    -0.057 OA 
HETATM   19  O   UNL     1      -5.179  10.315  73.238  1.00  0.00    -0.323 OA 
ENDBRANCH  11  15
ENDBRANCH   2   9
BRANCH   2  20
HETATM   20  C   UNL     1      -9.251  14.672  68.443  1.00  0.00    -0.197 A  
HETATM   21  C   UNL     1     -10.637  15.641  70.188  1.00  0.00    -0.348 A  
HETATM   22  C   UNL     1     -13.041  14.942  70.501  1.00  0.00    -0.299 C  
HETATM   23  C   UNL     1      -9.409  15.543  69.529  1.00  0.00    -0.276 A  
HETATM   24  C   UNL     1     -11.577  14.014  68.677  1.00  0.00    -0.360 A  
HETATM   25  C   UNL     1     -11.730  14.872  69.773  1.00  0.00    -0.344 A  
HETATM   26  C   UNL     1     -10.348  13.916  68.015  1.00  0.00    -0.245 A  
ENDBRANCH   2  20
TORSDOF 5
ENDMDL
MODEL      193
REMARK 921   NORMALIZED FREE ENERGY PREDICTED BY IDOCK:   -2.89 KCAL/MOL
REMARK 922        TOTAL FREE ENERGY PREDICTED BY IDOCK:   -5.07 KCAL/MOL
REMARK 923 INTER-LIGAND FREE ENERGY PREDICTED BY IDOCK:   -4.89 KCAL/MOL
REMARK 924 INTRA-LIGAND FREE ENERGY PREDICTED BY IDOCK:   -0.18 KCAL/MOL
REMARK 927      BINDING AFFINITY PREDICTED BY RF-SCORE:    0.00 PKD
ROOT
HETATM    1  C   UNL     1     -10.397   8.302  70.014  1.00  0.00    -0.212 C  
HETATM    2  C   UNL     1     -10.209   9.603  69.690  1.00  0.00    -0.239 C  
ENDROOT
BRANCH   1   3
HETATM    3  C   UNL     1     -11.515   7.704  70.826  1.00  0.00    -0.277 C  
BRANCH   3   4
HETATM    4  N   UNL     1     -11.121   6.464  71.508  1.00  0.00    -0.262 NA 
HETATM    5  C   UNL     1      -9.177   5.387  72.403  1.00  0.00    -0.152 C  
HETATM    6  C   UNL     1      -9.971   4.445  71.516  1.00  0.00    -0.250 C  
HETATM    7  C   UNL     1      -9.977   6.687  72.405  1.00  0.00    -0.166 C  
HETATM    8  C   UNL     1     -10.724   5.388  70.597  1.00  0.00    -0.187 C  
ENDBRANCH   3   4
ENDBRANCH   1   3
BRANCH   2   9
HETATM    9  C   UNL     1      -8.995   9.922  68.903  1.00  0.00    -0.153 A  
HETATM   10  C   UNL     1      -6.615  10.069  68.711  1.00  0.00    -0.049 A  
HETATM   11  C   UNL     1      -8.070  10.540  66.869  1.00  0.00    -0.120 A  
HETATM   12  N   UNL     1      -9.178  10.282  67.610  1.00  0.00    -0.144 NA 
HETATM   13  C   UNL     1      -6.780  10.439  67.380  1.00  0.00    -0.072 A  
HETATM   14  C   UNL     1      -7.738   9.808  69.488  1.00  0.00    -0.120 A  
BRANCH  11  15
HETATM   15  C   UNL     1      -8.276  10.945  65.472  1.00  0.00    -0.052 C  
HETATM   16  C   UNL     1      -9.495  11.114  64.938  1.00  0.00    -0.251 C  
HETATM   17  C   UNL     1      -9.633  11.536  63.535  1.00  0.00    -0.279 C  
HETATM   18  O   UNL     1     -10.925  11.644  63.167  1.00  0.00    -0.300 OA 
HETATM   19  O   UNL     1      -8.699  11.767  62.785  1.00  0.00    -0.136 OA 
ENDBRANCH  11  15
ENDBRANCH   2   9
BRANCH   2  20
HETATM   20  C   UNL     1     -11.152  10.639  70.162  1.00  0.00    -0.341 A  
HETATM   21  C   UNL     1     -12.859  11.366  71.732  1.00  0.00    -0.449 A  
HETATM   22  C   UNL     1     -14.073  13.557  71.435  1.00  0.00     0.363 C  
HETATM   23  C   UNL     1     -11.922  10.418  71.311  1.00  0.00    -0.425 A  
HETATM   24  C   UNL     1     -12.261  12.781  69.872  1.00  0.00    -0.245 A  
HETATM   25  C   UNL     1     -13.041  12.552  71.012  1.00  0.00    -0.034 A  
HETATM   26  C   UNL     1     -11.321  11.832  69.451  1.00  0.00    -0.337 A  
ENDBRANCH   2  20
TORSDOF 5
ENDMDL
MODEL      194
REMARK 921   NORMALIZED FREE ENERGY PREDICTED BY IDOCK:   -2.85 KCAL/MOL
REMARK 922        TOTAL FREE ENERGY PREDICTED BY IDOCK:   -5.03 KCAL/MOL
REMARK 923 INTER-LIGAND FREE ENERGY PREDICTED BY IDOCK:   -3.77 KCAL/MOL
REMARK 924 INTRA-LIGAND FREE ENERGY PREDICTED BY IDOCK:   -1.25 KCAL/MOL
REMARK 927      BINDING AFFINITY PREDICTED BY RF-SCORE:    0.00 PKD
ROOT
HETATM    1  C   UNL     1      -7.528   9.463  66.926  1.00  0.00    -0.091 C  
HETATM    2  C   UNL     1      -7.523   9.957  68.187  1.00  0.00    -0.080 C  
ENDROOT
BRANCH   1   3
HETATM    3  C   UNL     1      -7.220  10.193  65.646  1.00  0.00    -0.137 C  
BRANCH   3   4
HETATM    4  N   UNL     1      -8.377  10.267  64.743  1.00  0.00    -0.169 NA 
HETATM    5  C   UNL     1      -8.995  11.151  62.604  1.00  0.00    -0.347 C  
HETATM    6  C   UNL     1     -10.018  11.510  63.666  1.00  0.00    -0.409 C  
HETATM    7  C   UNL     1      -7.955  10.307  63.334  1.00  0.00    -0.147 C  
HETATM    8  C   UNL     1      -9.217  11.449  64.953  1.00  0.00    -0.058 C  
ENDBRANCH   3   4
ENDBRANCH   1   3
BRANCH   2   9
HETATM    9  C   UNL     1      -7.901   9.019  69.268  1.00  0.00    -0.095 A  
HETATM   10  C   UNL     1      -8.358   8.571  71.574  1.00  0.00    -0.210 A  
HETATM   11  C   UNL     1      -8.598   6.895  69.882  1.00  0.00    -0.141 A  
HETATM   12  N   UNL     1      -8.215   7.753  68.902  1.00  0.00    -0.126 NA 
HETATM   13  C   UNL     1      -8.687   7.267  71.220  1.00  0.00    -0.127 A  
HETATM   14  C   UNL     1      -7.956   9.463  70.585  1.00  0.00    -0.189 A  
BRANCH  11  15
HETATM   15  C   UNL     1      -8.924   5.520  69.480  1.00  0.00    -0.129 C  
HETATM   16  C   UNL     1      -9.093   5.159  68.199  1.00  0.00    -0.125 C  
HETATM   17  C   UNL     1      -9.402   3.761  67.862  1.00  0.00    -0.186 C  
HETATM   18  O   UNL     1      -9.549   3.585  66.534  1.00  0.00    -0.181 OA 
HETATM   19  O   UNL     1      -9.512   2.858  68.675  1.00  0.00    -0.184 OA 
ENDBRANCH  11  15
ENDBRANCH   2   9
BRANCH   2  20
HETATM   20  C   UNL     1      -7.210  11.381  68.434  1.00  0.00    -0.087 A  
HETATM   21  C   UNL     1      -7.938  13.693  68.598  1.00  0.00    -0.083 A  
HETATM   22  C   UNL     1      -6.289  15.572  68.936  1.00  0.00    -0.108 C  
HETATM   23  C   UNL     1      -8.232  12.338  68.424  1.00  0.00    -0.146 A  
HETATM   24  C   UNL     1      -5.597  13.156  68.815  1.00  0.00    -0.073 A  
HETATM   25  C   UNL     1      -6.617  14.115  68.788  1.00  0.00    -0.094 A  
HETATM   26  C   UNL     1      -5.891  11.798  68.642  1.00  0.00    -0.049 A  
ENDBRANCH   2  20
TORSDOF 5
ENDMDL
MODEL      195
REMARK 921   NORMALIZED FREE ENERGY PREDICTED BY IDOCK:   -2.75 KCAL/MOL
REMARK 922        TOTAL FREE ENERGY PREDICTED BY IDOCK:   -4.89 KCAL/MOL
REMARK 923 INTER-LIGAND FREE ENERGY PREDICTED BY IDOCK:   -3.89 KCAL/MOL
REMARK 924 INTRA-LIGAND FREE ENERGY PREDICTED BY IDOCK:   -1.00 KCAL/MOL
REMARK 927      BINDING AFFINITY PREDICTED BY RF-SCORE:    0.00 PKD
ROOT
HETATM    1  C   UNL     1      -8.362   9.181  67.661  1.00  0.00    -0.116 C  
HETATM    2  C   UNL     1      -8.629   9.957  68.738  1.00  0.00    -0.130 C  
ENDROOT
BRANCH   1   3
HETATM    3  C   UNL     1      -9.233   8.114  67.053  1.00  0.00    -0.153 C  
BRANCH   3   4
HETATM    4  N   UNL     1      -8.472   6.926  66.644  1.00  0.00    -0.117 NA 
HETATM    5  C   UNL     1      -8.431   4.554  66.977  1.00  0.00    -0.104 C  
HETATM    6  C   UNL     1      -7.054   5.161  67.165  1.00  0.00    -0.069 C  
HETATM    7  C   UNL     1      -9.328   5.730  66.600  1.00  0.00    -0.146 C  
HETATM    8  C   UNL     1      -7.357   6.600  67.536  1.00  0.00    -0.095 C  
ENDBRANCH   3   4
ENDBRANCH   1   3
BRANCH   2   9
HETATM    9  C   UNL     1      -7.572  10.912  69.145  1.00  0.00    -0.133 A  
HETATM   10  C   UNL     1      -5.369  11.357  69.965  1.00  0.00    -0.075 A  
HETATM   11  C   UNL     1      -6.861  13.112  69.316  1.00  0.00    -0.024 A  
HETATM   12  N   UNL     1      -7.837  12.230  68.981  1.00  0.00     0.103 NA 
HETATM   13  C   UNL     1      -5.620  12.715  69.803  1.00  0.00    -0.101 A  
HETATM   14  C   UNL     1      -6.359  10.438  69.635  1.00  0.00    -0.068 A  
BRANCH  11  15
HETATM   15  C   UNL     1      -7.161  14.541  69.149  1.00  0.00    -0.138 C  
HETATM   16  C   UNL     1      -6.567  15.497  69.878  1.00  0.00    -0.131 C  
HETATM   17  C   UNL     1      -6.901  16.911  69.651  1.00  0.00    -0.014 C  
HETATM   18  O   UNL     1      -6.219  17.728  70.478  1.00  0.00     0.168 OA 
HETATM   19  O   UNL     1      -7.695  17.312  68.815  1.00  0.00    -0.258 OA 
ENDBRANCH  11  15
ENDBRANCH   2   9
BRANCH   2  20
HETATM   20  C   UNL     1      -9.894   9.797  69.485  1.00  0.00    -0.230 A  
HETATM   21  C   UNL     1     -12.126  10.589  70.030  1.00  0.00    -0.351 A  
HETATM   22  C   UNL     1     -13.519   9.476  71.814  1.00  0.00    -0.480 C  
HETATM   23  C   UNL     1     -10.947  10.698  69.286  1.00  0.00    -0.294 A  
HETATM   24  C   UNL     1     -11.226   8.664  71.171  1.00  0.00    -0.329 A  
HETATM   25  C   UNL     1     -12.273   9.576  70.983  1.00  0.00    -0.385 A  
HETATM   26  C   UNL     1     -10.046   8.772  70.425  1.00  0.00    -0.223 A  
ENDBRANCH   2  20
TORSDOF 5
ENDMDL
MODEL      196
REMARK 921   NORMALIZED FREE ENERGY PREDICTED BY IDOCK:   -2.42 KCAL/MOL
REMARK 922        TOTAL FREE ENERGY PREDICTED BY IDOCK:   -4.47 KCAL/MOL
REMARK 923 INTER-LIGAND FREE ENERGY PREDICTED BY IDOCK:   -3.48 KCAL/MOL
REMARK 924 INTRA-LIGAND FREE ENERGY PREDICTED BY IDOCK:   -0.99 KCAL/MOL
REMARK 927      BINDING AFFINITY PREDICTED BY RF-SCORE:    0.00 PKD
ROOT
HETATM    1  C   UNL     1      -8.501   5.237  68.880  1.00  0.00    -0.091 C  
HETATM    2  C   UNL     1      -8.623   5.677  70.155  1.00  0.00    -0.127 C  
ENDROOT
BRANCH   1   3
HETATM    3  C   UNL     1      -8.960   3.923  68.308  1.00  0.00    -0.121 C  
BRANCH   3   4
HETATM    4  N   UNL     1      -9.055   3.944  66.842  1.00  0.00    -0.138 NA 
HETATM    5  C   UNL     1      -7.659   4.123  64.904  1.00  0.00    -0.077 C  
HETATM    6  C   UNL     1      -8.838   5.074  64.824  1.00  0.00    -0.128 C  
HETATM    7  C   UNL     1      -7.852   3.372  66.219  1.00  0.00    -0.084 C  
HETATM    8  C   UNL     1      -9.210   5.288  66.279  1.00  0.00    -0.149 C  
ENDBRANCH   3   4
ENDBRANCH   1   3
BRANCH   2   9
HETATM    9  C   UNL     1      -8.047   7.008  70.456  1.00  0.00    -0.114 A  
HETATM   10  C   UNL     1      -6.787   8.460  71.879  1.00  0.00    -0.092 A  
HETATM   11  C   UNL     1      -7.642   9.183  69.764  1.00  0.00    -0.079 A  
HETATM   12  N   UNL     1      -8.199   7.970  69.514  1.00  0.00    -0.120 NA 
HETATM   13  C   UNL     1      -6.929   9.462  70.925  1.00  0.00    -0.099 A  
HETATM   14  C   UNL     1      -7.356   7.213  71.645  1.00  0.00    -0.085 A  
BRANCH  11  15
HETATM   15  C   UNL     1      -7.823  10.226  68.745  1.00  0.00    -0.106 C  
HETATM   16  C   UNL     1      -6.797  10.913  68.221  1.00  0.00    -0.067 C  
HETATM   17  C   UNL     1      -7.044  11.935  67.191  1.00  0.00    -0.142 C  
HETATM   18  O   UNL     1      -5.904  12.529  66.789  1.00  0.00    -0.245 OA 
HETATM   19  O   UNL     1      -8.144  12.218  66.744  1.00  0.00    -0.132 OA 
ENDBRANCH  11  15
ENDBRANCH   2   9
BRANCH   2  20
HETATM   20  C   UNL     1      -9.251   4.824  71.186  1.00  0.00    -0.192 A  
HETATM   21  C   UNL     1     -10.976   4.484  72.865  1.00  0.00    -0.262 A  
HETATM   22  C   UNL     1     -10.980   2.448  74.355  1.00  0.00    -0.050 C  
HETATM   23  C   UNL     1     -10.407   5.257  71.848  1.00  0.00    -0.275 A  
HETATM   24  C   UNL     1      -9.252   2.824  72.564  1.00  0.00    -0.140 A  
HETATM   25  C   UNL     1     -10.399   3.265  73.237  1.00  0.00    -0.239 A  
HETATM   26  C   UNL     1      -8.684   3.596  71.544  1.00  0.00    -0.129 A  
ENDBRANCH   2  20
TORSDOF 5
ENDMDL
MODEL      197
REMARK 921   NORMALIZED FREE ENERGY PREDICTED BY IDOCK:   -2.03 KCAL/MOL
REMARK 922        TOTAL FREE ENERGY PREDICTED BY IDOCK:   -3.96 KCAL/MOL
REMARK 923 INTER-LIGAND FREE ENERGY PREDICTED BY IDOCK:   -3.30 KCAL/MOL
REMARK 924 INTRA-LIGAND FREE ENERGY PREDICTED BY IDOCK:   -0.66 KCAL/MOL
REMARK 927      BINDING AFFINITY PREDICTED BY RF-SCORE:    0.00 PKD
ROOT
HETATM    1  C   UNL     1      -7.987  13.677  67.592  1.00  0.00    -0.180 C  
HETATM    2  C   UNL     1      -7.633  12.370  67.579  1.00  0.00    -0.155 C  
ENDROOT
BRANCH   1   3
HETATM    3  C   UNL     1      -8.692  14.455  66.513  1.00  0.00    -0.007 C  
BRANCH   3   4
HETATM    4  N   UNL     1      -9.095  15.798  66.952  1.00  0.00    -0.220 NA 
HETATM    5  C   UNL     1     -11.038  17.193  67.082  1.00  0.00     0.186 C  
HETATM    6  C   UNL     1      -9.868  17.932  66.461  1.00  0.00    -0.343 C  
HETATM    7  C   UNL     1     -10.487  15.811  67.426  1.00  0.00    -0.297 C  
HETATM    8  C   UNL     1      -9.009  16.814  65.901  1.00  0.00    -0.068 C  
ENDBRANCH   3   4
ENDBRANCH   1   3
BRANCH   2   9
HETATM    9  C   UNL     1      -6.912  11.866  68.771  1.00  0.00    -0.104 A  
HETATM   10  C   UNL     1      -5.373  12.203  70.572  1.00  0.00    -0.144 A  
HETATM   11  C   UNL     1      -6.584  10.155  70.300  1.00  0.00    -0.137 A  
HETATM   12  N   UNL     1      -7.212  10.613  69.187  1.00  0.00    -0.090 NA 
HETATM   13  C   UNL     1      -5.669  10.918  71.018  1.00  0.00    -0.007 A  
HETATM   14  C   UNL     1      -6.001  12.686  69.429  1.00  0.00    -0.101 A  
BRANCH  11  15
HETATM   15  C   UNL     1      -6.904   8.790  70.737  1.00  0.00    -0.056 C  
HETATM   16  C   UNL     1      -8.112   8.235  70.559  1.00  0.00    -0.105 C  
HETATM   17  C   UNL     1      -8.363   6.856  71.007  1.00  0.00    -0.126 C  
HETATM   18  O   UNL     1      -9.630   6.470  70.758  1.00  0.00    -0.177 OA 
HETATM   19  O   UNL     1      -7.533   6.136  71.537  1.00  0.00    -0.090 OA 
ENDBRANCH  11  15
ENDBRANCH   2   9
BRANCH   2  20
HETATM   20  C   UNL     1      -7.913  11.528  66.397  1.00  0.00    -0.046 A  
HETATM   21  C   UNL     1      -7.117  10.102  64.598  1.00  0.00    -0.124 A  
HETATM   22  C   UNL     1      -8.677   9.239  62.812  1.00  0.00    -0.218 C  
HETATM   23  C   UNL     1      -6.871  10.853  65.751  1.00  0.00     0.014 A  
HETATM   24  C   UNL     1      -9.457  10.673  64.727  1.00  0.00    -0.306 A  
HETATM   25  C   UNL     1      -8.410  10.011  64.072  1.00  0.00    -0.170 A  
HETATM   26  C   UNL     1      -9.211  11.424  65.883  1.00  0.00    -0.231 A  
ENDBRANCH   2  20
TORSDOF 5
ENDMDL
MODEL      198
REMARK 921   NORMALIZED FREE ENERGY PREDICTED BY IDOCK:   -1.69 KCAL/MOL
REMARK 922        TOTAL FREE ENERGY PREDICTED BY IDOCK:   -3.52 KCAL/MOL
REMARK 923 INTER-LIGAND FREE ENERGY PREDICTED BY IDOCK:   -2.76 KCAL/MOL
REMARK 924 INTRA-LIGAND FREE ENERGY PREDICTED BY IDOCK:   -0.76 KCAL/MOL
REMARK 927      BINDING AFFINITY PREDICTED BY RF-SCORE:    0.00 PKD
ROOT
HETATM    1  C   UNL     1      -8.497   4.163  69.769  1.00  0.00    -0.087 C  
HETATM    2  C   UNL     1      -8.525   4.249  71.120  1.00  0.00    -0.105 C  
ENDROOT
BRANCH   1   3
HETATM    3  C   UNL     1      -9.437   3.404  68.871  1.00  0.00    -0.131 C  
BRANCH   3   4
HETATM    4  N   UNL     1      -9.253   3.732  67.451  1.00  0.00    -0.168 NA 
HETATM    5  C   UNL     1      -7.535   4.381  65.913  1.00  0.00    -0.081 C  
HETATM    6  C   UNL     1      -8.755   5.272  65.785  1.00  0.00    -0.143 C  
HETATM    7  C   UNL     1      -7.908   3.360  66.985  1.00  0.00    -0.079 C  
HETATM    8  C   UNL     1      -9.414   5.155  67.146  1.00  0.00    -0.131 C  
ENDBRANCH   3   4
ENDBRANCH   1   3
BRANCH   2   9
HETATM    9  C   UNL     1      -7.449   5.043  71.757  1.00  0.00    -0.095 A  
HETATM   10  C   UNL     1      -5.531   5.191  73.179  1.00  0.00    -0.017 A  
HETATM   11  C   UNL     1      -6.362   7.080  71.966  1.00  0.00    -0.044 A  
HETATM   12  N   UNL     1      -7.367   6.352  71.416  1.00  0.00    -0.083 NA 
HETATM   13  C   UNL     1      -5.427   6.536  72.841  1.00  0.00    -0.037 A  
HETATM   14  C   UNL     1      -6.559   4.430  72.632  1.00  0.00    -0.045 A  
BRANCH  11  15
HETATM   15  C   UNL     1      -6.287   8.502  71.603  1.00  0.00    -0.064 C  
HETATM   16  C   UNL     1      -6.742   8.977  70.434  1.00  0.00    -0.052 C  
HETATM   17  C   UNL     1      -6.651  10.415  70.138  1.00  0.00    -0.146 C  
HETATM   18  O   UNL     1      -7.144  10.709  68.919  1.00  0.00    -0.066 OA 
HETATM   19  O   UNL     1      -6.192  11.253  70.897  1.00  0.00    -0.347 OA 
ENDBRANCH  11  15
ENDBRANCH   2   9
BRANCH   2  20
HETATM   20  C   UNL     1      -9.555   3.527  71.897  1.00  0.00    -0.218 A  
HETATM   21  C   UNL     1     -10.881   1.525  72.276  1.00  0.00    -0.033 A  
HETATM   22  C   UNL     1     -12.713   1.468  74.008  1.00  0.00     0.292 C  
HETATM   23  C   UNL     1      -9.868   2.198  71.586  1.00  0.00    -0.217 A  
HETATM   24  C   UNL     1     -11.274   3.494  73.613  1.00  0.00    -0.278 A  
HETATM   25  C   UNL     1     -11.597   2.170  73.290  1.00  0.00    -0.157 A  
HETATM   26  C   UNL     1     -10.258   4.167  72.923  1.00  0.00    -0.228 A  
ENDBRANCH   2  20
TORSDOF 5
ENDMDL
MODEL      199
REMARK 921   NORMALIZED FREE ENERGY PREDICTED BY IDOCK:   -1.49 KCAL/MOL
REMARK 922        TOTAL FREE ENERGY PREDICTED BY IDOCK:   -3.27 KCAL/MOL
REMARK 923 INTER-LIGAND FREE ENERGY PREDICTED BY IDOCK:   -2.47 KCAL/MOL
REMARK 924 INTRA-LIGAND FREE ENERGY PREDICTED BY IDOCK:   -0.80 KCAL/MOL
REMARK 927      BINDING AFFINITY PREDICTED BY RF-SCORE:    0.00 PKD
ROOT
HETATM    1  C   UNL     1      -7.763  14.818  68.241  1.00  0.00    -0.120 C  
HETATM    2  C   UNL     1      -7.616  13.497  68.499  1.00  0.00    -0.129 C  
ENDROOT
BRANCH   1   3
HETATM    3  C   UNL     1      -8.577  15.461  67.150  1.00  0.00    -0.210 C  
BRANCH   3   4
HETATM    4  N   UNL     1      -9.168  16.741  67.563  1.00  0.00    -0.214 NA 
HETATM    5  C   UNL     1     -11.234  17.646  68.371  1.00  0.00     0.411 C  
HETATM    6  C   UNL     1     -10.686  18.466  67.218  1.00  0.00    -0.389 C  
HETATM    7  C   UNL     1     -10.198  16.548  68.595  1.00  0.00    -0.264 C  
HETATM    8  C   UNL     1      -9.814  17.474  66.472  1.00  0.00    -0.310 C  
ENDBRANCH   3   4
ENDBRANCH   1   3
BRANCH   2   9
HETATM    9  C   UNL     1      -6.721  13.137  69.624  1.00  0.00     0.081 A  
HETATM   10  C   UNL     1      -5.280  13.771  71.425  1.00  0.00    -0.174 A  
HETATM   11  C   UNL     1      -5.814  11.482  70.970  1.00  0.00     0.157 A  
HETATM   12  N   UNL     1      -6.602  11.820  69.917  1.00  0.00    -0.064 NA 
HETATM   13  C   UNL     1      -5.146  12.424  71.746  1.00  0.00    -0.022 A  
HETATM   14  C   UNL     1      -6.078  14.136  70.346  1.00  0.00    -0.169 A  
BRANCH  11  15
HETATM   15  C   UNL     1      -5.678  10.051  71.274  1.00  0.00    -0.037 C  
HETATM   16  C   UNL     1      -6.724   9.212  71.299  1.00  0.00    -0.073 C  
HETATM   17  C   UNL     1      -6.518   7.786  71.595  1.00  0.00    -0.039 C  
HETATM   18  O   UNL     1      -7.676   7.099  71.589  1.00  0.00    -0.087 OA 
HETATM   19  O   UNL     1      -5.433   7.273  71.818  1.00  0.00    -0.035 OA 
ENDBRANCH  11  15
ENDBRANCH   2   9
BRANCH   2  20
HETATM   20  C   UNL     1      -8.280  12.487  67.649  1.00  0.00    -0.172 A  
HETATM   21  C   UNL     1     -10.304  11.355  66.924  1.00  0.00    -0.262 A  
HETATM   22  C   UNL     1     -10.222   9.397  65.335  1.00  0.00     0.377 C  
HETATM   23  C   UNL     1      -9.673  12.346  67.681  1.00  0.00    -0.195 A  
HETATM   24  C   UNL     1      -8.163  10.641  66.075  1.00  0.00    -0.158 A  
HETATM   25  C   UNL     1      -9.555  10.489  66.120  1.00  0.00    -0.237 A  
HETATM   26  C   UNL     1      -7.530  11.634  66.831  1.00  0.00    -0.131 A  
ENDBRANCH   2  20
TORSDOF 5
ENDMDL
MODEL      200
REMARK 921   NORMALIZED FREE ENERGY PREDICTED BY IDOCK:   -0.88 KCAL/MOL
REMARK 922        TOTAL FREE ENERGY PREDICTED BY IDOCK:   -2.47 KCAL/MOL
REMARK 923 INTER-LIGAND FREE ENERGY PREDICTED BY IDOCK:   -1.36 KCAL/MOL
REMARK 924 INTRA-LIGAND FREE ENERGY PREDICTED BY IDOCK:   -1.11 KCAL/MOL
REMARK 927      BINDING AFFINITY PREDICTED BY RF-SCORE:    0.00 PKD
ROOT
HETATM    1  C   UNL     1      -7.946  17.506  66.719  1.00  0.00    -0.273 C  
HETATM    2  C   UNL     1      -9.097  16.920  67.127  1.00  0.00    -0.228 C  
ENDROOT
BRANCH   1   3
HETATM    3  C   UNL     1      -7.156  17.219  65.470  1.00  0.00     0.841 C  
BRANCH   3   4
HETATM    4  N   UNL     1      -6.205  18.290  65.142  1.00  0.00    -0.307 NA 
HETATM    5  C   UNL     1      -5.129  20.177  66.152  1.00  0.00    -0.180 C  
HETATM    6  C   UNL     1      -5.740  20.542  64.812  1.00  0.00    -0.256 C  
HETATM    7  C   UNL     1      -5.420  18.688  66.320  1.00  0.00    -0.148 C  
HETATM    8  C   UNL     1      -6.839  19.511  64.640  1.00  0.00     0.408 C  
ENDBRANCH   3   4
ENDBRANCH   1   3
BRANCH   2   9
HETATM    9  C   UNL     1      -9.647  17.373  68.426  1.00  0.00    -0.292 A  
HETATM   10  C   UNL     1     -10.157  19.123  69.975  1.00  0.00     0.739 A  
HETATM   11  C   UNL     1     -10.763  16.844  70.387  1.00  0.00     0.369 A  
HETATM   12  N   UNL     1     -10.222  16.432  69.212  1.00  0.00    -0.266 NA 
HETATM   13  C   UNL     1     -10.755  18.173  70.798  1.00  0.00     2.316 A  
HETATM   14  C   UNL     1      -9.591  18.719  68.771  1.00  0.00    -0.411 A  
BRANCH  11  15
HETATM   15  C   UNL     1     -11.372  15.816  71.242  1.00  0.00    -0.437 C  
HETATM   16  C   UNL     1     -12.051  14.770  70.747  1.00  0.00    -0.374 C  
HETATM   17  C   UNL     1     -12.624  13.766  71.658  1.00  0.00    -0.279 C  
HETATM   18  O   UNL     1     -13.278  12.796  70.989  1.00  0.00    -0.063 OA 
HETATM   19  O   UNL     1     -12.523  13.794  72.873  1.00  0.00     0.008 OA 
ENDBRANCH  11  15
ENDBRANCH   2   9
BRANCH   2  20
HETATM   20  C   UNL     1      -9.717  15.843  66.326  1.00  0.00    -0.332 A  
HETATM   21  C   UNL     1     -11.270  15.144  64.593  1.00  0.00    -0.352 A  
HETATM   22  C   UNL     1     -11.704  12.704  64.120  1.00  0.00    -0.468 C  
HETATM   23  C   UNL     1     -10.634  16.158  65.316  1.00  0.00    -0.390 A  
HETATM   24  C   UNL     1     -10.067  13.485  65.863  1.00  0.00    -0.311 A  
HETATM   25  C   UNL     1     -10.997  13.799  64.865  1.00  0.00    -0.378 A  
HETATM   26  C   UNL     1      -9.429  14.499  66.587  1.00  0.00    -0.301 A  
ENDBRANCH   2  20
TORSDOF 5
ENDMDL
MODEL      201
REMARK 921   NORMALIZED FREE ENERGY PREDICTED BY IDOCK:   -0.47 KCAL/MOL
REMARK 922        TOTAL FREE ENERGY PREDICTED BY IDOCK:   -1.95 KCAL/MOL
REMARK 923 INTER-LIGAND FREE ENERGY PREDICTED BY IDOCK:   -0.94 KCAL/MOL
REMARK 924 INTRA-LIGAND FREE ENERGY PREDICTED BY IDOCK:   -1.00 KCAL/MOL
REMARK 927      BINDING AFFINITY PREDICTED BY RF-SCORE:    0.00 PKD
ROOT
HETATM    1  C   UNL     1      -9.468  17.479  67.513  1.00  0.00    -0.255 C  
HETATM    2  C   UNL     1     -10.082  16.313  67.824  1.00  0.00    -0.252 C  
ENDROOT
BRANCH   1   3
HETATM    3  C   UNL     1      -8.982  18.548  68.455  1.00  0.00    -0.323 C  
BRANCH   3   4
HETATM    4  N   UNL     1      -8.326  19.663  67.759  1.00  0.00    -0.304 NA 
HETATM    5  C   UNL     1      -8.251  20.705  65.603  1.00  0.00     0.536 C  
HETATM    6  C   UNL     1      -6.856  20.443  66.138  1.00  0.00    -0.277 C  
HETATM    7  C   UNL     1      -9.189  20.217  66.704  1.00  0.00    -0.351 C  
HETATM    8  C   UNL     1      -7.066  19.296  67.109  1.00  0.00    -0.203 C  
ENDBRANCH   3   4
ENDBRANCH   1   3
BRANCH   2   9
HETATM    9  C   UNL     1     -10.489  15.454  66.688  1.00  0.00    -0.293 A  
HETATM   10  C   UNL     1     -11.120  15.193  64.395  1.00  0.00    -0.124 A  
HETATM   11  C   UNL     1     -10.851  13.319  65.861  1.00  0.00    -0.277 A  
HETATM   12  N   UNL     1     -10.516  14.118  66.906  1.00  0.00    -0.271 NA 
HETATM   13  C   UNL     1     -11.152  13.816  64.597  1.00  0.00    -0.391 A  
HETATM   14  C   UNL     1     -10.786  16.027  65.455  1.00  0.00    -0.374 A  
BRANCH  11  15
HETATM   15  C   UNL     1     -10.892  11.872  66.109  1.00  0.00    -0.334 C  
HETATM   16  C   UNL     1      -9.820  11.079  65.959  1.00  0.00    -0.273 C  
HETATM   17  C   UNL     1      -9.925   9.638  66.239  1.00  0.00    -0.264 C  
HETATM   18  O   UNL     1      -8.758   8.999  66.025  1.00  0.00    -0.142 OA 
HETATM   19  O   UNL     1     -10.938   9.077  66.622  1.00  0.00     0.052 OA 
ENDBRANCH  11  15
ENDBRANCH   2   9
BRANCH   2  20
HETATM   20  C   UNL     1     -10.372  15.970  69.232  1.00  0.00    -0.251 A  
HETATM   21  C   UNL     1     -11.740  16.242  71.222  1.00  0.00    -0.396 A  
HETATM   22  C   UNL     1     -11.115  15.152  73.409  1.00  0.00     1.124 C  
HETATM   23  C   UNL     1     -11.491  16.515  69.873  1.00  0.00     0.059 A  
HETATM   24  C   UNL     1      -9.767  14.859  71.306  1.00  0.00     2.398 A  
HETATM   25  C   UNL     1     -10.877  15.418  71.951  1.00  0.00     0.196 A  
HETATM   26  C   UNL     1      -9.517  15.130  69.955  1.00  0.00     0.047 A  
ENDBRANCH   2  20
TORSDOF 5
ENDMDL
MODEL      202
REMARK 921   NORMALIZED FREE ENERGY PREDICTED BY IDOCK:    0.43 KCAL/MOL
REMARK 922        TOTAL FREE ENERGY PREDICTED BY IDOCK:   -0.78 KCAL/MOL
REMARK 923 INTER-LIGAND FREE ENERGY PREDICTED BY IDOCK:   -0.92 KCAL/MOL
REMARK 924 INTRA-LIGAND FREE ENERGY PREDICTED BY IDOCK:    0.14 KCAL/MOL
REMARK 927      BINDING AFFINITY PREDICTED BY RF-SCORE:    0.00 PKD
ROOT
HETATM    1  C   UNL     1     -11.420  13.243  70.293  1.00  0.00     0.046 C  
HETATM    2  C   UNL     1     -11.080  12.261  69.425  1.00  0.00    -0.166 C  
ENDROOT
BRANCH   1   3
HETATM    3  C   UNL     1     -11.585  14.712  70.008  1.00  0.00    -0.284 C  
BRANCH   3   4
HETATM    4  N   UNL     1     -10.300  15.411  69.870  1.00  0.00    -0.293 NA 
HETATM    5  C   UNL     1      -9.409  17.633  69.764  1.00  0.00     1.018 C  
HETATM    6  C   UNL     1      -8.862  16.765  68.647  1.00  0.00    -0.255 C  
HETATM    7  C   UNL     1     -10.318  16.707  70.568  1.00  0.00     0.811 C  
HETATM    8  C   UNL     1      -9.928  15.698  68.483  1.00  0.00    -0.211 C  
ENDBRANCH   3   4
ENDBRANCH   1   3
BRANCH   2   9
HETATM    9  C   UNL     1     -10.954  10.895  69.985  1.00  0.00    -0.151 A  
HETATM   10  C   UNL     1     -11.932   8.958  70.992  1.00  0.00    -0.307 A  
HETATM   11  C   UNL     1      -9.616   9.047  70.391  1.00  0.00    -0.208 A  
HETATM   12  N   UNL     1      -9.733  10.312  69.915  1.00  0.00    -0.151 NA 
HETATM   13  C   UNL     1     -10.687   8.340  70.928  1.00  0.00    -0.250 A  
HETATM   14  C   UNL     1     -12.070  10.257  70.516  1.00  0.00    -0.401 A  
BRANCH  11  15
HETATM   15  C   UNL     1      -8.286   8.426  70.326  1.00  0.00    -0.124 C  
HETATM   16  C   UNL     1      -8.109   7.101  70.205  1.00  0.00    -0.118 C  
HETATM   17  C   UNL     1      -6.749   6.544  70.129  1.00  0.00    -0.049 C  
HETATM   18  O   UNL     1      -6.762   5.201  70.022  1.00  0.00    -0.040 OA 
HETATM   19  O   UNL     1      -5.725   7.206  70.155  1.00  0.00    -0.023 OA 
ENDBRANCH  11  15
ENDBRANCH   2   9
BRANCH   2  20
HETATM   20  C   UNL     1     -10.797  12.576  68.009  1.00  0.00    -0.252 A  
HETATM   21  C   UNL     1      -9.316  12.456  66.086  1.00  0.00    -0.155 A  
HETATM   22  C   UNL     1      -9.847  13.667  63.937  1.00  0.00     1.866 C  
HETATM   23  C   UNL     1      -9.620  12.115  67.407  1.00  0.00    -0.177 A  
HETATM   24  C   UNL     1     -11.371  13.710  65.939  1.00  0.00    -0.317 A  
HETATM   25  C   UNL     1     -10.185  13.263  65.343  1.00  0.00    -0.304 A  
HETATM   26  C   UNL     1     -11.676  13.367  67.261  1.00  0.00    -0.424 A  
ENDBRANCH   2  20
TORSDOF 5
ENDMDL
MODEL      203
REMARK 921   NORMALIZED FREE ENERGY PREDICTED BY IDOCK:    0.92 KCAL/MOL
REMARK 922        TOTAL FREE ENERGY PREDICTED BY IDOCK:   -0.15 KCAL/MOL
REMARK 923 INTER-LIGAND FREE ENERGY PREDICTED BY IDOCK:   -0.11 KCAL/MOL
REMARK 924 INTRA-LIGAND FREE ENERGY PREDICTED BY IDOCK:   -0.04 KCAL/MOL
REMARK 927      BINDING AFFINITY PREDICTED BY RF-SCORE:    0.00 PKD
ROOT
HETATM    1  C   UNL     1      -9.084   9.488  70.281  1.00  0.00    -0.296 C  
HETATM    2  C   UNL     1     -10.210   9.893  69.648  1.00  0.00    -0.261 C  
ENDROOT
BRANCH   1   3
HETATM    3  C   UNL     1      -8.769   9.573  71.751  1.00  0.00     1.131 C  
BRANCH   3   4
HETATM    4  N   UNL     1      -7.783   8.572  72.179  1.00  0.00    -0.251 NA 
HETATM    5  C   UNL     1      -5.558   7.840  71.677  1.00  0.00    -0.035 C  
HETATM    6  C   UNL     1      -6.522   6.670  71.745  1.00  0.00    -0.049 C  
HETATM    7  C   UNL     1      -6.408   9.065  72.003  1.00  0.00    -0.001 C  
HETATM    8  C   UNL     1      -7.864   7.309  71.442  1.00  0.00    -0.096 C  
ENDBRANCH   3   4
ENDBRANCH   1   3
BRANCH   2   9
HETATM    9  C   UNL     1     -10.242   9.720  68.177  1.00  0.00    -0.186 A  
HETATM   10  C   UNL     1      -9.713   8.456  66.215  1.00  0.00    -0.278 A  
HETATM   11  C   UNL     1     -10.982  10.484  66.117  1.00  0.00     0.138 A  
HETATM   12  N   UNL     1     -10.915  10.653  67.463  1.00  0.00    -0.300 NA 
HETATM   13  C   UNL     1     -10.402   9.402  65.463  1.00  0.00     0.479 A  
HETATM   14  C   UNL     1      -9.628   8.617  67.594  1.00  0.00    -0.190 A  
BRANCH  11  15
HETATM   15  C   UNL     1     -11.702  11.507  65.347  1.00  0.00     0.134 C  
HETATM   16  C   UNL     1     -12.403  12.493  65.928  1.00  0.00    -0.155 C  
HETATM   17  C   UNL     1     -13.089  13.496  65.099  1.00  0.00    -0.043 C  
HETATM   18  O   UNL     1     -13.750  14.400  65.848  1.00  0.00     0.327 OA 
HETATM   19  O   UNL     1     -13.067  13.521  63.879  1.00  0.00    -0.138 OA 
ENDBRANCH  11  15
ENDBRANCH   2   9
BRANCH   2  20
HETATM   20  C   UNL     1     -11.311  10.526  70.404  1.00  0.00    -0.411 A  
HETATM   21  C   UNL     1     -12.998  12.265  70.598  1.00  0.00     0.120 A  
HETATM   22  C   UNL     1     -14.384  12.527  72.689  1.00  0.00     0.783 C  
HETATM   23  C   UNL     1     -11.994  11.623  69.866  1.00  0.00    -0.414 A  
HETATM   24  C   UNL     1     -12.664  10.712  72.413  1.00  0.00     0.438 A  
HETATM   25  C   UNL     1     -13.336  11.819  71.880  1.00  0.00    -0.401 A  
HETATM   26  C   UNL     1     -11.660  10.068  71.679  1.00  0.00    -0.154 A  
ENDBRANCH   2  20
TORSDOF 5
ENDMDL
MODEL      204
REMARK 921   NORMALIZED FREE ENERGY PREDICTED BY IDOCK:    3.42 KCAL/MOL
REMARK 922        TOTAL FREE ENERGY PREDICTED BY IDOCK:    3.08 KCAL/MOL
REMARK 923 INTER-LIGAND FREE ENERGY PREDICTED BY IDOCK:    2.61 KCAL/MOL
REMARK 924 INTRA-LIGAND FREE ENERGY PREDICTED BY IDOCK:    0.48 KCAL/MOL
REMARK 927      BINDING AFFINITY PREDICTED BY RF-SCORE:    0.00 PKD
ROOT
HETATM    1  C   UNL     1     -11.353  17.896  68.862  1.00  0.00     1.433 C  
HETATM    2  C   UNL     1     -10.752  16.717  69.151  1.00  0.00    -0.329 C  
ENDROOT
BRANCH   1   3
HETATM    3  C   UNL     1     -11.011  18.861  67.757  1.00  0.00    -0.154 C  
BRANCH   3   4
HETATM    4  N   UNL     1      -9.583  19.204  67.725  1.00  0.00    -0.304 NA 
HETATM    5  C   UNL     1      -7.923  20.320  69.043  1.00  0.00     0.369 C  
HETATM    6  C   UNL     1      -7.894  20.793  67.602  1.00  0.00    -0.190 C  
HETATM    7  C   UNL     1      -9.014  19.254  69.081  1.00  0.00    -0.137 C  
HETATM    8  C   UNL     1      -9.301  20.504  67.114  1.00  0.00    -0.376 C  
ENDBRANCH   3   4
ENDBRANCH   1   3
BRANCH   2   9
HETATM    9  C   UNL     1     -11.273  15.978  70.324  1.00  0.00    -0.389 A  
HETATM   10  C   UNL     1     -11.968  15.924  72.613  1.00  0.00    -0.610 A  
HETATM   11  C   UNL     1     -12.121  14.003  71.193  1.00  0.00    -0.274 A  
HETATM   12  N   UNL     1     -11.607  14.680  70.134  1.00  0.00    -0.273 NA 
HETATM   13  C   UNL     1     -12.320  14.589  72.438  1.00  0.00    -0.305 A  
HETATM   14  C   UNL     1     -11.433  16.631  71.542  1.00  0.00     0.066 A  
BRANCH  11  15
HETATM   15  C   UNL     1     -12.468  12.591  70.983  1.00  0.00    -0.353 C  
HETATM   16  C   UNL     1     -12.313  11.657  71.933  1.00  0.00     0.381 C  
HETATM   17  C   UNL     1     -12.695  10.262  71.664  1.00  0.00    -0.456 C  
HETATM   18  O   UNL     1     -12.461   9.463  72.724  1.00  0.00    -0.054 OA 
HETATM   19  O   UNL     1     -13.171   9.862  70.614  1.00  0.00    -0.245 OA 
ENDBRANCH  11  15
ENDBRANCH   2   9
BRANCH   2  20
HETATM   20  C   UNL     1      -9.599  16.247  68.355  1.00  0.00    -0.216 A  
HETATM   21  C   UNL     1      -7.255  15.619  68.222  1.00  0.00    -0.118 A  
HETATM   22  C   UNL     1      -6.158  15.083  66.014  1.00  0.00     5.866 C  
HETATM   23  C   UNL     1      -8.366  16.007  68.976  1.00  0.00    -0.243 A  
HETATM   24  C   UNL     1      -8.593  15.685  66.217  1.00  0.00    -0.265 A  
HETATM   25  C   UNL     1      -7.357  15.461  66.836  1.00  0.00     0.016 A  
HETATM   26  C   UNL     1      -9.707  16.073  66.971  1.00  0.00    -0.235 A  
ENDBRANCH   2  20
TORSDOF 5
ENDMDL
MODEL      205
REMARK 921   NORMALIZED FREE ENERGY PREDICTED BY IDOCK:    8.87 KCAL/MOL
REMARK 922        TOTAL FREE ENERGY PREDICTED BY IDOCK:   10.13 KCAL/MOL
REMARK 923 INTER-LIGAND FREE ENERGY PREDICTED BY IDOCK:    8.87 KCAL/MOL
REMARK 924 INTRA-LIGAND FREE ENERGY PREDICTED BY IDOCK:    1.26 KCAL/MOL
REMARK 927      BINDING AFFINITY PREDICTED BY RF-SCORE:    0.00 PKD
ROOT
HETATM    1  C   UNL     1     -11.990  13.351  69.639  1.00  0.00    -0.386 C  
HETATM    2  C   UNL     1     -11.778  12.786  68.426  1.00  0.00    -0.380 C  
ENDROOT
BRANCH   1   3
HETATM    3  C   UNL     1     -12.748  14.614  69.950  1.00  0.00    -0.085 C  
BRANCH   3   4
HETATM    4  N   UNL     1     -11.903  15.814  69.882  1.00  0.00    -0.352 NA 
HETATM    5  C   UNL     1     -10.099  16.731  68.600  1.00  0.00    -0.279 C  
HETATM    6  C   UNL     1      -9.824  16.832  70.088  1.00  0.00     0.952 C  
HETATM    7  C   UNL     1     -11.482  16.095  68.500  1.00  0.00    -0.324 C  
HETATM    8  C   UNL     1     -10.674  15.719  70.673  1.00  0.00    -0.173 C  
ENDBRANCH   3   4
ENDBRANCH   1   3
BRANCH   2   9
HETATM    9  C   UNL     1     -10.962  11.551  68.404  1.00  0.00    -0.221 A  
HETATM   10  C   UNL     1     -10.666   9.239  68.945  1.00  0.00    -0.182 A  
HETATM   11  C   UNL     1      -9.048  10.465  67.675  1.00  0.00    -0.138 A  
HETATM   12  N   UNL     1      -9.786  11.602  67.733  1.00  0.00    -0.175 NA 
HETATM   13  C   UNL     1      -9.455   9.270  68.260  1.00  0.00    -0.148 A  
HETATM   14  C   UNL     1     -11.432  10.397  69.023  1.00  0.00    -0.258 A  
BRANCH  11  15
HETATM   15  C   UNL     1      -7.767  10.532  66.959  1.00  0.00    -0.110 C  
HETATM   16  C   UNL     1      -7.224   9.471  66.343  1.00  0.00    -0.089 C  
HETATM   17  C   UNL     1      -5.945   9.609  65.629  1.00  0.00    -0.061 C  
HETATM   18  O   UNL     1      -5.547   8.444  65.082  1.00  0.00    -0.042 OA 
HETATM   19  O   UNL     1      -5.312  10.648  65.532  1.00  0.00    -0.103 OA 
ENDBRANCH  11  15
ENDBRANCH   2   9
BRANCH   2  20
HETATM   20  C   UNL     1     -12.298  13.426  67.199  1.00  0.00    -0.198 A  
HETATM   21  C   UNL     1     -12.155  13.798  64.802  1.00  0.00    -0.438 A  
HETATM   22  C   UNL     1     -13.660  15.450  63.633  1.00  0.00     3.715 C  
HETATM   23  C   UNL     1     -11.708  13.153  65.959  1.00  0.00    -0.424 A  
HETATM   24  C   UNL     1     -13.803  14.985  66.101  1.00  0.00     4.228 A  
HETATM   25  C   UNL     1     -13.201  14.724  64.864  1.00  0.00     0.865 A  
HETATM   26  C   UNL     1     -13.357  14.338  67.260  1.00  0.00     3.680 A  
ENDBRANCH   2  20
TORSDOF 5
ENDMDL
MODEL      206
REMARK 921   NORMALIZED FREE ENERGY PREDICTED BY IDOCK:   11.35 KCAL/MOL
REMARK 922        TOTAL FREE ENERGY PREDICTED BY IDOCK:   13.32 KCAL/MOL
REMARK 923 INTER-LIGAND FREE ENERGY PREDICTED BY IDOCK:   14.31 KCAL/MOL
REMARK 924 INTRA-LIGAND FREE ENERGY PREDICTED BY IDOCK:   -0.99 KCAL/MOL
REMARK 927      BINDING AFFINITY PREDICTED BY RF-SCORE:    0.00 PKD
ROOT
HETATM    1  C   UNL     1      -9.166   9.675  70.268  1.00  0.00    -0.285 C  
HETATM    2  C   UNL     1     -10.394   9.953  69.770  1.00  0.00    -0.278 C  
ENDROOT
BRANCH   1   3
HETATM    3  C   UNL     1      -8.600  10.067  71.607  1.00  0.00     2.954 C  
BRANCH   3   4
HETATM    4  N   UNL     1      -7.715   9.041  72.172  1.00  0.00    -0.328 NA 
HETATM    5  C   UNL     1      -7.321   7.867  74.223  1.00  0.00    -0.192 C  
HETATM    6  C   UNL     1      -6.031   8.420  73.648  1.00  0.00    -0.113 C  
HETATM    7  C   UNL     1      -8.397   8.259  73.215  1.00  0.00    -0.184 C  
HETATM    8  C   UNL     1      -6.503   9.581  72.792  1.00  0.00     0.730 C  
ENDBRANCH   3   4
ENDBRANCH   1   3
BRANCH   2   9
HETATM    9  C   UNL     1     -10.679   9.470  68.399  1.00  0.00    -0.186 A  
HETATM   10  C   UNL     1     -12.116   8.371  66.834  1.00  0.00     6.393 A  
HETATM   11  C   UNL     1     -10.041   9.366  66.173  1.00  0.00    -0.254 A  
HETATM   12  N   UNL     1      -9.772   9.772  67.440  1.00  0.00    -0.157 NA 
HETATM   13  C   UNL     1     -11.199   8.673  65.832  1.00  0.00     3.737 A  
HETATM   14  C   UNL     1     -11.853   8.772  68.139  1.00  0.00     2.541 A  
BRANCH  11  15
HETATM   15  C   UNL     1      -9.047   9.685  65.140  1.00  0.00    -0.279 C  
HETATM   16  C   UNL     1      -7.970  10.449  65.380  1.00  0.00    -0.147 C  
HETATM   17  C   UNL     1      -7.003  10.718  64.305  1.00  0.00     0.397 C  
HETATM   18  O   UNL     1      -5.995  11.508  64.722  1.00  0.00     0.788 OA 
HETATM   19  O   UNL     1      -7.087  10.280  63.169  1.00  0.00    -0.137 OA 
ENDBRANCH  11  15
ENDBRANCH   2   9
BRANCH   2  20
HETATM   20  C   UNL     1     -11.359  10.752  70.555  1.00  0.00    -0.289 A  
HETATM   21  C   UNL     1     -13.316  10.862  71.991  1.00  0.00    -0.394 A  
HETATM   22  C   UNL     1     -14.321  13.071  72.680  1.00  0.00     0.302 C  
HETATM   23  C   UNL     1     -12.364  10.114  71.292  1.00  0.00    -0.501 A  
HETATM   24  C   UNL     1     -12.264  12.898  71.242  1.00  0.00    -0.004 A  
HETATM   25  C   UNL     1     -13.279  12.260  71.965  1.00  0.00    -0.508 A  
HETATM   26  C   UNL     1     -11.309  12.150  70.544  1.00  0.00     0.704 A  
ENDBRANCH   2  20
TORSDOF 5
ENDMDL
MODEL      207
REMARK 921   NORMALIZED FREE ENERGY PREDICTED BY IDOCK:   38.27 KCAL/MOL
REMARK 922        TOTAL FREE ENERGY PREDICTED BY IDOCK:   48.11 KCAL/MOL
REMARK 923 INTER-LIGAND FREE ENERGY PREDICTED BY IDOCK:   45.17 KCAL/MOL
REMARK 924 INTRA-LIGAND FREE ENERGY PREDICTED BY IDOCK:    2.95 KCAL/MOL
REMARK 927      BINDING AFFINITY PREDICTED BY RF-SCORE:    0.00 PKD
ROOT
HETATM    1  C   UNL     1     -10.160  17.127  72.918  1.00  0.00     8.132 C  
HETATM    2  C   UNL     1     -10.783  17.005  71.722  1.00  0.00     2.287 C  
ENDROOT
BRANCH   1   3
HETATM    3  C   UNL     1      -8.982  18.001  73.262  1.00  0.00    13.210 C  
BRANCH   3   4
HETATM    4  N   UNL     1      -8.486  18.763  72.108  1.00  0.00     9.085 NA 
HETATM    5  C   UNL     1      -6.654  20.172  71.476  1.00  0.00     0.194 C  
HETATM    6  C   UNL     1      -7.985  20.794  71.097  1.00  0.00     2.784 C  
HETATM    7  C   UNL     1      -7.016  18.827  72.101  1.00  0.00     4.188 C  
HETATM    8  C   UNL     1      -8.957  20.149  72.067  1.00  0.00     2.676 C  
ENDBRANCH   3   4
ENDBRANCH   1   3
BRANCH   2   9
HETATM    9  C   UNL     1     -11.904  16.039  71.655  1.00  0.00    -0.507 A  
HETATM   10  C   UNL     1     -14.249  15.570  71.587  1.00  0.00    -0.523 A  
HETATM   11  C   UNL     1     -12.602  13.842  71.415  1.00  0.00    -0.348 A  
HETATM   12  N   UNL     1     -11.581  14.731  71.515  1.00  0.00    -0.297 NA 
HETATM   13  C   UNL     1     -13.940  14.222  71.441  1.00  0.00    -0.343 A  
HETATM   14  C   UNL     1     -13.217  16.495  71.699  1.00  0.00     2.174 A  
BRANCH  11  15
HETATM   15  C   UNL     1     -12.245  12.423  71.278  1.00  0.00     0.035 C  
HETATM   16  C   UNL     1     -12.691  11.478  72.119  1.00  0.00     0.108 C  
HETATM   17  C   UNL     1     -12.308  10.072  71.917  1.00  0.00    -0.261 C  
HETATM   18  O   UNL     1     -12.837   9.267  72.860  1.00  0.00    -0.196 OA 
HETATM   19  O   UNL     1     -11.602   9.668  71.008  1.00  0.00    -0.300 OA 
ENDBRANCH  11  15
ENDBRANCH   2   9
BRANCH   2  20
HETATM   20  C   UNL     1     -10.308  17.765  70.547  1.00  0.00     1.721 A  
HETATM   21  C   UNL     1      -8.951  17.890  68.535  1.00  0.00    -0.291 A  
HETATM   22  C   UNL     1      -8.736  20.034  67.223  1.00  0.00    -0.417 C  
HETATM   23  C   UNL     1      -9.452  17.162  69.618  1.00  0.00     0.516 A  
HETATM   24  C   UNL     1     -10.170  19.833  69.280  1.00  0.00    -0.225 A  
HETATM   25  C   UNL     1      -9.300  19.234  68.361  1.00  0.00    -0.422 A  
HETATM   26  C   UNL     1     -10.673  19.104  70.364  1.00  0.00     2.186 A  
ENDBRANCH   2  20
TORSDOF 5
ENDMDL
