MODEL        1
REMARK 921   NORMALIZED FREE ENERGY PREDICTED BY IDOCK:   -6.78 KCAL/MOL
REMARK 922        TOTAL FREE ENERGY PREDICTED BY IDOCK:   -8.59 KCAL/MOL
REMARK 923 INTER-LIGAND FREE ENERGY PREDICTED BY IDOCK:   -8.37 KCAL/MOL
REMARK 924 INTRA-LIGAND FREE ENERGY PREDICTED BY IDOCK:   -0.22 KCAL/MOL
REMARK 927      BINDING AFFINITY PREDICTED BY RF-SCORE:    0.00 PKD
ROOT
HETATM    1  N   UNL     1     -11.675  16.417  63.745  1.00  0.00    -1.498 NA 
HETATM    2  H2  UNL     1     -11.990  16.569  62.787  1.00  0.00     0.000 HD 
HETATM    3  H1  UNL     1     -11.269  17.189  64.274  1.00  0.00     0.000 HD 
HETATM    4  C   UNL     1     -11.796  15.190  64.310  1.00  0.00    -0.251 C  
HETATM    5  N   UNL     1     -12.313  14.207  63.636  1.00  0.00    -1.092 N  
HETATM    6  C   UNL     1     -12.469  12.950  64.238  1.00  0.00    -0.349 C  
HETATM    7  H   UNL     1     -12.605  14.348  62.669  1.00  0.00     0.000 HD 
HETATM    8  C   UNL     1     -12.063  12.879  65.650  1.00  0.00    -0.458 A  
HETATM    9  O   UNL     1     -12.915  11.981  63.632  1.00  0.00    -0.747 OA 
HETATM   10  C   UNL     1     -11.522  13.984  66.252  1.00  0.00    -0.351 A  
HETATM   11  N   UNL     1     -11.275  13.655  67.545  1.00  0.00    -0.284 NA 
HETATM   12  N   UNL     1     -11.337  15.145  65.604  1.00  0.00    -0.302 NA 
HETATM   13  C   UNL     1     -11.664  12.343  67.684  1.00  0.00    -0.346 A  
HETATM   14  N   UNL     1     -12.136  11.843  66.558  1.00  0.00    -0.464 NA 
ENDROOT
BRANCH  11  15
HETATM   15  C   UNL     1     -10.644  14.459  68.569  1.00  0.00    -0.255 C  
BRANCH  15  16
HETATM   16  O   UNL     1     -11.551  15.484  68.972  1.00  0.00    -0.322 OA 
BRANCH  16  17
HETATM   17  C   UNL     1     -11.215  15.983  70.272  1.00  0.00    -0.389 C  
BRANCH  17  18
HETATM   18  C   UNL     1     -12.336  15.629  71.244  1.00  0.00    -0.426 C  
HETATM   19  O   UNL     1     -13.595  15.688  70.579  1.00  0.00    -0.833 OA 
HETATM   20  H   UNL     1     -14.294  15.467  71.185  1.00  0.00     0.000 HD 
ENDBRANCH  17  18
ENDBRANCH  16  17
ENDBRANCH  15  16
ENDBRANCH  11  15
TORSDOF 4
ENDMDL
MODEL        2
REMARK 921   NORMALIZED FREE ENERGY PREDICTED BY IDOCK:   -6.52 KCAL/MOL
REMARK 922        TOTAL FREE ENERGY PREDICTED BY IDOCK:   -8.27 KCAL/MOL
REMARK 923 INTER-LIGAND FREE ENERGY PREDICTED BY IDOCK:   -7.69 KCAL/MOL
REMARK 924 INTRA-LIGAND FREE ENERGY PREDICTED BY IDOCK:   -0.58 KCAL/MOL
REMARK 927      BINDING AFFINITY PREDICTED BY RF-SCORE:    0.00 PKD
ROOT
HETATM    1  N   UNL     1     -11.569  16.465  63.830  1.00  0.00    -1.602 NA 
HETATM    2  H2  UNL     1     -11.946  16.660  62.903  1.00  0.00     0.000 HD 
HETATM    3  H1  UNL     1     -11.101  17.205  64.354  1.00  0.00     0.000 HD 
HETATM    4  C   UNL     1     -11.691  15.223  64.361  1.00  0.00    -0.285 C  
HETATM    5  N   UNL     1     -12.287  14.281  63.695  1.00  0.00    -1.109 N  
HETATM    6  C   UNL     1     -12.442  13.010  64.265  1.00  0.00    -0.315 C  
HETATM    7  H   UNL     1     -12.642  14.466  62.757  1.00  0.00     0.000 HD 
HETATM    8  C   UNL     1     -11.940  12.876  65.641  1.00  0.00    -0.440 A  
HETATM    9  O   UNL     1     -12.962  12.077  63.661  1.00  0.00    -0.747 OA 
HETATM   10  C   UNL     1     -11.321  13.942  66.238  1.00  0.00    -0.324 A  
HETATM   11  N   UNL     1     -10.994  13.560  67.499  1.00  0.00    -0.264 NA 
HETATM   12  N   UNL     1     -11.144  15.119  65.618  1.00  0.00    -0.341 NA 
HETATM   13  C   UNL     1     -11.416  12.257  67.622  1.00  0.00    -0.336 A  
HETATM   14  N   UNL     1     -11.984  11.812  66.517  1.00  0.00    -0.476 NA 
ENDROOT
BRANCH  11  15
HETATM   15  C   UNL     1     -10.265  14.307  68.500  1.00  0.00    -0.245 C  
BRANCH  15  16
HETATM   16  O   UNL     1     -11.185  14.764  69.492  1.00  0.00    -0.256 OA 
BRANCH  16  17
HETATM   17  C   UNL     1     -11.466  16.159  69.324  1.00  0.00    -0.304 C  
BRANCH  17  18
HETATM   18  C   UNL     1     -10.279  16.824  68.636  1.00  0.00    -0.298 C  
HETATM   19  O   UNL     1     -10.725  17.579  67.513  1.00  0.00    -0.349 OA 
HETATM   20  H   UNL     1      -9.986  17.994  67.084  1.00  0.00     0.000 HD 
ENDBRANCH  17  18
ENDBRANCH  16  17
ENDBRANCH  15  16
ENDBRANCH  11  15
TORSDOF 4
ENDMDL
MODEL        3
REMARK 921   NORMALIZED FREE ENERGY PREDICTED BY IDOCK:   -6.23 KCAL/MOL
REMARK 922        TOTAL FREE ENERGY PREDICTED BY IDOCK:   -7.91 KCAL/MOL
REMARK 923 INTER-LIGAND FREE ENERGY PREDICTED BY IDOCK:   -7.68 KCAL/MOL
REMARK 924 INTRA-LIGAND FREE ENERGY PREDICTED BY IDOCK:   -0.23 KCAL/MOL
REMARK 927      BINDING AFFINITY PREDICTED BY RF-SCORE:    0.00 PKD
ROOT
HETATM    1  N   UNL     1     -12.885  11.828  63.167  1.00  0.00    -0.879 NA 
HETATM    2  H2  UNL     1     -13.007  11.994  62.167  1.00  0.00     0.000 HD 
HETATM    3  H1  UNL     1     -13.029  10.893  63.547  1.00  0.00     0.000 HD 
HETATM    4  C   UNL     1     -12.533  12.852  63.983  1.00  0.00    -0.326 C  
HETATM    5  N   UNL     1     -12.349  14.043  63.499  1.00  0.00    -1.118 N  
HETATM    6  C   UNL     1     -11.949  15.089  64.342  1.00  0.00    -0.353 C  
HETATM    7  H   UNL     1     -12.496  14.218  62.504  1.00  0.00     0.000 HD 
HETATM    8  C   UNL     1     -11.716  14.707  65.743  1.00  0.00    -0.302 A  
HETATM    9  O   UNL     1     -11.801  16.239  63.940  1.00  0.00    -0.994 OA 
HETATM   10  C   UNL     1     -11.952  13.418  66.138  1.00  0.00    -0.413 A  
HETATM   11  N   UNL     1     -11.625  13.335  67.453  1.00  0.00    -0.331 NA 
HETATM   12  N   UNL     1     -12.397  12.471  65.296  1.00  0.00    -0.612 NA 
HETATM   13  C   UNL     1     -11.211  14.594  67.820  1.00  0.00    -0.308 A  
HETATM   14  N   UNL     1     -11.261  15.447  66.815  1.00  0.00    -0.256 NA 
ENDROOT
BRANCH  11  15
HETATM   15  C   UNL     1     -11.763  12.201  68.340  1.00  0.00    -0.332 C  
BRANCH  15  16
HETATM   16  O   UNL     1     -11.977  12.680  69.667  1.00  0.00    -0.315 OA 
BRANCH  16  17
HETATM   17  C   UNL     1     -12.244  11.596  70.565  1.00  0.00    -0.361 C  
BRANCH  17  18
HETATM   18  C   UNL     1     -11.458  10.371  70.110  1.00  0.00    -0.319 C  
HETATM   19  O   UNL     1     -12.233   9.192  70.307  1.00  0.00    -0.457 OA 
HETATM   20  H   UNL     1     -11.743   8.428  70.023  1.00  0.00     0.000 HD 
ENDBRANCH  17  18
ENDBRANCH  16  17
ENDBRANCH  15  16
ENDBRANCH  11  15
TORSDOF 4
ENDMDL
MODEL        4
REMARK 921   NORMALIZED FREE ENERGY PREDICTED BY IDOCK:   -6.18 KCAL/MOL
REMARK 922        TOTAL FREE ENERGY PREDICTED BY IDOCK:   -7.85 KCAL/MOL
REMARK 923 INTER-LIGAND FREE ENERGY PREDICTED BY IDOCK:   -7.69 KCAL/MOL
REMARK 924 INTRA-LIGAND FREE ENERGY PREDICTED BY IDOCK:   -0.16 KCAL/MOL
REMARK 927      BINDING AFFINITY PREDICTED BY RF-SCORE:    0.00 PKD
ROOT
HETATM    1  N   UNL     1     -12.595  11.678  62.929  1.00  0.00    -0.831 NA 
HETATM    2  H2  UNL     1     -12.655  11.889  61.933  1.00  0.00     0.000 HD 
HETATM    3  H1  UNL     1     -12.689  10.715  63.251  1.00  0.00     0.000 HD 
HETATM    4  C   UNL     1     -12.391  12.680  63.820  1.00  0.00    -0.478 C  
HETATM    5  N   UNL     1     -12.271  13.907  63.411  1.00  0.00    -1.102 N  
HETATM    6  C   UNL     1     -12.024  14.933  64.334  1.00  0.00    -0.394 C  
HETATM    7  H   UNL     1     -12.357  14.124  62.418  1.00  0.00     0.000 HD 
HETATM    8  C   UNL     1     -11.866  14.493  65.729  1.00  0.00    -0.327 A  
HETATM    9  O   UNL     1     -11.942  16.111  64.002  1.00  0.00    -0.897 OA 
HETATM   10  C   UNL     1     -12.023  13.169  66.040  1.00  0.00    -0.433 A  
HETATM   11  N   UNL     1     -11.789  13.039  67.371  1.00  0.00    -0.367 NA 
HETATM   12  N   UNL     1     -12.323  12.239  65.120  1.00  0.00    -0.532 NA 
HETATM   13  C   UNL     1     -11.510  14.305  67.831  1.00  0.00    -0.315 A  
HETATM   14  N   UNL     1     -11.556  15.206  66.868  1.00  0.00    -0.229 NA 
ENDROOT
BRANCH  11  15
HETATM   15  C   UNL     1     -11.899  11.850  68.188  1.00  0.00    -0.270 C  
BRANCH  15  16
HETATM   16  O   UNL     1     -12.217  12.240  69.523  1.00  0.00    -0.212 OA 
BRANCH  16  17
HETATM   17  C   UNL     1     -11.974  11.165  70.440  1.00  0.00    -0.378 C  
BRANCH  17  18
HETATM   18  C   UNL     1     -12.891  11.328  71.647  1.00  0.00    -0.405 C  
HETATM   19  O   UNL     1     -13.164  10.055  72.228  1.00  0.00    -0.519 OA 
HETATM   20  H   UNL     1     -13.735  10.157  72.981  1.00  0.00     0.000 HD 
ENDBRANCH  17  18
ENDBRANCH  16  17
ENDBRANCH  15  16
ENDBRANCH  11  15
TORSDOF 4
ENDMDL
MODEL        5
REMARK 921   NORMALIZED FREE ENERGY PREDICTED BY IDOCK:   -6.11 KCAL/MOL
REMARK 922        TOTAL FREE ENERGY PREDICTED BY IDOCK:   -7.76 KCAL/MOL
REMARK 923 INTER-LIGAND FREE ENERGY PREDICTED BY IDOCK:   -7.12 KCAL/MOL
REMARK 924 INTRA-LIGAND FREE ENERGY PREDICTED BY IDOCK:   -0.64 KCAL/MOL
REMARK 927      BINDING AFFINITY PREDICTED BY RF-SCORE:    0.00 PKD
ROOT
HETATM    1  N   UNL     1     -12.866  11.641  62.967  1.00  0.00    -0.889 NA 
HETATM    2  H2  UNL     1     -13.001  11.840  61.976  1.00  0.00     0.000 HD 
HETATM    3  H1  UNL     1     -12.946  10.683  63.308  1.00  0.00     0.000 HD 
HETATM    4  C   UNL     1     -12.579  12.651  63.825  1.00  0.00    -0.339 C  
HETATM    5  N   UNL     1     -12.476  13.871  63.392  1.00  0.00    -1.110 N  
HETATM    6  C   UNL     1     -12.144  14.905  64.278  1.00  0.00    -0.353 C  
HETATM    7  H   UNL     1     -12.637  14.077  62.405  1.00  0.00     0.000 HD 
HETATM    8  C   UNL     1     -11.882  14.481  65.662  1.00  0.00    -0.326 A  
HETATM    9  O   UNL     1     -12.073  16.078  63.924  1.00  0.00    -0.880 OA 
HETATM   10  C   UNL     1     -12.032  13.163  66.002  1.00  0.00    -0.433 A  
HETATM   11  N   UNL     1     -11.696  13.048  67.312  1.00  0.00    -0.361 NA 
HETATM   12  N   UNL     1     -12.415  12.226  65.122  1.00  0.00    -0.545 NA 
HETATM   13  C   UNL     1     -11.365  14.315  67.732  1.00  0.00    -0.307 A  
HETATM   14  N   UNL     1     -11.474  15.204  66.763  1.00  0.00    -0.258 NA 
ENDROOT
BRANCH  11  15
HETATM   15  C   UNL     1     -11.756  11.871  68.152  1.00  0.00    -0.320 C  
BRANCH  15  16
HETATM   16  O   UNL     1     -10.513  11.177  68.059  1.00  0.00    -0.176 OA 
BRANCH  16  17
HETATM   17  C   UNL     1     -10.702   9.855  67.539  1.00  0.00    -0.272 C  
BRANCH  17  18
HETATM   18  C   UNL     1      -9.676   9.604  66.440  1.00  0.00    -0.224 C  
HETATM   19  O   UNL     1     -10.151  10.122  65.200  1.00  0.00    -0.326 OA 
HETATM   20  H   UNL     1      -9.511   9.965  64.515  1.00  0.00     0.000 HD 
ENDBRANCH  17  18
ENDBRANCH  16  17
ENDBRANCH  15  16
ENDBRANCH  11  15
TORSDOF 4
ENDMDL
MODEL        6
REMARK 921   NORMALIZED FREE ENERGY PREDICTED BY IDOCK:   -5.92 KCAL/MOL
REMARK 922        TOTAL FREE ENERGY PREDICTED BY IDOCK:   -7.53 KCAL/MOL
REMARK 923 INTER-LIGAND FREE ENERGY PREDICTED BY IDOCK:   -7.25 KCAL/MOL
REMARK 924 INTRA-LIGAND FREE ENERGY PREDICTED BY IDOCK:   -0.28 KCAL/MOL
REMARK 927      BINDING AFFINITY PREDICTED BY RF-SCORE:    0.00 PKD
ROOT
HETATM    1  N   UNL     1     -11.644  16.517  63.850  1.00  0.00    -1.578 NA 
HETATM    2  H2  UNL     1     -12.026  16.704  62.923  1.00  0.00     0.000 HD 
HETATM    3  H1  UNL     1     -11.179  17.263  64.367  1.00  0.00     0.000 HD 
HETATM    4  C   UNL     1     -11.758  15.278  64.391  1.00  0.00    -0.285 C  
HETATM    5  N   UNL     1     -12.352  14.328  63.733  1.00  0.00    -1.063 N  
HETATM    6  C   UNL     1     -12.498  13.060  64.313  1.00  0.00    -0.315 C  
HETATM    7  H   UNL     1     -12.711  14.505  62.795  1.00  0.00     0.000 HD 
HETATM    8  C   UNL     1     -11.990  12.939  65.687  1.00  0.00    -0.440 A  
HETATM    9  O   UNL     1     -13.016  12.120  63.717  1.00  0.00    -0.753 OA 
HETATM   10  C   UNL     1     -11.374  14.012  66.275  1.00  0.00    -0.333 A  
HETATM   11  N   UNL     1     -11.041  13.641  67.537  1.00  0.00    -0.271 NA 
HETATM   12  N   UNL     1     -11.206  15.185  65.645  1.00  0.00    -0.324 NA 
HETATM   13  C   UNL     1     -11.456  12.337  67.671  1.00  0.00    -0.336 A  
HETATM   14  N   UNL     1     -12.025  11.881  66.571  1.00  0.00    -0.545 NA 
ENDROOT
BRANCH  11  15
HETATM   15  C   UNL     1     -10.312  14.399  68.531  1.00  0.00    -0.248 C  
BRANCH  15  16
HETATM   16  O   UNL     1      -9.042  13.784  68.736  1.00  0.00    -0.108 OA 
BRANCH  16  17
HETATM   17  C   UNL     1      -8.023  14.770  68.940  1.00  0.00    -0.160 C  
BRANCH  17  18
HETATM   18  C   UNL     1      -7.456  15.183  67.586  1.00  0.00    -0.181 C  
HETATM   19  O   UNL     1      -7.033  14.032  66.861  1.00  0.00    -0.309 OA 
HETATM   20  H   UNL     1      -6.680  14.289  66.017  1.00  0.00     0.000 HD 
ENDBRANCH  17  18
ENDBRANCH  16  17
ENDBRANCH  15  16
ENDBRANCH  11  15
TORSDOF 4
ENDMDL
MODEL        7
REMARK 921   NORMALIZED FREE ENERGY PREDICTED BY IDOCK:   -5.85 KCAL/MOL
REMARK 922        TOTAL FREE ENERGY PREDICTED BY IDOCK:   -7.44 KCAL/MOL
REMARK 923 INTER-LIGAND FREE ENERGY PREDICTED BY IDOCK:   -7.25 KCAL/MOL
REMARK 924 INTRA-LIGAND FREE ENERGY PREDICTED BY IDOCK:   -0.19 KCAL/MOL
REMARK 927      BINDING AFFINITY PREDICTED BY RF-SCORE:    0.00 PKD
ROOT
HETATM    1  N   UNL     1     -12.222  10.077  70.319  1.00  0.00    -0.474 NA 
HETATM    2  H2  UNL     1     -12.705   9.388  70.897  1.00  0.00     0.000 HD 
HETATM    3  H1  UNL     1     -11.653   9.768  69.531  1.00  0.00     0.000 HD 
HETATM    4  C   UNL     1     -12.343  11.398  70.601  1.00  0.00    -0.373 C  
HETATM    5  N   UNL     1     -13.068  11.791  71.603  1.00  0.00    -0.415 N  
HETATM    6  C   UNL     1     -13.217  13.160  71.867  1.00  0.00    -0.431 C  
HETATM    7  H   UNL     1     -13.530  11.104  72.199  1.00  0.00     0.000 HD 
HETATM    8  C   UNL     1     -12.551  14.056  70.911  1.00  0.00    -0.361 A  
HETATM    9  O   UNL     1     -13.860  13.579  72.824  1.00  0.00    -0.730 OA 
HETATM   10  C   UNL     1     -11.804  13.522  69.895  1.00  0.00    -0.316 A  
HETATM   11  N   UNL     1     -11.340  14.559  69.151  1.00  0.00    -0.262 NA 
HETATM   12  N   UNL     1     -11.645  12.200  69.729  1.00  0.00    -0.289 NA 
HETATM   13  C   UNL     1     -11.812  15.700  69.756  1.00  0.00    -0.363 A  
HETATM   14  N   UNL     1     -12.539  15.432  70.824  1.00  0.00    -0.412 NA 
ENDROOT
BRANCH  11  15
HETATM   15  C   UNL     1     -10.450  14.515  68.012  1.00  0.00    -0.236 C  
BRANCH  15  16
HETATM   16  O   UNL     1     -11.232  14.450  66.821  1.00  0.00    -0.318 OA 
BRANCH  16  17
HETATM   17  C   UNL     1     -10.652  15.251  65.783  1.00  0.00    -0.347 C  
BRANCH  17  18
HETATM   18  C   UNL     1     -11.642  15.358  64.628  1.00  0.00    -0.311 C  
HETATM   19  O   UNL     1     -11.456  16.591  63.938  1.00  0.00    -1.608 OA 
HETATM   20  H   UNL     1     -12.073  16.657  63.218  1.00  0.00     0.000 HD 
ENDBRANCH  17  18
ENDBRANCH  16  17
ENDBRANCH  15  16
ENDBRANCH  11  15
TORSDOF 4
ENDMDL
MODEL        8
REMARK 921   NORMALIZED FREE ENERGY PREDICTED BY IDOCK:   -5.74 KCAL/MOL
REMARK 922        TOTAL FREE ENERGY PREDICTED BY IDOCK:   -7.30 KCAL/MOL
REMARK 923 INTER-LIGAND FREE ENERGY PREDICTED BY IDOCK:   -7.11 KCAL/MOL
REMARK 924 INTRA-LIGAND FREE ENERGY PREDICTED BY IDOCK:   -0.19 KCAL/MOL
REMARK 927      BINDING AFFINITY PREDICTED BY RF-SCORE:    0.00 PKD
ROOT
HETATM    1  N   UNL     1     -13.089  12.097  63.830  1.00  0.00    -0.755 NA 
HETATM    2  H2  UNL     1     -13.277  12.139  62.828  1.00  0.00     0.000 HD 
HETATM    3  H1  UNL     1     -13.292  11.242  64.348  1.00  0.00     0.000 HD 
HETATM    4  C   UNL     1     -12.571  13.177  64.465  1.00  0.00    -0.278 C  
HETATM    5  N   UNL     1     -12.313  14.265  63.805  1.00  0.00    -1.063 N  
HETATM    6  C   UNL     1     -11.744  15.365  64.462  1.00  0.00    -0.277 C  
HETATM    7  H   UNL     1     -12.524  14.320  62.809  1.00  0.00     0.000 HD 
HETATM    8  C   UNL     1     -11.433  15.152  65.884  1.00  0.00    -0.159 A  
HETATM    9  O   UNL     1     -11.517  16.427  63.891  1.00  0.00    -1.063 OA 
HETATM   10  C   UNL     1     -11.761  13.960  66.473  1.00  0.00    -0.393 A  
HETATM   11  N   UNL     1     -11.335  14.020  67.761  1.00  0.00    -0.288 NA 
HETATM   12  N   UNL     1     -12.365  12.964  65.807  1.00  0.00    -0.550 NA 
HETATM   13  C   UNL     1     -10.770  15.264  67.916  1.00  0.00    -0.275 A  
HETATM   14  N   UNL     1     -10.820  15.975  66.805  1.00  0.00    -0.253 NA 
ENDROOT
BRANCH  11  15
HETATM   15  C   UNL     1     -11.509  13.037  68.808  1.00  0.00    -0.298 C  
BRANCH  15  16
HETATM   16  O   UNL     1     -12.622  13.418  69.614  1.00  0.00    -0.102 OA 
BRANCH  16  17
HETATM   17  C   UNL     1     -12.220  13.633  70.972  1.00  0.00    -0.291 C  
BRANCH  17  18
HETATM   18  C   UNL     1     -13.250  12.998  71.900  1.00  0.00    -0.430 C  
HETATM   19  O   UNL     1     -14.093  14.003  72.457  1.00  0.00    -0.629 OA 
HETATM   20  H   UNL     1     -14.735  13.606  73.035  1.00  0.00     0.000 HD 
ENDBRANCH  17  18
ENDBRANCH  16  17
ENDBRANCH  15  16
ENDBRANCH  11  15
TORSDOF 4
ENDMDL
MODEL        9
REMARK 921   NORMALIZED FREE ENERGY PREDICTED BY IDOCK:   -5.71 KCAL/MOL
REMARK 922        TOTAL FREE ENERGY PREDICTED BY IDOCK:   -7.27 KCAL/MOL
REMARK 923 INTER-LIGAND FREE ENERGY PREDICTED BY IDOCK:   -6.72 KCAL/MOL
REMARK 924 INTRA-LIGAND FREE ENERGY PREDICTED BY IDOCK:   -0.55 KCAL/MOL
REMARK 927      BINDING AFFINITY PREDICTED BY RF-SCORE:    0.00 PKD
ROOT
HETATM    1  N   UNL     1     -12.901  12.020  63.081  1.00  0.00    -0.805 NA 
HETATM    2  H2  UNL     1     -13.503  12.260  62.293  1.00  0.00     0.000 HD 
HETATM    3  H1  UNL     1     -12.810  11.046  63.372  1.00  0.00     0.000 HD 
HETATM    4  C   UNL     1     -12.227  12.996  63.738  1.00  0.00    -0.460 C  
HETATM    5  N   UNL     1     -12.343  14.236  63.368  1.00  0.00    -1.126 N  
HETATM    6  C   UNL     1     -11.615  15.236  64.028  1.00  0.00     0.125 C  
HETATM    7  H   UNL     1     -12.965  14.482  62.597  1.00  0.00     0.000 HD 
HETATM    8  C   UNL     1     -10.713  14.756  65.086  1.00  0.00    -0.415 A  
HETATM    9  O   UNL     1     -11.721  16.424  63.742  1.00  0.00    -1.049 OA 
HETATM   10  C   UNL     1     -10.683  13.422  65.392  1.00  0.00    -0.300 A  
HETATM   11  N   UNL     1      -9.750  13.255  66.364  1.00  0.00    -0.275 NA 
HETATM   12  N   UNL     1     -11.453  12.517  64.767  1.00  0.00    -0.312 NA 
HETATM   13  C   UNL     1      -9.251  14.508  66.629  1.00  0.00    -0.266 A  
HETATM   14  N   UNL     1      -9.815  15.437  65.881  1.00  0.00    -0.328 NA 
ENDROOT
BRANCH  11  15
HETATM   15  C   UNL     1      -9.399  12.041  67.068  1.00  0.00    -0.191 C  
BRANCH  15  16
HETATM   16  O   UNL     1      -9.808  12.165  68.429  1.00  0.00    -0.209 OA 
BRANCH  16  17
HETATM   17  C   UNL     1     -11.208  11.892  68.568  1.00  0.00    -0.256 C  
BRANCH  17  18
HETATM   18  C   UNL     1     -11.869  13.055  69.300  1.00  0.00    -0.316 C  
HETATM   19  O   UNL     1     -12.352  14.012  68.362  1.00  0.00    -0.533 OA 
HETATM   20  H   UNL     1     -12.764  14.737  68.818  1.00  0.00     0.000 HD 
ENDBRANCH  17  18
ENDBRANCH  16  17
ENDBRANCH  15  16
ENDBRANCH  11  15
TORSDOF 4
ENDMDL
MODEL       10
REMARK 921   NORMALIZED FREE ENERGY PREDICTED BY IDOCK:   -5.67 KCAL/MOL
REMARK 922        TOTAL FREE ENERGY PREDICTED BY IDOCK:   -7.22 KCAL/MOL
REMARK 923 INTER-LIGAND FREE ENERGY PREDICTED BY IDOCK:   -7.07 KCAL/MOL
REMARK 924 INTRA-LIGAND FREE ENERGY PREDICTED BY IDOCK:   -0.14 KCAL/MOL
REMARK 927      BINDING AFFINITY PREDICTED BY RF-SCORE:    0.00 PKD
ROOT
HETATM    1  N   UNL     1     -13.797  15.948  72.972  1.00  0.00    -0.659 NA 
HETATM    2  H2  UNL     1     -14.171  15.813  73.912  1.00  0.00     0.000 HD 
HETATM    3  H1  UNL     1     -13.691  16.892  72.599  1.00  0.00     0.000 HD 
HETATM    4  C   UNL     1     -13.442  14.873  72.226  1.00  0.00    -0.409 C  
HETATM    5  N   UNL     1     -13.576  13.672  72.701  1.00  0.00    -0.549 N  
HETATM    6  C   UNL     1     -13.174  12.567  71.937  1.00  0.00    -0.392 C  
HETATM    7  H   UNL     1     -13.974  13.532  73.629  1.00  0.00     0.000 HD 
HETATM    8  C   UNL     1     -12.565  12.893  70.639  1.00  0.00    -0.177 A  
HETATM    9  O   UNL     1     -13.315  11.412  72.326  1.00  0.00    -0.410 OA 
HETATM   10  C   UNL     1     -12.486  14.202  70.242  1.00  0.00    -0.353 A  
HETATM   11  N   UNL     1     -11.857  14.218  69.039  1.00  0.00    -0.320 NA 
HETATM   12  N   UNL     1     -12.948  15.216  70.990  1.00  0.00    -0.397 NA 
HETATM   13  C   UNL     1     -11.586  12.904  68.736  1.00  0.00    -0.311 A  
HETATM   14  N   UNL     1     -12.007  12.080  69.676  1.00  0.00    -0.308 NA 
ENDROOT
BRANCH  11  15
HETATM   15  C   UNL     1     -11.596  15.352  68.180  1.00  0.00    -0.319 C  
BRANCH  15  16
HETATM   16  O   UNL     1     -10.816  14.915  67.068  1.00  0.00    -0.301 OA 
BRANCH  16  17
HETATM   17  C   UNL     1     -11.538  15.080  65.841  1.00  0.00    -0.165 C  
BRANCH  17  18
HETATM   18  C   UNL     1     -10.802  16.088  64.965  1.00  0.00    -0.404 C  
HETATM   19  O   UNL     1     -11.628  16.483  63.873  1.00  0.00    -1.598 OA 
HETATM   20  H   UNL     1     -11.169  17.111  63.327  1.00  0.00     0.000 HD 
ENDBRANCH  17  18
ENDBRANCH  16  17
ENDBRANCH  15  16
ENDBRANCH  11  15
TORSDOF 4
ENDMDL
MODEL       11
REMARK 921   NORMALIZED FREE ENERGY PREDICTED BY IDOCK:   -5.66 KCAL/MOL
REMARK 922        TOTAL FREE ENERGY PREDICTED BY IDOCK:   -7.21 KCAL/MOL
REMARK 923 INTER-LIGAND FREE ENERGY PREDICTED BY IDOCK:   -6.57 KCAL/MOL
REMARK 924 INTRA-LIGAND FREE ENERGY PREDICTED BY IDOCK:   -0.64 KCAL/MOL
REMARK 927      BINDING AFFINITY PREDICTED BY RF-SCORE:    0.00 PKD
ROOT
HETATM    1  N   UNL     1     -10.848  16.718  69.797  1.00  0.00    -0.375 NA 
HETATM    2  H2  UNL     1     -10.848  17.708  70.044  1.00  0.00     0.000 HD 
HETATM    3  H1  UNL     1     -10.248  16.384  69.043  1.00  0.00     0.000 HD 
HETATM    4  C   UNL     1     -11.644  15.854  70.473  1.00  0.00    -0.381 C  
HETATM    5  N   UNL     1     -12.407  16.279  71.433  1.00  0.00    -0.515 N  
HETATM    6  C   UNL     1     -13.201  15.374  72.152  1.00  0.00    -0.424 C  
HETATM    7  H   UNL     1     -12.430  17.273  71.665  1.00  0.00     0.000 HD 
HETATM    8  C   UNL     1     -13.046  13.964  71.765  1.00  0.00    -0.377 A  
HETATM    9  O   UNL     1     -13.967  15.732  73.041  1.00  0.00    -0.526 OA 
HETATM   10  C   UNL     1     -12.213  13.637  70.728  1.00  0.00    -0.347 A  
HETATM   11  N   UNL     1     -12.230  12.285  70.611  1.00  0.00    -0.357 NA 
HETATM   12  N   UNL     1     -11.526  14.557  70.033  1.00  0.00    -0.266 NA 
HETATM   13  C   UNL     1     -13.092  11.832  71.581  1.00  0.00    -0.338 A  
HETATM   14  N   UNL     1     -13.607  12.819  72.290  1.00  0.00    -0.542 NA 
ENDROOT
BRANCH  11  15
HETATM   15  C   UNL     1     -11.568  11.464  69.621  1.00  0.00    -0.330 C  
BRANCH  15  16
HETATM   16  O   UNL     1     -12.267  11.586  68.383  1.00  0.00    -0.540 OA 
BRANCH  16  17
HETATM   17  C   UNL     1     -11.413  12.127  67.366  1.00  0.00    -0.345 C  
BRANCH  17  18
HETATM   18  C   UNL     1     -12.211  13.119  66.526  1.00  0.00    -0.291 C  
HETATM   19  O   UNL     1     -12.309  14.367  67.207  1.00  0.00    -0.617 OA 
HETATM   20  H   UNL     1     -12.806  14.985  66.683  1.00  0.00     0.000 HD 
ENDBRANCH  17  18
ENDBRANCH  16  17
ENDBRANCH  15  16
ENDBRANCH  11  15
TORSDOF 4
ENDMDL
MODEL       12
REMARK 921   NORMALIZED FREE ENERGY PREDICTED BY IDOCK:   -5.65 KCAL/MOL
REMARK 922        TOTAL FREE ENERGY PREDICTED BY IDOCK:   -7.20 KCAL/MOL
REMARK 923 INTER-LIGAND FREE ENERGY PREDICTED BY IDOCK:   -6.97 KCAL/MOL
REMARK 924 INTRA-LIGAND FREE ENERGY PREDICTED BY IDOCK:   -0.23 KCAL/MOL
REMARK 927      BINDING AFFINITY PREDICTED BY RF-SCORE:    0.00 PKD
ROOT
HETATM    1  N   UNL     1     -13.862  16.005  73.199  1.00  0.00    -0.668 NA 
HETATM    2  H2  UNL     1     -14.237  15.744  74.111  1.00  0.00     0.000 HD 
HETATM    3  H1  UNL     1     -13.804  16.988  72.936  1.00  0.00     0.000 HD 
HETATM    4  C   UNL     1     -13.442  15.041  72.342  1.00  0.00    -0.430 C  
HETATM    5  N   UNL     1     -13.516  13.789  72.676  1.00  0.00    -0.561 N  
HETATM    6  C   UNL     1     -13.047  12.800  71.800  1.00  0.00    -0.356 C  
HETATM    7  H   UNL     1     -13.915  13.523  73.577  1.00  0.00     0.000 HD 
HETATM    8  C   UNL     1     -12.444  13.303  70.556  1.00  0.00    -0.260 A  
HETATM    9  O   UNL     1     -13.130  11.602  72.053  1.00  0.00    -0.478 OA 
HETATM   10  C   UNL     1     -12.431  14.650  70.311  1.00  0.00    -0.346 A  
HETATM   11  N   UNL     1     -11.791  14.835  69.128  1.00  0.00    -0.304 NA 
HETATM   12  N   UNL     1     -12.954  15.547  71.161  1.00  0.00    -0.480 NA 
HETATM   13  C   UNL     1     -11.447  13.581  68.683  1.00  0.00    -0.308 A  
HETATM   14  N   UNL     1     -11.833  12.634  69.517  1.00  0.00    -0.318 NA 
ENDROOT
BRANCH  11  15
HETATM   15  C   UNL     1     -11.584  16.072  68.406  1.00  0.00    -0.279 C  
BRANCH  15  16
HETATM   16  O   UNL     1     -10.314  16.017  67.758  1.00  0.00    -0.265 OA 
BRANCH  16  17
HETATM   17  C   UNL     1     -10.351  16.705  66.502  1.00  0.00    -0.299 C  
BRANCH  17  18
HETATM   18  C   UNL     1     -10.889  15.758  65.434  1.00  0.00    -0.364 C  
HETATM   19  O   UNL     1     -11.221  16.488  64.256  1.00  0.00    -1.251 OA 
HETATM   20  H   UNL     1     -11.556  15.897  63.591  1.00  0.00     0.000 HD 
ENDBRANCH  17  18
ENDBRANCH  16  17
ENDBRANCH  15  16
ENDBRANCH  11  15
TORSDOF 4
ENDMDL
MODEL       13
REMARK 921   NORMALIZED FREE ENERGY PREDICTED BY IDOCK:   -5.65 KCAL/MOL
REMARK 922        TOTAL FREE ENERGY PREDICTED BY IDOCK:   -7.20 KCAL/MOL
REMARK 923 INTER-LIGAND FREE ENERGY PREDICTED BY IDOCK:   -6.94 KCAL/MOL
REMARK 924 INTRA-LIGAND FREE ENERGY PREDICTED BY IDOCK:   -0.25 KCAL/MOL
REMARK 927      BINDING AFFINITY PREDICTED BY RF-SCORE:    0.00 PKD
ROOT
HETATM    1  N   UNL     1     -13.008   9.082  71.243  1.00  0.00    -0.476 NA 
HETATM    2  H2  UNL     1     -13.490   8.673  72.043  1.00  0.00     0.000 HD 
HETATM    3  H1  UNL     1     -12.650   8.478  70.503  1.00  0.00     0.000 HD 
HETATM    4  C   UNL     1     -12.847  10.426  71.167  1.00  0.00    -0.414 C  
HETATM    5  N   UNL     1     -13.303  11.196  72.108  1.00  0.00    -0.577 N  
HETATM    6  C   UNL     1     -13.165  12.587  72.006  1.00  0.00    -0.419 C  
HETATM    7  H   UNL     1     -13.762  10.788  72.923  1.00  0.00     0.000 HD 
HETATM    8  C   UNL     1     -12.536  13.062  70.764  1.00  0.00    -0.241 A  
HETATM    9  O   UNL     1     -13.544  13.353  72.886  1.00  0.00    -0.608 OA 
HETATM   10  C   UNL     1     -12.087  12.152  69.845  1.00  0.00    -0.253 A  
HETATM   11  N   UNL     1     -11.592  12.854  68.795  1.00  0.00    -0.289 NA 
HETATM   12  N   UNL     1     -12.189  10.826  70.028  1.00  0.00    -0.331 NA 
HETATM   13  C   UNL     1     -11.745  14.181  69.120  1.00  0.00    -0.327 A  
HETATM   14  N   UNL     1     -12.304  14.342  70.304  1.00  0.00    -0.338 NA 
ENDROOT
BRANCH  11  15
HETATM   15  C   UNL     1     -10.941  12.348  67.606  1.00  0.00    -0.236 C  
BRANCH  15  16
HETATM   16  O   UNL     1     -11.937  12.055  66.627  1.00  0.00    -0.614 OA 
BRANCH  16  17
HETATM   17  C   UNL     1     -11.572  12.593  65.350  1.00  0.00    -0.363 C  
BRANCH  17  18
HETATM   18  C   UNL     1     -12.377  13.864  65.100  1.00  0.00    -0.449 C  
HETATM   19  O   UNL     1     -12.438  14.137  63.702  1.00  0.00    -1.009 OA 
HETATM   20  H   UNL     1     -12.940  14.929  63.546  1.00  0.00     0.000 HD 
ENDBRANCH  17  18
ENDBRANCH  16  17
ENDBRANCH  15  16
ENDBRANCH  11  15
TORSDOF 4
ENDMDL
MODEL       14
REMARK 921   NORMALIZED FREE ENERGY PREDICTED BY IDOCK:   -5.64 KCAL/MOL
REMARK 922        TOTAL FREE ENERGY PREDICTED BY IDOCK:   -7.18 KCAL/MOL
REMARK 923 INTER-LIGAND FREE ENERGY PREDICTED BY IDOCK:   -7.02 KCAL/MOL
REMARK 924 INTRA-LIGAND FREE ENERGY PREDICTED BY IDOCK:   -0.17 KCAL/MOL
REMARK 927      BINDING AFFINITY PREDICTED BY RF-SCORE:    0.00 PKD
ROOT
HETATM    1  N   UNL     1     -12.407  13.801  63.293  1.00  0.00    -1.124 NA 
HETATM    2  H2  UNL     1     -12.854  12.995  62.854  1.00  0.00     0.000 HD 
HETATM    3  H1  UNL     1     -12.254  14.653  62.753  1.00  0.00     0.000 HD 
HETATM    4  C   UNL     1     -12.020  13.735  64.591  1.00  0.00    -0.416 C  
HETATM    5  N   UNL     1     -12.215  12.650  65.278  1.00  0.00    -0.472 N  
HETATM    6  C   UNL     1     -11.845  12.601  66.630  1.00  0.00    -0.380 C  
HETATM    7  H   UNL     1     -12.637  11.834  64.835  1.00  0.00     0.000 HD 
HETATM    8  C   UNL     1     -11.298  13.853  67.173  1.00  0.00    -0.327 A  
HETATM    9  O   UNL     1     -11.973  11.588  67.310  1.00  0.00    -0.605 OA 
HETATM   10  C   UNL     1     -11.131  14.931  66.346  1.00  0.00    -0.342 A  
HETATM   11  N   UNL     1     -10.650  15.948  67.105  1.00  0.00    -0.315 NA 
HETATM   12  N   UNL     1     -11.445  14.899  65.041  1.00  0.00    -0.373 NA 
HETATM   13  C   UNL     1     -10.525  15.445  68.378  1.00  0.00    -0.239 A  
HETATM   14  N   UNL     1     -10.899  14.182  68.452  1.00  0.00    -0.247 NA 
ENDROOT
BRANCH  11  15
HETATM   15  C   UNL     1     -10.248  17.271  66.678  1.00  0.00    -0.319 C  
BRANCH  15  16
HETATM   16  O   UNL     1     -10.688  18.219  67.650  1.00  0.00    -0.419 OA 
BRANCH  16  17
HETATM   17  C   UNL     1     -10.680  19.546  67.108  1.00  0.00    -0.482 C  
BRANCH  17  18
HETATM   18  C   UNL     1      -9.266  20.110  67.199  1.00  0.00    -0.383 C  
HETATM   19  O   UNL     1      -8.704  20.232  65.895  1.00  0.00    -0.572 OA 
HETATM   20  H   UNL     1      -7.823  20.583  65.952  1.00  0.00     0.000 HD 
ENDBRANCH  17  18
ENDBRANCH  16  17
ENDBRANCH  15  16
ENDBRANCH  11  15
TORSDOF 4
ENDMDL
MODEL       15
REMARK 921   NORMALIZED FREE ENERGY PREDICTED BY IDOCK:   -5.64 KCAL/MOL
REMARK 922        TOTAL FREE ENERGY PREDICTED BY IDOCK:   -7.18 KCAL/MOL
REMARK 923 INTER-LIGAND FREE ENERGY PREDICTED BY IDOCK:   -6.97 KCAL/MOL
REMARK 924 INTRA-LIGAND FREE ENERGY PREDICTED BY IDOCK:   -0.21 KCAL/MOL
REMARK 927      BINDING AFFINITY PREDICTED BY RF-SCORE:    0.00 PKD
ROOT
HETATM    1  N   UNL     1     -12.473  15.275  63.792  1.00  0.00    -0.948 NA 
HETATM    2  H2  UNL     1     -12.483  15.327  62.773  1.00  0.00     0.000 HD 
HETATM    3  H1  UNL     1     -12.808  16.064  64.345  1.00  0.00     0.000 HD 
HETATM    4  C   UNL     1     -12.015  14.156  64.406  1.00  0.00    -0.457 C  
HETATM    5  N   UNL     1     -11.588  13.150  63.703  1.00  0.00    -0.630 N  
HETATM    6  C   UNL     1     -11.149  11.983  64.344  1.00  0.00    -0.342 C  
HETATM    7  H   UNL     1     -11.572  13.210  62.685  1.00  0.00     0.000 HD 
HETATM    8  C   UNL     1     -11.270  11.991  65.809  1.00  0.00    -0.334 A  
HETATM    9  O   UNL     1     -10.702  11.022  63.726  1.00  0.00    -0.362 OA 
HETATM   10  C   UNL     1     -11.728  13.117  66.441  1.00  0.00    -0.379 A  
HETATM   11  N   UNL     1     -11.773  12.841  67.769  1.00  0.00    -0.351 NA 
HETATM   12  N   UNL     1     -12.074  14.231  65.777  1.00  0.00    -0.407 NA 
HETATM   13  C   UNL     1     -11.321  11.549  67.903  1.00  0.00    -0.303 A  
HETATM   14  N   UNL     1     -11.003  11.011  66.741  1.00  0.00    -0.251 NA 
ENDROOT
BRANCH  11  15
HETATM   15  C   UNL     1     -12.123  13.728  68.857  1.00  0.00    -0.313 C  
BRANCH  15  16
HETATM   16  O   UNL     1     -12.185  12.970  70.064  1.00  0.00    -0.299 OA 
BRANCH  16  17
HETATM   17  C   UNL     1     -12.539  13.805  71.174  1.00  0.00    -0.373 C  
BRANCH  17  18
HETATM   18  C   UNL     1     -12.901  15.193  70.654  1.00  0.00    -0.388 C  
HETATM   19  O   UNL     1     -14.280  15.460  70.892  1.00  0.00    -0.833 OA 
HETATM   20  H   UNL     1     -14.505  16.324  70.568  1.00  0.00     0.000 HD 
ENDBRANCH  17  18
ENDBRANCH  16  17
ENDBRANCH  15  16
ENDBRANCH  11  15
TORSDOF 4
ENDMDL
MODEL       16
REMARK 921   NORMALIZED FREE ENERGY PREDICTED BY IDOCK:   -5.59 KCAL/MOL
REMARK 922        TOTAL FREE ENERGY PREDICTED BY IDOCK:   -7.12 KCAL/MOL
REMARK 923 INTER-LIGAND FREE ENERGY PREDICTED BY IDOCK:   -6.88 KCAL/MOL
REMARK 924 INTRA-LIGAND FREE ENERGY PREDICTED BY IDOCK:   -0.24 KCAL/MOL
REMARK 927      BINDING AFFINITY PREDICTED BY RF-SCORE:    0.00 PKD
ROOT
HETATM    1  N   UNL     1     -12.371  10.011  70.451  1.00  0.00    -0.474 NA 
HETATM    2  H2  UNL     1     -12.838   9.371  71.095  1.00  0.00     0.000 HD 
HETATM    3  H1  UNL     1     -11.842   9.641  69.662  1.00  0.00     0.000 HD 
HETATM    4  C   UNL     1     -12.458  11.350  70.649  1.00  0.00    -0.327 C  
HETATM    5  N   UNL     1     -13.133  11.822  71.653  1.00  0.00    -0.415 N  
HETATM    6  C   UNL     1     -13.248  13.208  71.831  1.00  0.00    -0.431 C  
HETATM    7  H   UNL     1     -13.578  11.184  72.314  1.00  0.00     0.000 HD 
HETATM    8  C   UNL     1     -12.612  14.026  70.789  1.00  0.00    -0.360 A  
HETATM    9  O   UNL     1     -13.841  13.701  72.785  1.00  0.00    -0.727 OA 
HETATM   10  C   UNL     1     -11.919  13.412  69.779  1.00  0.00    -0.330 A  
HETATM   11  N   UNL     1     -11.472  14.388  68.949  1.00  0.00    -0.271 NA 
HETATM   12  N   UNL     1     -11.788  12.079  69.696  1.00  0.00    -0.328 NA 
HETATM   13  C   UNL     1     -11.900  15.576  69.495  1.00  0.00    -0.372 A  
HETATM   14  N   UNL     1     -12.583  15.393  70.609  1.00  0.00    -0.416 NA 
ENDROOT
BRANCH  11  15
HETATM   15  C   UNL     1     -10.635  14.253  67.777  1.00  0.00    -0.253 C  
BRANCH  15  16
HETATM   16  O   UNL     1     -11.255  14.935  66.688  1.00  0.00    -0.341 OA 
BRANCH  16  17
HETATM   17  C   UNL     1     -12.197  14.084  66.022  1.00  0.00    -0.458 C  
BRANCH  17  18
HETATM   18  C   UNL     1     -11.826  13.995  64.546  1.00  0.00    -0.434 C  
HETATM   19  O   UNL     1     -12.042  15.252  63.911  1.00  0.00    -0.947 OA 
HETATM   20  H   UNL     1     -11.811  15.197  62.991  1.00  0.00     0.000 HD 
ENDBRANCH  17  18
ENDBRANCH  16  17
ENDBRANCH  15  16
ENDBRANCH  11  15
TORSDOF 4
ENDMDL
MODEL       17
REMARK 921   NORMALIZED FREE ENERGY PREDICTED BY IDOCK:   -5.57 KCAL/MOL
REMARK 922        TOTAL FREE ENERGY PREDICTED BY IDOCK:   -7.09 KCAL/MOL
REMARK 923 INTER-LIGAND FREE ENERGY PREDICTED BY IDOCK:   -6.50 KCAL/MOL
REMARK 924 INTRA-LIGAND FREE ENERGY PREDICTED BY IDOCK:   -0.60 KCAL/MOL
REMARK 927      BINDING AFFINITY PREDICTED BY RF-SCORE:    0.00 PKD
ROOT
HETATM    1  N   UNL     1      -8.653  16.100  67.067  1.00  0.00    -0.189 NA 
HETATM    2  H2  UNL     1      -8.343  17.068  66.980  1.00  0.00     0.000 HD 
HETATM    3  H1  UNL     1      -8.212  15.485  67.751  1.00  0.00     0.000 HD 
HETATM    4  C   UNL     1      -9.652  15.637  66.275  1.00  0.00    -0.308 C  
HETATM    5  N   UNL     1     -10.215  16.420  65.405  1.00  0.00    -0.262 N  
HETATM    6  C   UNL     1     -11.271  15.945  64.614  1.00  0.00    -0.351 C  
HETATM    7  H   UNL     1      -9.889  17.380  65.297  1.00  0.00     0.000 HD 
HETATM    8  C   UNL     1     -11.690  14.564  64.896  1.00  0.00    -0.402 A  
HETATM    9  O   UNL     1     -11.808  16.633  63.753  1.00  0.00    -0.933 OA 
HETATM   10  C   UNL     1     -11.012  13.833  65.835  1.00  0.00    -0.283 A  
HETATM   11  N   UNL     1     -11.624  12.624  65.919  1.00  0.00    -0.374 NA 
HETATM   12  N   UNL     1      -9.965  14.321  66.517  1.00  0.00    -0.272 NA 
HETATM   13  C   UNL     1     -12.654  12.656  65.008  1.00  0.00    -0.430 A  
HETATM   14  N   UNL     1     -12.717  13.809  64.369  1.00  0.00    -0.656 NA 
ENDROOT
BRANCH  11  15
HETATM   15  C   UNL     1     -11.240  11.479  66.716  1.00  0.00    -0.285 C  
BRANCH  15  16
HETATM   16  O   UNL     1     -12.049  11.448  67.891  1.00  0.00    -0.646 OA 
BRANCH  16  17
HETATM   17  C   UNL     1     -11.299  11.864  69.039  1.00  0.00    -0.279 C  
BRANCH  17  18
HETATM   18  C   UNL     1     -11.981  13.077  69.663  1.00  0.00    -0.302 C  
HETATM   19  O   UNL     1     -12.345  14.009  68.648  1.00  0.00    -0.525 OA 
HETATM   20  H   UNL     1     -12.770  14.765  69.037  1.00  0.00     0.000 HD 
ENDBRANCH  17  18
ENDBRANCH  16  17
ENDBRANCH  15  16
ENDBRANCH  11  15
TORSDOF 4
ENDMDL
MODEL       18
REMARK 921   NORMALIZED FREE ENERGY PREDICTED BY IDOCK:   -5.56 KCAL/MOL
REMARK 922        TOTAL FREE ENERGY PREDICTED BY IDOCK:   -7.08 KCAL/MOL
REMARK 923 INTER-LIGAND FREE ENERGY PREDICTED BY IDOCK:   -6.85 KCAL/MOL
REMARK 924 INTRA-LIGAND FREE ENERGY PREDICTED BY IDOCK:   -0.22 KCAL/MOL
REMARK 927      BINDING AFFINITY PREDICTED BY RF-SCORE:    0.00 PKD
ROOT
HETATM    1  N   UNL     1     -12.675  15.850  71.090  1.00  0.00    -0.548 NA 
HETATM    2  H2  UNL     1     -12.784  16.833  70.840  1.00  0.00     0.000 HD 
HETATM    3  H1  UNL     1     -12.831  15.552  72.053  1.00  0.00     0.000 HD 
HETATM    4  C   UNL     1     -12.323  14.948  70.142  1.00  0.00    -0.327 C  
HETATM    5  N   UNL     1     -12.124  15.328  68.916  1.00  0.00    -0.579 N  
HETATM    6  C   UNL     1     -11.796  14.383  67.933  1.00  0.00    -0.349 C  
HETATM    7  H   UNL     1     -12.207  16.314  68.668  1.00  0.00     0.000 HD 
HETATM    8  C   UNL     1     -11.758  12.988  68.396  1.00  0.00    -0.351 A  
HETATM    9  O   UNL     1     -11.561  14.698  66.771  1.00  0.00    -0.365 OA 
HETATM   10  C   UNL     1     -11.977  12.711  69.719  1.00  0.00    -0.295 A  
HETATM   11  N   UNL     1     -11.921  11.362  69.860  1.00  0.00    -0.336 NA 
HETATM   12  N   UNL     1     -12.225  13.666  70.629  1.00  0.00    -0.358 NA 
HETATM   13  C   UNL     1     -11.652  10.861  68.609  1.00  0.00    -0.303 A  
HETATM   14  N   UNL     1     -11.540  11.815  67.704  1.00  0.00    -0.481 NA 
ENDROOT
BRANCH  11  15
HETATM   15  C   UNL     1     -12.021  10.584  71.076  1.00  0.00    -0.364 C  
BRANCH  15  16
HETATM   16  O   UNL     1     -12.108   9.202  70.731  1.00  0.00    -0.254 OA 
BRANCH  16  17
HETATM   17  C   UNL     1     -12.535   8.421  71.853  1.00  0.00    -0.347 C  
BRANCH  17  18
HETATM   18  C   UNL     1     -14.037   8.605  72.043  1.00  0.00    -0.453 C  
HETATM   19  O   UNL     1     -14.312   9.045  73.370  1.00  0.00    -1.143 OA 
HETATM   20  H   UNL     1     -15.248   9.160  73.488  1.00  0.00     0.000 HD 
ENDBRANCH  17  18
ENDBRANCH  16  17
ENDBRANCH  15  16
ENDBRANCH  11  15
TORSDOF 4
ENDMDL
MODEL       19
REMARK 921   NORMALIZED FREE ENERGY PREDICTED BY IDOCK:   -5.53 KCAL/MOL
REMARK 922        TOTAL FREE ENERGY PREDICTED BY IDOCK:   -7.05 KCAL/MOL
REMARK 923 INTER-LIGAND FREE ENERGY PREDICTED BY IDOCK:   -6.46 KCAL/MOL
REMARK 924 INTRA-LIGAND FREE ENERGY PREDICTED BY IDOCK:   -0.59 KCAL/MOL
REMARK 927      BINDING AFFINITY PREDICTED BY RF-SCORE:    0.00 PKD
ROOT
HETATM    1  N   UNL     1     -11.527  11.766  67.081  1.00  0.00    -0.456 NA 
HETATM    2  H2  UNL     1     -11.872  10.868  66.739  1.00  0.00     0.000 HD 
HETATM    3  H1  UNL     1     -11.130  11.834  68.018  1.00  0.00     0.000 HD 
HETATM    4  C   UNL     1     -11.598  12.862  66.287  1.00  0.00    -0.372 C  
HETATM    5  N   UNL     1     -12.103  12.777  65.093  1.00  0.00    -0.424 N  
HETATM    6  C   UNL     1     -12.140  13.907  64.264  1.00  0.00    -0.440 C  
HETATM    7  H   UNL     1     -12.472  11.887  64.759  1.00  0.00     0.000 HD 
HETATM    8  C   UNL     1     -11.530  15.118  64.832  1.00  0.00    -0.374 A  
HETATM    9  O   UNL     1     -12.641  13.885  63.145  1.00  0.00    -0.775 OA 
HETATM   10  C   UNL     1     -11.036  15.088  66.109  1.00  0.00    -0.334 A  
HETATM   11  N   UNL     1     -10.505  16.312  66.362  1.00  0.00    -0.306 NA 
HETATM   12  N   UNL     1     -11.086  13.991  66.881  1.00  0.00    -0.298 NA 
HETATM   13  C   UNL     1     -10.711  17.056  65.225  1.00  0.00    -0.096 A  
HETATM   14  N   UNL     1     -11.333  16.369  64.286  1.00  0.00    -0.942 NA 
ENDROOT
BRANCH  11  15
HETATM   15  C   UNL     1      -9.925  16.799  67.595  1.00  0.00    -0.262 C  
BRANCH  15  16
HETATM   16  O   UNL     1     -10.946  16.859  68.590  1.00  0.00    -0.330 OA 
BRANCH  16  17
HETATM   17  C   UNL     1     -10.449  16.419  69.860  1.00  0.00    -0.201 C  
BRANCH  17  18
HETATM   18  C   UNL     1     -11.363  15.324  70.397  1.00  0.00    -0.296 C  
HETATM   19  O   UNL     1     -12.418  15.070  69.473  1.00  0.00    -0.549 OA 
HETATM   20  H   UNL     1     -12.988  14.388  69.808  1.00  0.00     0.000 HD 
ENDBRANCH  17  18
ENDBRANCH  16  17
ENDBRANCH  15  16
ENDBRANCH  11  15
TORSDOF 4
ENDMDL
MODEL       20
REMARK 921   NORMALIZED FREE ENERGY PREDICTED BY IDOCK:   -5.53 KCAL/MOL
REMARK 922        TOTAL FREE ENERGY PREDICTED BY IDOCK:   -7.04 KCAL/MOL
REMARK 923 INTER-LIGAND FREE ENERGY PREDICTED BY IDOCK:   -6.87 KCAL/MOL
REMARK 924 INTRA-LIGAND FREE ENERGY PREDICTED BY IDOCK:   -0.17 KCAL/MOL
REMARK 927      BINDING AFFINITY PREDICTED BY RF-SCORE:    0.00 PKD
ROOT
HETATM    1  N   UNL     1     -13.729  14.197  72.831  1.00  0.00    -0.633 NA 
HETATM    2  H2  UNL     1     -14.165  13.914  73.710  1.00  0.00     0.000 HD 
HETATM    3  H1  UNL     1     -13.647  15.187  72.601  1.00  0.00     0.000 HD 
HETATM    4  C   UNL     1     -13.262  13.254  71.976  1.00  0.00    -0.446 C  
HETATM    5  N   UNL     1     -13.367  11.993  72.268  1.00  0.00    -0.546 N  
HETATM    6  C   UNL     1     -12.850  11.025  71.396  1.00  0.00    -0.443 C  
HETATM    7  H   UNL     1     -13.826  11.707  73.133  1.00  0.00     0.000 HD 
HETATM    8  C   UNL     1     -12.163  11.558  70.209  1.00  0.00    -0.332 A  
HETATM    9  O   UNL     1     -12.959   9.822  71.609  1.00  0.00    -0.356 OA 
HETATM   10  C   UNL     1     -12.124  12.911  70.004  1.00  0.00    -0.286 A  
HETATM   11  N   UNL     1     -11.408  13.124  68.871  1.00  0.00    -0.272 NA 
HETATM   12  N   UNL     1     -12.695  13.789  70.844  1.00  0.00    -0.336 NA 
HETATM   13  C   UNL     1     -11.045  11.879  68.413  1.00  0.00    -0.244 A  
HETATM   14  N   UNL     1     -11.491  10.912  69.193  1.00  0.00    -0.277 NA 
ENDROOT
BRANCH  11  15
HETATM   15  C   UNL     1     -11.144  14.378  68.201  1.00  0.00    -0.264 C  
BRANCH  15  16
HETATM   16  O   UNL     1     -11.867  14.402  66.971  1.00  0.00    -0.391 OA 
BRANCH  16  17
HETATM   17  C   UNL     1     -11.241  15.278  66.026  1.00  0.00    -0.231 C  
BRANCH  17  18
HETATM   18  C   UNL     1     -11.884  15.073  64.659  1.00  0.00    -0.375 C  
HETATM   19  O   UNL     1     -11.710  16.238  63.857  1.00  0.00    -1.441 OA 
HETATM   20  H   UNL     1     -12.111  16.110  63.005  1.00  0.00     0.000 HD 
ENDBRANCH  17  18
ENDBRANCH  16  17
ENDBRANCH  15  16
ENDBRANCH  11  15
TORSDOF 4
ENDMDL
MODEL       21
REMARK 921   NORMALIZED FREE ENERGY PREDICTED BY IDOCK:   -5.52 KCAL/MOL
REMARK 922        TOTAL FREE ENERGY PREDICTED BY IDOCK:   -7.04 KCAL/MOL
REMARK 923 INTER-LIGAND FREE ENERGY PREDICTED BY IDOCK:   -6.72 KCAL/MOL
REMARK 924 INTRA-LIGAND FREE ENERGY PREDICTED BY IDOCK:   -0.32 KCAL/MOL
REMARK 927      BINDING AFFINITY PREDICTED BY RF-SCORE:    0.00 PKD
ROOT
HETATM    1  N   UNL     1      -9.035  11.416  62.946  1.00  0.00    -0.525 NA 
HETATM    2  H2  UNL     1      -9.085  10.740  62.183  1.00  0.00     0.000 HD 
HETATM    3  H1  UNL     1      -8.127  11.733  63.284  1.00  0.00     0.000 HD 
HETATM    4  C   UNL     1     -10.177  11.887  63.505  1.00  0.00    -0.457 C  
HETATM    5  N   UNL     1     -11.334  11.484  63.075  1.00  0.00    -0.834 N  
HETATM    6  C   UNL     1     -12.510  12.003  63.634  1.00  0.00    -0.525 C  
HETATM    7  H   UNL     1     -11.387  10.788  62.330  1.00  0.00     0.000 HD 
HETATM    8  C   UNL     1     -12.311  13.036  64.660  1.00  0.00    -0.422 A  
HETATM    9  O   UNL     1     -13.625  11.625  63.288  1.00  0.00    -0.232 OA 
HETATM   10  C   UNL     1     -11.038  13.374  65.038  1.00  0.00    -0.319 A  
HETATM   11  N   UNL     1     -11.144  14.365  65.960  1.00  0.00    -0.318 NA 
HETATM   12  N   UNL     1      -9.948  12.795  64.511  1.00  0.00    -0.208 NA 
HETATM   13  C   UNL     1     -12.491  14.587  66.125  1.00  0.00    -0.138 A  
HETATM   14  N   UNL     1     -13.222  13.797  65.361  1.00  0.00    -0.662 NA 
ENDROOT
BRANCH  11  15
HETATM   15  C   UNL     1     -10.086  15.008  66.708  1.00  0.00    -0.254 C  
BRANCH  15  16
HETATM   16  O   UNL     1     -10.539  16.293  67.132  1.00  0.00    -0.312 OA 
BRANCH  16  17
HETATM   17  C   UNL     1      -9.662  17.324  66.664  1.00  0.00    -0.288 C  
BRANCH  17  18
HETATM   18  C   UNL     1     -10.488  18.394  65.958  1.00  0.00    -0.374 C  
HETATM   19  O   UNL     1     -11.125  17.842  64.810  1.00  0.00    -0.852 OA 
HETATM   20  H   UNL     1     -11.640  18.509  64.370  1.00  0.00     0.000 HD 
ENDBRANCH  17  18
ENDBRANCH  16  17
ENDBRANCH  15  16
ENDBRANCH  11  15
TORSDOF 4
ENDMDL
MODEL       22
REMARK 921   NORMALIZED FREE ENERGY PREDICTED BY IDOCK:   -5.43 KCAL/MOL
REMARK 922        TOTAL FREE ENERGY PREDICTED BY IDOCK:   -6.93 KCAL/MOL
REMARK 923 INTER-LIGAND FREE ENERGY PREDICTED BY IDOCK:   -6.75 KCAL/MOL
REMARK 924 INTRA-LIGAND FREE ENERGY PREDICTED BY IDOCK:   -0.18 KCAL/MOL
REMARK 927      BINDING AFFINITY PREDICTED BY RF-SCORE:    0.00 PKD
ROOT
HETATM    1  N   UNL     1     -14.408   9.188  72.861  1.00  0.00    -1.054 NA 
HETATM    2  H2  UNL     1     -14.630   8.584  73.653  1.00  0.00     0.000 HD 
HETATM    3  H1  UNL     1     -15.101   9.856  72.523  1.00  0.00     0.000 HD 
HETATM    4  C   UNL     1     -13.194   9.100  72.265  1.00  0.00    -0.461 C  
HETATM    5  N   UNL     1     -12.311   8.251  72.695  1.00  0.00    -0.592 N  
HETATM    6  C   UNL     1     -11.045   8.190  72.096  1.00  0.00    -0.321 C  
HETATM    7  H   UNL     1     -12.539   7.627  73.470  1.00  0.00     0.000 HD 
HETATM    8  C   UNL     1     -10.813   9.173  71.027  1.00  0.00    -0.291 A  
HETATM    9  O   UNL     1     -10.192   7.379  72.442  1.00  0.00    -0.184 OA 
HETATM   10  C   UNL     1     -11.826  10.015  70.654  1.00  0.00    -0.325 A  
HETATM   11  N   UNL     1     -11.334  10.830  69.686  1.00  0.00    -0.269 NA 
HETATM   12  N   UNL     1     -13.042   9.983  71.222  1.00  0.00    -0.386 NA 
HETATM   13  C   UNL     1     -10.030  10.442  69.492  1.00  0.00    -0.202 A  
HETATM   14  N   UNL     1      -9.686   9.440  70.279  1.00  0.00    -0.229 NA 
ENDROOT
BRANCH  11  15
HETATM   15  C   UNL     1     -12.035  11.841  68.926  1.00  0.00    -0.271 C  
BRANCH  15  16
HETATM   16  O   UNL     1     -11.988  11.491  67.543  1.00  0.00    -0.629 OA 
BRANCH  16  17
HETATM   17  C   UNL     1     -11.448  12.564  66.762  1.00  0.00    -0.362 C  
BRANCH  17  18
HETATM   18  C   UNL     1     -12.128  12.572  65.397  1.00  0.00    -0.435 C  
HETATM   19  O   UNL     1     -13.038  13.665  65.310  1.00  0.00    -0.735 OA 
HETATM   20  H   UNL     1     -13.461  13.671  64.459  1.00  0.00     0.000 HD 
ENDBRANCH  17  18
ENDBRANCH  16  17
ENDBRANCH  15  16
ENDBRANCH  11  15
TORSDOF 4
ENDMDL
MODEL       23
REMARK 921   NORMALIZED FREE ENERGY PREDICTED BY IDOCK:   -5.42 KCAL/MOL
REMARK 922        TOTAL FREE ENERGY PREDICTED BY IDOCK:   -6.92 KCAL/MOL
REMARK 923 INTER-LIGAND FREE ENERGY PREDICTED BY IDOCK:   -6.71 KCAL/MOL
REMARK 924 INTRA-LIGAND FREE ENERGY PREDICTED BY IDOCK:   -0.21 KCAL/MOL
REMARK 927      BINDING AFFINITY PREDICTED BY RF-SCORE:    0.00 PKD
ROOT
HETATM    1  N   UNL     1     -12.483  14.107  63.418  1.00  0.00    -1.116 NA 
HETATM    2  H2  UNL     1     -12.464  14.284  62.413  1.00  0.00     0.000 HD 
HETATM    3  H1  UNL     1     -13.033  14.711  64.029  1.00  0.00     0.000 HD 
HETATM    4  C   UNL     1     -11.779  13.070  63.934  1.00  0.00    -0.468 C  
HETATM    5  N   UNL     1     -11.080  12.300  63.156  1.00  0.00    -0.671 N  
HETATM    6  C   UNL     1     -10.383  11.208  63.693  1.00  0.00    -0.389 C  
HETATM    7  H   UNL     1     -11.037  12.490  62.155  1.00  0.00     0.000 HD 
HETATM    8  C   UNL     1     -10.563  11.001  65.137  1.00  0.00    -0.226 A  
HETATM    9  O   UNL     1      -9.678  10.475  63.005  1.00  0.00    -0.320 OA 
HETATM   10  C   UNL     1     -11.320  11.887  65.856  1.00  0.00    -0.308 A  
HETATM   11  N   UNL     1     -11.348  11.443  67.138  1.00  0.00    -0.432 NA 
HETATM   12  N   UNL     1     -11.912  12.954  65.297  1.00  0.00    -0.391 NA 
HETATM   13  C   UNL     1     -10.586  10.299  67.159  1.00  0.00    -0.260 A  
HETATM   14  N   UNL     1     -10.091  10.009  65.971  1.00  0.00    -0.260 NA 
ENDROOT
BRANCH  11  15
HETATM   15  C   UNL     1     -11.959  12.070  68.290  1.00  0.00    -0.179 C  
BRANCH  15  16
HETATM   16  O   UNL     1     -12.408  11.051  69.182  1.00  0.00    -0.451 OA 
BRANCH  16  17
HETATM   17  C   UNL     1     -11.967  11.314  70.520  1.00  0.00    -0.371 C  
BRANCH  17  18
HETATM   18  C   UNL     1     -11.676   9.988  71.215  1.00  0.00    -0.369 C  
HETATM   19  O   UNL     1     -12.686   9.035  70.894  1.00  0.00    -0.497 OA 
HETATM   20  H   UNL     1     -12.505   8.209  71.326  1.00  0.00     0.000 HD 
ENDBRANCH  17  18
ENDBRANCH  16  17
ENDBRANCH  15  16
ENDBRANCH  11  15
TORSDOF 4
ENDMDL
MODEL       24
REMARK 921   NORMALIZED FREE ENERGY PREDICTED BY IDOCK:   -5.42 KCAL/MOL
REMARK 922        TOTAL FREE ENERGY PREDICTED BY IDOCK:   -6.91 KCAL/MOL
REMARK 923 INTER-LIGAND FREE ENERGY PREDICTED BY IDOCK:   -6.35 KCAL/MOL
REMARK 924 INTRA-LIGAND FREE ENERGY PREDICTED BY IDOCK:   -0.56 KCAL/MOL
REMARK 927      BINDING AFFINITY PREDICTED BY RF-SCORE:    0.00 PKD
ROOT
HETATM    1  N   UNL     1      -8.885  15.872  67.407  1.00  0.00    -0.185 NA 
HETATM    2  H2  UNL     1      -8.651  16.861  67.492  1.00  0.00     0.000 HD 
HETATM    3  H1  UNL     1      -8.458  15.193  68.037  1.00  0.00     0.000 HD 
HETATM    4  C   UNL     1      -9.763  15.466  66.457  1.00  0.00    -0.272 C  
HETATM    5  N   UNL     1     -10.308  16.330  65.655  1.00  0.00    -0.369 N  
HETATM    6  C   UNL     1     -11.242  15.908  64.698  1.00  0.00    -0.351 C  
HETATM    7  H   UNL     1     -10.055  17.316  65.720  1.00  0.00     0.000 HD 
HETATM    8  C   UNL     1     -11.568  14.474  64.734  1.00  0.00    -0.413 A  
HETATM    9  O   UNL     1     -11.754  16.679  63.894  1.00  0.00    -1.153 OA 
HETATM   10  C   UNL     1     -10.920  13.658  65.623  1.00  0.00    -0.290 A  
HETATM   11  N   UNL     1     -11.432  12.411  65.468  1.00  0.00    -0.346 NA 
HETATM   12  N   UNL     1      -9.985  14.110  66.473  1.00  0.00    -0.274 NA 
HETATM   13  C   UNL     1     -12.372  12.509  64.469  1.00  0.00    -0.467 A  
HETATM   14  N   UNL     1     -12.473  13.738  64.000  1.00  0.00    -0.705 NA 
ENDROOT
BRANCH  11  15
HETATM   15  C   UNL     1     -11.028  11.188  66.128  1.00  0.00    -0.138 C  
BRANCH  15  16
HETATM   16  O   UNL     1     -11.666  11.124  67.403  1.00  0.00    -0.564 OA 
BRANCH  16  17
HETATM   17  C   UNL     1     -10.881  10.362  68.329  1.00  0.00    -0.254 C  
BRANCH  17  18
HETATM   18  C   UNL     1      -9.820  11.269  68.942  1.00  0.00    -0.139 C  
HETATM   19  O   UNL     1     -10.336  12.587  69.103  1.00  0.00    -0.426 OA 
HETATM   20  H   UNL     1      -9.675  13.152  69.485  1.00  0.00     0.000 HD 
ENDBRANCH  17  18
ENDBRANCH  16  17
ENDBRANCH  15  16
ENDBRANCH  11  15
TORSDOF 4
ENDMDL
MODEL       25
REMARK 921   NORMALIZED FREE ENERGY PREDICTED BY IDOCK:   -5.39 KCAL/MOL
REMARK 922        TOTAL FREE ENERGY PREDICTED BY IDOCK:   -6.88 KCAL/MOL
REMARK 923 INTER-LIGAND FREE ENERGY PREDICTED BY IDOCK:   -6.57 KCAL/MOL
REMARK 924 INTRA-LIGAND FREE ENERGY PREDICTED BY IDOCK:   -0.31 KCAL/MOL
REMARK 927      BINDING AFFINITY PREDICTED BY RF-SCORE:    0.00 PKD
ROOT
HETATM    1  N   UNL     1     -11.800  11.679  67.075  1.00  0.00    -0.575 NA 
HETATM    2  H2  UNL     1     -12.130  10.767  66.758  1.00  0.00     0.000 HD 
HETATM    3  H1  UNL     1     -11.448  11.789  68.026  1.00  0.00     0.000 HD 
HETATM    4  C   UNL     1     -11.832  12.740  66.230  1.00  0.00    -0.423 C  
HETATM    5  N   UNL     1     -12.280  12.600  65.019  1.00  0.00    -0.455 N  
HETATM    6  C   UNL     1     -12.276  13.692  64.140  1.00  0.00    -0.399 C  
HETATM    7  H   UNL     1     -12.635  11.696  64.707  1.00  0.00     0.000 HD 
HETATM    8  C   UNL     1     -11.692  14.928  64.682  1.00  0.00    -0.404 A  
HETATM    9  O   UNL     1     -12.724  13.621  63.000  1.00  0.00    -0.681 OA 
HETATM   10  C   UNL     1     -11.259  14.956  65.981  1.00  0.00    -0.327 A  
HETATM   11  N   UNL     1     -10.740  16.190  66.204  1.00  0.00    -0.266 NA 
HETATM   12  N   UNL     1     -11.347  13.894  66.797  1.00  0.00    -0.322 NA 
HETATM   13  C   UNL     1     -10.890  16.883  65.026  1.00  0.00    -0.064 A  
HETATM   14  N   UNL     1     -11.468  16.154  64.090  1.00  0.00    -0.799 NA 
ENDROOT
BRANCH  11  15
HETATM   15  C   UNL     1     -10.218  16.732  67.439  1.00  0.00    -0.288 C  
BRANCH  15  16
HETATM   16  O   UNL     1     -10.894  17.955  67.725  1.00  0.00    -0.374 OA 
BRANCH  16  17
HETATM   17  C   UNL     1      -9.963  18.978  68.101  1.00  0.00    -0.382 C  
BRANCH  17  18
HETATM   18  C   UNL     1      -9.947  20.055  67.021  1.00  0.00    -0.445 C  
HETATM   19  O   UNL     1      -8.864  19.831  66.123  1.00  0.00    -0.369 OA 
HETATM   20  H   UNL     1      -8.855  20.502  65.450  1.00  0.00     0.000 HD 
ENDBRANCH  17  18
ENDBRANCH  16  17
ENDBRANCH  15  16
ENDBRANCH  11  15
TORSDOF 4
ENDMDL
MODEL       26
REMARK 921   NORMALIZED FREE ENERGY PREDICTED BY IDOCK:   -5.38 KCAL/MOL
REMARK 922        TOTAL FREE ENERGY PREDICTED BY IDOCK:   -6.86 KCAL/MOL
REMARK 923 INTER-LIGAND FREE ENERGY PREDICTED BY IDOCK:   -6.30 KCAL/MOL
REMARK 924 INTRA-LIGAND FREE ENERGY PREDICTED BY IDOCK:   -0.56 KCAL/MOL
REMARK 927      BINDING AFFINITY PREDICTED BY RF-SCORE:    0.00 PKD
ROOT
HETATM    1  N   UNL     1     -12.416  14.138  63.329  1.00  0.00    -1.098 NA 
HETATM    2  H2  UNL     1     -12.428  14.312  62.324  1.00  0.00     0.000 HD 
HETATM    3  H1  UNL     1     -12.928  14.757  63.958  1.00  0.00     0.000 HD 
HETATM    4  C   UNL     1     -11.721  13.084  63.823  1.00  0.00    -0.485 C  
HETATM    5  N   UNL     1     -11.069  12.295  63.023  1.00  0.00    -0.631 N  
HETATM    6  C   UNL     1     -10.382  11.186  63.537  1.00  0.00    -0.387 C  
HETATM    7  H   UNL     1     -11.058  12.482  62.020  1.00  0.00     0.000 HD 
HETATM    8  C   UNL     1     -10.515  10.987  64.987  1.00  0.00    -0.277 A  
HETATM    9  O   UNL     1      -9.721  10.435  62.827  1.00  0.00    -0.312 OA 
HETATM   10  C   UNL     1     -11.223  11.893  65.730  1.00  0.00    -0.312 A  
HETATM   11  N   UNL     1     -11.216  11.452  67.014  1.00  0.00    -0.348 NA 
HETATM   12  N   UNL     1     -11.808  12.974  65.190  1.00  0.00    -0.347 NA 
HETATM   13  C   UNL     1     -10.483  10.289  67.011  1.00  0.00    -0.244 A  
HETATM   14  N   UNL     1     -10.039   9.984  65.806  1.00  0.00    -0.271 NA 
ENDROOT
BRANCH  11  15
HETATM   15  C   UNL     1     -11.769  12.097  68.185  1.00  0.00    -0.341 C  
BRANCH  15  16
HETATM   16  O   UNL     1     -10.910  13.169  68.567  1.00  0.00    -0.246 OA 
BRANCH  16  17
HETATM   17  C   UNL     1     -11.663  14.255  69.122  1.00  0.00    -0.320 C  
BRANCH  17  18
HETATM   18  C   UNL     1     -11.313  15.535  68.370  1.00  0.00    -0.354 C  
HETATM   19  O   UNL     1     -10.984  15.233  67.017  1.00  0.00    -0.322 OA 
HETATM   20  H   UNL     1     -10.766  16.031  66.549  1.00  0.00     0.000 HD 
ENDBRANCH  17  18
ENDBRANCH  16  17
ENDBRANCH  15  16
ENDBRANCH  11  15
TORSDOF 4
ENDMDL
MODEL       27
REMARK 921   NORMALIZED FREE ENERGY PREDICTED BY IDOCK:   -5.37 KCAL/MOL
REMARK 922        TOTAL FREE ENERGY PREDICTED BY IDOCK:   -6.85 KCAL/MOL
REMARK 923 INTER-LIGAND FREE ENERGY PREDICTED BY IDOCK:   -6.24 KCAL/MOL
REMARK 924 INTRA-LIGAND FREE ENERGY PREDICTED BY IDOCK:   -0.61 KCAL/MOL
REMARK 927      BINDING AFFINITY PREDICTED BY RF-SCORE:    0.00 PKD
ROOT
HETATM    1  N   UNL     1     -12.364  14.514  67.681  1.00  0.00    -0.585 NA 
HETATM    2  H2  UNL     1     -13.006  15.305  67.624  1.00  0.00     0.000 HD 
HETATM    3  H1  UNL     1     -11.988  14.229  68.585  1.00  0.00     0.000 HD 
HETATM    4  C   UNL     1     -12.015  13.846  66.554  1.00  0.00    -0.439 C  
HETATM    5  N   UNL     1     -12.493  14.208  65.402  1.00  0.00    -0.471 N  
HETATM    6  C   UNL     1     -12.156  13.490  64.245  1.00  0.00    -0.431 C  
HETATM    7  H   UNL     1     -13.114  15.014  65.338  1.00  0.00     0.000 HD 
HETATM    8  C   UNL     1     -11.299  12.316  64.467  1.00  0.00    -0.329 A  
HETATM    9  O   UNL     1     -12.551  13.816  63.130  1.00  0.00    -0.793 OA 
HETATM   10  C   UNL     1     -10.849  12.039  65.730  1.00  0.00    -0.287 A  
HETATM   11  N   UNL     1     -10.120  10.897  65.654  1.00  0.00    -0.250 NA 
HETATM   12  N   UNL     1     -11.154  12.801  66.792  1.00  0.00    -0.267 NA 
HETATM   13  C   UNL     1     -10.138  10.523  64.331  1.00  0.00    -0.325 A  
HETATM   14  N   UNL     1     -10.834  11.361  63.587  1.00  0.00    -0.395 NA 
ENDROOT
BRANCH  11  15
HETATM   15  C   UNL     1      -9.380  10.235  66.706  1.00  0.00    -0.160 C  
BRANCH  15  16
HETATM   16  O   UNL     1     -10.306   9.665  67.630  1.00  0.00    -0.205 OA 
BRANCH  16  17
HETATM   17  C   UNL     1     -10.000  10.062  68.972  1.00  0.00    -0.196 C  
BRANCH  17  18
HETATM   18  C   UNL     1     -11.255  10.639  69.617  1.00  0.00    -0.289 C  
HETATM   19  O   UNL     1     -12.342  10.594  68.696  1.00  0.00    -0.820 OA 
HETATM   20  H   UNL     1     -13.125  10.954  69.098  1.00  0.00     0.000 HD 
ENDBRANCH  17  18
ENDBRANCH  16  17
ENDBRANCH  15  16
ENDBRANCH  11  15
TORSDOF 4
ENDMDL
MODEL       28
REMARK 921   NORMALIZED FREE ENERGY PREDICTED BY IDOCK:   -5.34 KCAL/MOL
REMARK 922        TOTAL FREE ENERGY PREDICTED BY IDOCK:   -6.81 KCAL/MOL
REMARK 923 INTER-LIGAND FREE ENERGY PREDICTED BY IDOCK:   -6.57 KCAL/MOL
REMARK 924 INTRA-LIGAND FREE ENERGY PREDICTED BY IDOCK:   -0.24 KCAL/MOL
REMARK 927      BINDING AFFINITY PREDICTED BY RF-SCORE:    0.00 PKD
ROOT
HETATM    1  N   UNL     1     -13.821  16.099  73.346  1.00  0.00    -0.788 NA 
HETATM    2  H2  UNL     1     -14.245  15.839  74.237  1.00  0.00     0.000 HD 
HETATM    3  H1  UNL     1     -13.687  17.084  73.116  1.00  0.00     0.000 HD 
HETATM    4  C   UNL     1     -13.438  15.134  72.474  1.00  0.00    -0.464 C  
HETATM    5  N   UNL     1     -13.609  13.880  72.767  1.00  0.00    -0.493 N  
HETATM    6  C   UNL     1     -13.178  12.887  71.876  1.00  0.00    -0.423 C  
HETATM    7  H   UNL     1     -14.056  13.618  73.645  1.00  0.00     0.000 HD 
HETATM    8  C   UNL     1     -12.499  13.383  70.669  1.00  0.00    -0.311 A  
HETATM    9  O   UNL     1     -13.351  11.692  72.090  1.00  0.00    -0.491 OA 
HETATM   10  C   UNL     1     -12.386  14.732  70.466  1.00  0.00    -0.337 A  
HETATM   11  N   UNL     1     -11.694  14.907  69.311  1.00  0.00    -0.299 NA 
HETATM   12  N   UNL     1     -12.876  15.639  71.326  1.00  0.00    -0.478 NA 
HETATM   13  C   UNL     1     -11.420  13.644  68.839  1.00  0.00    -0.303 A  
HETATM   14  N   UNL     1     -11.898  12.703  69.630  1.00  0.00    -0.320 NA 
ENDROOT
BRANCH  11  15
HETATM   15  C   UNL     1     -11.377  16.146  68.636  1.00  0.00    -0.365 C  
BRANCH  15  16
HETATM   16  O   UNL     1     -10.303  16.783  69.325  1.00  0.00    -0.300 OA 
BRANCH  16  17
HETATM   17  C   UNL     1     -10.018  18.066  68.754  1.00  0.00    -0.374 C  
BRANCH  17  18
HETATM   18  C   UNL     1     -10.753  18.190  67.424  1.00  0.00    -0.335 C  
HETATM   19  O   UNL     1     -10.857  19.561  67.050  1.00  0.00    -0.487 OA 
HETATM   20  H   UNL     1     -11.315  19.639  66.221  1.00  0.00     0.000 HD 
ENDBRANCH  17  18
ENDBRANCH  16  17
ENDBRANCH  15  16
ENDBRANCH  11  15
TORSDOF 4
ENDMDL
MODEL       29
REMARK 921   NORMALIZED FREE ENERGY PREDICTED BY IDOCK:   -5.33 KCAL/MOL
REMARK 922        TOTAL FREE ENERGY PREDICTED BY IDOCK:   -6.79 KCAL/MOL
REMARK 923 INTER-LIGAND FREE ENERGY PREDICTED BY IDOCK:   -6.44 KCAL/MOL
REMARK 924 INTRA-LIGAND FREE ENERGY PREDICTED BY IDOCK:   -0.36 KCAL/MOL
REMARK 927      BINDING AFFINITY PREDICTED BY RF-SCORE:    0.00 PKD
ROOT
HETATM    1  N   UNL     1     -13.249   8.638  72.622  1.00  0.00    -0.648 NA 
HETATM    2  H2  UNL     1     -12.920   7.673  72.587  1.00  0.00     0.000 HD 
HETATM    3  H1  UNL     1     -13.930   8.917  73.328  1.00  0.00     0.000 HD 
HETATM    4  C   UNL     1     -12.778   9.544  71.730  1.00  0.00    -0.404 C  
HETATM    5  N   UNL     1     -11.911   9.190  70.831  1.00  0.00    -0.335 N  
HETATM    6  C   UNL     1     -11.401  10.140  69.935  1.00  0.00    -0.275 C  
HETATM    7  H   UNL     1     -11.600   8.220  70.776  1.00  0.00     0.000 HD 
HETATM    8  C   UNL     1     -11.880  11.515  70.143  1.00  0.00    -0.356 A  
HETATM    9  O   UNL     1     -10.610   9.847  69.044  1.00  0.00    -0.203 OA 
HETATM   10  C   UNL     1     -12.804  11.765  71.122  1.00  0.00    -0.267 A  
HETATM   11  N   UNL     1     -13.038  13.102  71.120  1.00  0.00    -0.188 NA 
HETATM   12  N   UNL     1     -13.305  10.800  71.910  1.00  0.00    -0.403 NA 
HETATM   13  C   UNL     1     -12.252  13.622  70.120  1.00  0.00    -0.342 A  
HETATM   14  N   UNL     1     -11.547  12.691  69.506  1.00  0.00    -0.293 NA 
ENDROOT
BRANCH  11  15
HETATM   15  C   UNL     1     -13.984  13.847  71.922  1.00  0.00    -0.425 C  
BRANCH  15  16
HETATM   16  O   UNL     1     -13.328  14.295  73.107  1.00  0.00    -0.643 OA 
BRANCH  16  17
HETATM   17  C   UNL     1     -13.356  15.725  73.197  1.00  0.00    -0.587 C  
BRANCH  17  18
HETATM   18  C   UNL     1     -11.945  16.262  72.983  1.00  0.00    -0.498 C  
HETATM   19  O   UNL     1     -11.814  16.779  71.661  1.00  0.00    -0.570 OA 
HETATM   20  H   UNL     1     -10.935  17.114  71.528  1.00  0.00     0.000 HD 
ENDBRANCH  17  18
ENDBRANCH  16  17
ENDBRANCH  15  16
ENDBRANCH  11  15
TORSDOF 4
ENDMDL
MODEL       30
REMARK 921   NORMALIZED FREE ENERGY PREDICTED BY IDOCK:   -5.32 KCAL/MOL
REMARK 922        TOTAL FREE ENERGY PREDICTED BY IDOCK:   -6.79 KCAL/MOL
REMARK 923 INTER-LIGAND FREE ENERGY PREDICTED BY IDOCK:   -6.61 KCAL/MOL
REMARK 924 INTRA-LIGAND FREE ENERGY PREDICTED BY IDOCK:   -0.18 KCAL/MOL
REMARK 927      BINDING AFFINITY PREDICTED BY RF-SCORE:    0.00 PKD
ROOT
HETATM    1  N   UNL     1     -14.348   8.962  73.111  1.00  0.00    -1.145 NA 
HETATM    2  H2  UNL     1     -14.580   8.294  73.847  1.00  0.00     0.000 HD 
HETATM    3  H1  UNL     1     -15.020   9.684  72.852  1.00  0.00     0.000 HD 
HETATM    4  C   UNL     1     -13.149   8.887  72.484  1.00  0.00    -0.364 C  
HETATM    5  N   UNL     1     -12.292   7.968  72.814  1.00  0.00    -0.610 N  
HETATM    6  C   UNL     1     -11.040   7.918  72.186  1.00  0.00    -0.294 C  
HETATM    7  H   UNL     1     -12.531   7.282  73.531  1.00  0.00     0.000 HD 
HETATM    8  C   UNL     1     -10.787   8.989  71.211  1.00  0.00    -0.315 A  
HETATM    9  O   UNL     1     -10.213   7.047  72.436  1.00  0.00    -0.183 OA 
HETATM   10  C   UNL     1     -11.774   9.900  70.940  1.00  0.00    -0.364 A  
HETATM   11  N   UNL     1     -11.267  10.785  70.044  1.00  0.00    -0.294 NA 
HETATM   12  N   UNL     1     -12.980   9.859  71.527  1.00  0.00    -0.390 NA 
HETATM   13  C   UNL     1      -9.981  10.369  69.787  1.00  0.00    -0.124 A  
HETATM   14  N   UNL     1      -9.663   9.285  70.469  1.00  0.00    -0.240 NA 
ENDROOT
BRANCH  11  15
HETATM   15  C   UNL     1     -11.940  11.890  69.398  1.00  0.00    -0.289 C  
BRANCH  15  16
HETATM   16  O   UNL     1     -12.152  12.923  70.358  1.00  0.00    -0.361 OA 
BRANCH  16  17
HETATM   17  C   UNL     1     -12.272  14.199  69.718  1.00  0.00    -0.344 C  
BRANCH  17  18
HETATM   18  C   UNL     1     -12.622  15.249  70.767  1.00  0.00    -0.417 C  
HETATM   19  O   UNL     1     -14.023  15.509  70.750  1.00  0.00    -0.874 OA 
HETATM   20  H   UNL     1     -14.242  16.163  71.404  1.00  0.00     0.000 HD 
ENDBRANCH  17  18
ENDBRANCH  16  17
ENDBRANCH  15  16
ENDBRANCH  11  15
TORSDOF 4
ENDMDL
MODEL       31
REMARK 921   NORMALIZED FREE ENERGY PREDICTED BY IDOCK:   -5.30 KCAL/MOL
REMARK 922        TOTAL FREE ENERGY PREDICTED BY IDOCK:   -6.76 KCAL/MOL
REMARK 923 INTER-LIGAND FREE ENERGY PREDICTED BY IDOCK:   -6.46 KCAL/MOL
REMARK 924 INTRA-LIGAND FREE ENERGY PREDICTED BY IDOCK:   -0.30 KCAL/MOL
REMARK 927      BINDING AFFINITY PREDICTED BY RF-SCORE:    0.00 PKD
ROOT
HETATM    1  N   UNL     1     -12.510  15.546  70.897  1.00  0.00    -0.411 NA 
HETATM    2  H2  UNL     1     -12.630  15.622  71.907  1.00  0.00     0.000 HD 
HETATM    3  H1  UNL     1     -12.518  16.388  70.320  1.00  0.00     0.000 HD 
HETATM    4  C   UNL     1     -12.338  14.328  70.326  1.00  0.00    -0.354 C  
HETATM    5  N   UNL     1     -12.326  13.256  71.060  1.00  0.00    -0.394 N  
HETATM    6  C   UNL     1     -12.112  12.004  70.468  1.00  0.00    -0.311 C  
HETATM    7  H   UNL     1     -12.473  13.326  72.067  1.00  0.00     0.000 HD 
HETATM    8  C   UNL     1     -11.859  12.033  69.020  1.00  0.00    -0.315 A  
HETATM    9  O   UNL     1     -12.131  10.960  71.112  1.00  0.00    -0.334 OA 
HETATM   10  C   UNL     1     -11.905  13.227  68.351  1.00  0.00    -0.360 A  
HETATM   11  N   UNL     1     -11.602  12.972  67.053  1.00  0.00    -0.340 NA 
HETATM   12  N   UNL     1     -12.179  14.390  68.963  1.00  0.00    -0.253 NA 
HETATM   13  C   UNL     1     -11.395  11.615  66.972  1.00  0.00    -0.305 A  
HETATM   14  N   UNL     1     -11.550  11.018  68.139  1.00  0.00    -0.496 NA 
ENDROOT
BRANCH  11  15
HETATM   15  C   UNL     1     -11.588  13.894  65.939  1.00  0.00    -0.340 C  
BRANCH  15  16
HETATM   16  O   UNL     1     -12.717  13.627  65.108  1.00  0.00    -0.611 OA 
BRANCH  16  17
HETATM   17  C   UNL     1     -12.308  13.355  63.762  1.00  0.00    -0.349 C  
BRANCH  17  18
HETATM   18  C   UNL     1     -12.451  11.861  63.494  1.00  0.00    -0.492 C  
HETATM   19  O   UNL     1     -11.172  11.286  63.239  1.00  0.00    -0.795 OA 
HETATM   20  H   UNL     1     -11.261  10.354  63.072  1.00  0.00     0.000 HD 
ENDBRANCH  17  18
ENDBRANCH  16  17
ENDBRANCH  15  16
ENDBRANCH  11  15
TORSDOF 4
ENDMDL
MODEL       32
REMARK 921   NORMALIZED FREE ENERGY PREDICTED BY IDOCK:   -5.27 KCAL/MOL
REMARK 922        TOTAL FREE ENERGY PREDICTED BY IDOCK:   -6.72 KCAL/MOL
REMARK 923 INTER-LIGAND FREE ENERGY PREDICTED BY IDOCK:   -6.50 KCAL/MOL
REMARK 924 INTRA-LIGAND FREE ENERGY PREDICTED BY IDOCK:   -0.23 KCAL/MOL
REMARK 927      BINDING AFFINITY PREDICTED BY RF-SCORE:    0.00 PKD
ROOT
HETATM    1  N   UNL     1     -12.597   9.720  70.564  1.00  0.00    -0.512 NA 
HETATM    2  H2  UNL     1     -12.788   9.514  71.545  1.00  0.00     0.000 HD 
HETATM    3  H1  UNL     1     -12.561   8.960  69.884  1.00  0.00     0.000 HD 
HETATM    4  C   UNL     1     -12.392  11.001  70.170  1.00  0.00    -0.311 C  
HETATM    5  N   UNL     1     -12.437  11.968  71.035  1.00  0.00    -0.341 N  
HETATM    6  C   UNL     1     -12.259  13.294  70.615  1.00  0.00    -0.338 C  
HETATM    7  H   UNL     1     -12.602  11.764  72.021  1.00  0.00     0.000 HD 
HETATM    8  C   UNL     1     -12.084  13.471  69.166  1.00  0.00    -0.288 A  
HETATM    9  O   UNL     1     -12.255  14.238  71.399  1.00  0.00    -0.340 OA 
HETATM   10  C   UNL     1     -12.045  12.371  68.352  1.00  0.00    -0.060 A  
HETATM   11  N   UNL     1     -11.912  12.819  67.078  1.00  0.00    -0.446 NA 
HETATM   12  N   UNL     1     -12.157  11.118  68.821  1.00  0.00    -0.552 NA 
HETATM   13  C   UNL     1     -11.859  14.190  67.162  1.00  0.00    -0.423 A  
HETATM   14  N   UNL     1     -11.952  14.616  68.408  1.00  0.00    -0.291 NA 
ENDROOT
BRANCH  11  15
HETATM   15  C   UNL     1     -11.756  12.043  65.867  1.00  0.00    -0.242 C  
BRANCH  15  16
HETATM   16  O   UNL     1     -12.777  12.422  64.945  1.00  0.00    -0.620 OA 
BRANCH  16  17
HETATM   17  C   UNL     1     -12.214  12.766  63.673  1.00  0.00    -0.512 C  
BRANCH  17  18
HETATM   18  C   UNL     1     -10.750  12.339  63.647  1.00  0.00    -0.467 C  
HETATM   19  O   UNL     1     -10.586  11.207  62.797  1.00  0.00    -0.754 OA 
HETATM   20  H   UNL     1      -9.674  10.942  62.781  1.00  0.00     0.000 HD 
ENDBRANCH  17  18
ENDBRANCH  16  17
ENDBRANCH  15  16
ENDBRANCH  11  15
TORSDOF 4
ENDMDL
MODEL       33
REMARK 921   NORMALIZED FREE ENERGY PREDICTED BY IDOCK:   -5.27 KCAL/MOL
REMARK 922        TOTAL FREE ENERGY PREDICTED BY IDOCK:   -6.72 KCAL/MOL
REMARK 923 INTER-LIGAND FREE ENERGY PREDICTED BY IDOCK:   -6.41 KCAL/MOL
REMARK 924 INTRA-LIGAND FREE ENERGY PREDICTED BY IDOCK:   -0.31 KCAL/MOL
REMARK 927      BINDING AFFINITY PREDICTED BY RF-SCORE:    0.00 PKD
ROOT
HETATM    1  N   UNL     1      -8.816  11.117  63.215  1.00  0.00    -0.426 NA 
HETATM    2  H2  UNL     1      -8.818  10.602  62.333  1.00  0.00     0.000 HD 
HETATM    3  H1  UNL     1      -7.944  11.237  63.730  1.00  0.00     0.000 HD 
HETATM    4  C   UNL     1      -9.972  11.638  63.694  1.00  0.00    -0.379 C  
HETATM    5  N   UNL     1     -11.083  11.485  63.038  1.00  0.00    -0.805 N  
HETATM    6  C   UNL     1     -12.268  12.057  63.521  1.00  0.00    -0.547 C  
HETATM    7  H   UNL     1     -11.093  10.949  62.170  1.00  0.00     0.000 HD 
HETATM    8  C   UNL     1     -12.121  12.852  64.750  1.00  0.00    -0.422 A  
HETATM    9  O   UNL     1     -13.348  11.908  62.958  1.00  0.00    -0.400 OA 
HETATM   10  C   UNL     1     -10.897  12.933  65.358  1.00  0.00    -0.283 A  
HETATM   11  N   UNL     1     -11.038  13.748  66.434  1.00  0.00    -0.305 NA 
HETATM   12  N   UNL     1      -9.808  12.309  64.882  1.00  0.00    -0.175 NA 
HETATM   13  C   UNL     1     -12.360  14.126  66.453  1.00  0.00    -0.400 A  
HETATM   14  N   UNL     1     -13.043  13.597  65.456  1.00  0.00    -0.605 NA 
ENDROOT
BRANCH  11  15
HETATM   15  C   UNL     1     -10.049  14.091  67.433  1.00  0.00    -0.244 C  
BRANCH  15  16
HETATM   16  O   UNL     1     -10.459  13.552  68.689  1.00  0.00    -0.243 OA 
BRANCH  16  17
HETATM   17  C   UNL     1     -10.347  12.123  68.692  1.00  0.00    -0.195 C  
BRANCH  17  18
HETATM   18  C   UNL     1     -11.563  11.533  69.398  1.00  0.00    -0.321 C  
HETATM   19  O   UNL     1     -12.454  10.963  68.443  1.00  0.00    -0.659 OA 
HETATM   20  H   UNL     1     -13.212  10.595  68.883  1.00  0.00     0.000 HD 
ENDBRANCH  17  18
ENDBRANCH  16  17
ENDBRANCH  15  16
ENDBRANCH  11  15
TORSDOF 4
ENDMDL
MODEL       34
REMARK 921   NORMALIZED FREE ENERGY PREDICTED BY IDOCK:   -5.26 KCAL/MOL
REMARK 922        TOTAL FREE ENERGY PREDICTED BY IDOCK:   -6.71 KCAL/MOL
REMARK 923 INTER-LIGAND FREE ENERGY PREDICTED BY IDOCK:   -6.05 KCAL/MOL
REMARK 924 INTRA-LIGAND FREE ENERGY PREDICTED BY IDOCK:   -0.65 KCAL/MOL
REMARK 927      BINDING AFFINITY PREDICTED BY RF-SCORE:    0.00 PKD
ROOT
HETATM    1  N   UNL     1     -10.720  14.584  68.213  1.00  0.00    -0.236 NA 
HETATM    2  H2  UNL     1     -10.072  14.507  67.429  1.00  0.00     0.000 HD 
HETATM    3  H1  UNL     1     -11.134  15.487  68.443  1.00  0.00     0.000 HD 
HETATM    4  C   UNL     1     -11.028  13.484  68.945  1.00  0.00    -0.252 C  
HETATM    5  N   UNL     1     -10.502  12.333  68.653  1.00  0.00    -0.280 N  
HETATM    6  C   UNL     1     -10.853  11.194  69.391  1.00  0.00    -0.216 C  
HETATM    7  H   UNL     1      -9.834  12.258  67.886  1.00  0.00     0.000 HD 
HETATM    8  C   UNL     1     -11.865  11.414  70.435  1.00  0.00    -0.335 A  
HETATM    9  O   UNL     1     -10.354  10.094  69.178  1.00  0.00    -0.193 OA 
HETATM   10  C   UNL     1     -12.341  12.678  70.656  1.00  0.00    -0.290 A  
HETATM   11  N   UNL     1     -13.276  12.589  71.636  1.00  0.00    -0.365 NA 
HETATM   12  N   UNL     1     -11.919  13.745  69.958  1.00  0.00    -0.321 NA 
HETATM   13  C   UNL     1     -13.326  11.261  71.991  1.00  0.00    -0.280 A  
HETATM   14  N   UNL     1     -12.482  10.527  71.292  1.00  0.00    -0.389 NA 
ENDROOT
BRANCH  11  15
HETATM   15  C   UNL     1     -14.016  13.659  72.268  1.00  0.00    -0.563 C  
BRANCH  15  16
HETATM   16  O   UNL     1     -13.167  14.304  73.216  1.00  0.00    -0.614 OA 
BRANCH  16  17
HETATM   17  C   UNL     1     -13.242  15.729  73.082  1.00  0.00    -0.591 C  
BRANCH  17  18
HETATM   18  C   UNL     1     -11.873  16.260  72.672  1.00  0.00    -0.497 C  
HETATM   19  O   UNL     1     -11.794  16.364  71.253  1.00  0.00    -0.632 OA 
HETATM   20  H   UNL     1     -10.941  16.696  70.997  1.00  0.00     0.000 HD 
ENDBRANCH  17  18
ENDBRANCH  16  17
ENDBRANCH  15  16
ENDBRANCH  11  15
TORSDOF 4
ENDMDL
MODEL       35
REMARK 921   NORMALIZED FREE ENERGY PREDICTED BY IDOCK:   -5.24 KCAL/MOL
REMARK 922        TOTAL FREE ENERGY PREDICTED BY IDOCK:   -6.69 KCAL/MOL
REMARK 923 INTER-LIGAND FREE ENERGY PREDICTED BY IDOCK:   -6.19 KCAL/MOL
REMARK 924 INTRA-LIGAND FREE ENERGY PREDICTED BY IDOCK:   -0.50 KCAL/MOL
REMARK 927      BINDING AFFINITY PREDICTED BY RF-SCORE:    0.00 PKD
ROOT
HETATM    1  N   UNL     1     -11.605  10.581  68.188  1.00  0.00    -0.695 NA 
HETATM    2  H2  UNL     1     -11.746   9.610  67.909  1.00  0.00     0.000 HD 
HETATM    3  H1  UNL     1     -11.119  11.223  67.562  1.00  0.00     0.000 HD 
HETATM    4  C   UNL     1     -12.063  11.012  69.389  1.00  0.00    -0.318 C  
HETATM    5  N   UNL     1     -12.682  10.195  70.187  1.00  0.00    -0.556 N  
HETATM    6  C   UNL     1     -13.185  10.656  71.411  1.00  0.00    -0.323 C  
HETATM    7  H   UNL     1     -12.802   9.217  69.922  1.00  0.00     0.000 HD 
HETATM    8  C   UNL     1     -13.001  12.094  71.660  1.00  0.00    -0.321 A  
HETATM    9  O   UNL     1     -13.742   9.915  72.215  1.00  0.00    -0.356 OA 
HETATM   10  C   UNL     1     -12.323  12.855  70.745  1.00  0.00    -0.299 A  
HETATM   11  N   UNL     1     -12.332  14.133  71.201  1.00  0.00    -0.356 NA 
HETATM   12  N   UNL     1     -11.807  12.343  69.617  1.00  0.00    -0.319 NA 
HETATM   13  C   UNL     1     -13.009  14.103  72.398  1.00  0.00    -0.391 A  
HETATM   14  N   UNL     1     -13.419  12.887  72.707  1.00  0.00    -0.422 NA 
ENDROOT
BRANCH  11  15
HETATM   15  C   UNL     1     -11.689  15.294  70.626  1.00  0.00    -0.332 C  
BRANCH  15  16
HETATM   16  O   UNL     1     -12.131  15.441  69.277  1.00  0.00    -0.315 OA 
BRANCH  16  17
HETATM   17  C   UNL     1     -11.047  15.828  68.423  1.00  0.00    -0.341 C  
BRANCH  17  18
HETATM   18  C   UNL     1     -11.013  14.900  67.214  1.00  0.00    -0.323 C  
HETATM   19  O   UNL     1     -12.214  14.135  67.151  1.00  0.00    -0.521 OA 
HETATM   20  H   UNL     1     -12.193  13.557  66.397  1.00  0.00     0.000 HD 
ENDBRANCH  17  18
ENDBRANCH  16  17
ENDBRANCH  15  16
ENDBRANCH  11  15
TORSDOF 4
ENDMDL
MODEL       36
REMARK 921   NORMALIZED FREE ENERGY PREDICTED BY IDOCK:   -5.24 KCAL/MOL
REMARK 922        TOTAL FREE ENERGY PREDICTED BY IDOCK:   -6.68 KCAL/MOL
REMARK 923 INTER-LIGAND FREE ENERGY PREDICTED BY IDOCK:   -6.47 KCAL/MOL
REMARK 924 INTRA-LIGAND FREE ENERGY PREDICTED BY IDOCK:   -0.21 KCAL/MOL
REMARK 927      BINDING AFFINITY PREDICTED BY RF-SCORE:    0.00 PKD
ROOT
HETATM    1  N   UNL     1      -7.197  18.602  65.544  1.00  0.00    -0.525 NA 
HETATM    2  H2  UNL     1      -6.798  19.537  65.632  1.00  0.00     0.000 HD 
HETATM    3  H1  UNL     1      -6.795  17.939  64.881  1.00  0.00     0.000 HD 
HETATM    4  C   UNL     1      -8.258  18.246  66.310  1.00  0.00    -0.212 C  
HETATM    5  N   UNL     1      -8.770  19.090  67.154  1.00  0.00    -0.283 N  
HETATM    6  C   UNL     1      -9.844  18.703  67.968  1.00  0.00    -0.342 C  
HETATM    7  H   UNL     1      -8.390  20.034  67.226  1.00  0.00     0.000 HD 
HETATM    8  C   UNL     1     -10.271  17.304  67.817  1.00  0.00    -0.332 A  
HETATM    9  O   UNL     1     -10.386  19.475  68.753  1.00  0.00    -0.385 OA 
HETATM   10  C   UNL     1      -9.658  16.511  66.884  1.00  0.00    -0.243 A  
HETATM   11  N   UNL     1     -10.214  15.276  66.981  1.00  0.00    -0.256 NA 
HETATM   12  N   UNL     1      -8.675  16.956  66.086  1.00  0.00    -0.464 NA 
HETATM   13  C   UNL     1     -11.166  15.366  67.969  1.00  0.00    -0.325 A  
HETATM   14  N   UNL     1     -11.231  16.578  68.488  1.00  0.00    -0.345 NA 
ENDROOT
BRANCH  11  15
HETATM   15  C   UNL     1      -9.954  14.110  66.165  1.00  0.00    -0.314 C  
BRANCH  15  16
HETATM   16  O   UNL     1     -10.655  14.250  64.929  1.00  0.00    -0.393 OA 
BRANCH  16  17
HETATM   17  C   UNL     1     -10.595  13.038  64.168  1.00  0.00    -0.397 C  
BRANCH  17  18
HETATM   18  C   UNL     1     -11.956  12.788  63.528  1.00  0.00    -0.555 C  
HETATM   19  O   UNL     1     -12.469  13.999  62.981  1.00  0.00    -1.101 OA 
HETATM   20  H   UNL     1     -13.318  13.843  62.582  1.00  0.00     0.000 HD 
ENDBRANCH  17  18
ENDBRANCH  16  17
ENDBRANCH  15  16
ENDBRANCH  11  15
TORSDOF 4
ENDMDL
MODEL       37
REMARK 921   NORMALIZED FREE ENERGY PREDICTED BY IDOCK:   -5.24 KCAL/MOL
REMARK 922        TOTAL FREE ENERGY PREDICTED BY IDOCK:   -6.68 KCAL/MOL
REMARK 923 INTER-LIGAND FREE ENERGY PREDICTED BY IDOCK:   -6.36 KCAL/MOL
REMARK 924 INTRA-LIGAND FREE ENERGY PREDICTED BY IDOCK:   -0.32 KCAL/MOL
REMARK 927      BINDING AFFINITY PREDICTED BY RF-SCORE:    0.00 PKD
ROOT
HETATM    1  N   UNL     1      -8.844  10.920  63.405  1.00  0.00    -0.331 NA 
HETATM    2  H2  UNL     1      -8.844  10.334  62.570  1.00  0.00     0.000 HD 
HETATM    3  H1  UNL     1      -7.979  11.058  63.928  1.00  0.00     0.000 HD 
HETATM    4  C   UNL     1      -9.993  11.512  63.815  1.00  0.00    -0.349 C  
HETATM    5  N   UNL     1     -11.094  11.338  63.149  1.00  0.00    -0.846 N  
HETATM    6  C   UNL     1     -12.270  11.982  63.558  1.00  0.00    -0.547 C  
HETATM    7  H   UNL     1     -11.104  10.731  62.329  1.00  0.00     0.000 HD 
HETATM    8  C   UNL     1     -12.123  12.872  64.719  1.00  0.00    -0.422 A  
HETATM    9  O   UNL     1     -13.343  11.818  62.986  1.00  0.00    -0.405 OA 
HETATM   10  C   UNL     1     -10.909  12.968  65.345  1.00  0.00    -0.284 A  
HETATM   11  N   UNL     1     -11.046  13.873  66.348  1.00  0.00    -0.306 NA 
HETATM   12  N   UNL     1      -9.831  12.276  64.946  1.00  0.00    -0.175 NA 
HETATM   13  C   UNL     1     -12.356  14.289  66.307  1.00  0.00    -0.373 A  
HETATM   14  N   UNL     1     -13.035  13.699  65.341  1.00  0.00    -0.699 NA 
ENDROOT
BRANCH  11  15
HETATM   15  C   UNL     1     -10.066  14.269  67.336  1.00  0.00    -0.247 C  
BRANCH  15  16
HETATM   16  O   UNL     1     -10.517  15.462  67.976  1.00  0.00    -0.248 OA 
BRANCH  16  17
HETATM   17  C   UNL     1     -10.253  15.418  69.383  1.00  0.00    -0.262 C  
BRANCH  17  18
HETATM   18  C   UNL     1     -11.462  14.821  70.096  1.00  0.00    -0.266 C  
HETATM   19  O   UNL     1     -12.656  15.457  69.648  1.00  0.00    -0.600 OA 
HETATM   20  H   UNL     1     -13.410  15.084  70.092  1.00  0.00     0.000 HD 
ENDBRANCH  17  18
ENDBRANCH  16  17
ENDBRANCH  15  16
ENDBRANCH  11  15
TORSDOF 4
ENDMDL
MODEL       38
REMARK 921   NORMALIZED FREE ENERGY PREDICTED BY IDOCK:   -5.23 KCAL/MOL
REMARK 922        TOTAL FREE ENERGY PREDICTED BY IDOCK:   -6.67 KCAL/MOL
REMARK 923 INTER-LIGAND FREE ENERGY PREDICTED BY IDOCK:   -6.50 KCAL/MOL
REMARK 924 INTRA-LIGAND FREE ENERGY PREDICTED BY IDOCK:   -0.17 KCAL/MOL
REMARK 927      BINDING AFFINITY PREDICTED BY RF-SCORE:    0.00 PKD
ROOT
HETATM    1  N   UNL     1     -14.074  12.478  72.658  1.00  0.00    -0.448 NA 
HETATM    2  H2  UNL     1     -14.472  12.472  73.598  1.00  0.00     0.000 HD 
HETATM    3  H1  UNL     1     -14.251  11.696  72.028  1.00  0.00     0.000 HD 
HETATM    4  C   UNL     1     -13.315  13.526  72.253  1.00  0.00    -0.531 C  
HETATM    5  N   UNL     1     -13.091  14.522  73.056  1.00  0.00    -0.521 N  
HETATM    6  C   UNL     1     -12.334  15.618  72.618  1.00  0.00    -0.427 C  
HETATM    7  H   UNL     1     -13.465  14.507  74.005  1.00  0.00     0.000 HD 
HETATM    8  C   UNL     1     -11.894  15.554  71.217  1.00  0.00    -0.399 A  
HETATM    9  O   UNL     1     -12.063  16.565  73.351  1.00  0.00    -0.498 OA 
HETATM   10  C   UNL     1     -12.185  14.444  70.470  1.00  0.00    -0.341 A  
HETATM   11  N   UNL     1     -11.700  14.663  69.221  1.00  0.00    -0.295 NA 
HETATM   12  N   UNL     1     -12.860  13.394  70.963  1.00  0.00    -0.288 NA 
HETATM   13  C   UNL     1     -11.110  15.905  69.256  1.00  0.00    -0.312 A  
HETATM   14  N   UNL     1     -11.203  16.466  70.447  1.00  0.00    -0.335 NA 
ENDROOT
BRANCH  11  15
HETATM   15  C   UNL     1     -11.697  13.760  68.090  1.00  0.00    -0.357 C  
BRANCH  15  16
HETATM   16  O   UNL     1     -11.486  14.518  66.900  1.00  0.00    -0.340 OA 
BRANCH  16  17
HETATM   17  C   UNL     1     -10.444  13.939  66.104  1.00  0.00    -0.297 C  
BRANCH  17  18
HETATM   18  C   UNL     1     -10.967  13.721  64.688  1.00  0.00    -0.400 C  
HETATM   19  O   UNL     1      -9.971  13.083  63.892  1.00  0.00    -0.713 OA 
HETATM   20  H   UNL     1     -10.297  12.947  63.010  1.00  0.00     0.000 HD 
ENDBRANCH  17  18
ENDBRANCH  16  17
ENDBRANCH  15  16
ENDBRANCH  11  15
TORSDOF 4
ENDMDL
MODEL       39
REMARK 921   NORMALIZED FREE ENERGY PREDICTED BY IDOCK:   -5.22 KCAL/MOL
REMARK 922        TOTAL FREE ENERGY PREDICTED BY IDOCK:   -6.66 KCAL/MOL
REMARK 923 INTER-LIGAND FREE ENERGY PREDICTED BY IDOCK:   -6.49 KCAL/MOL
REMARK 924 INTRA-LIGAND FREE ENERGY PREDICTED BY IDOCK:   -0.17 KCAL/MOL
REMARK 927      BINDING AFFINITY PREDICTED BY RF-SCORE:    0.00 PKD
ROOT
HETATM    1  N   UNL     1     -10.957   9.074  68.444  1.00  0.00    -0.462 NA 
HETATM    2  H2  UNL     1     -11.174   8.110  68.698  1.00  0.00     0.000 HD 
HETATM    3  H1  UNL     1     -10.411   9.266  67.604  1.00  0.00     0.000 HD 
HETATM    4  C   UNL     1     -11.395  10.094  69.223  1.00  0.00    -0.156 C  
HETATM    5  N   UNL     1     -12.091   9.849  70.292  1.00  0.00    -0.464 N  
HETATM    6  C   UNL     1     -12.572  10.910  71.073  1.00  0.00    -0.417 C  
HETATM    7  H   UNL     1     -12.288   8.886  70.564  1.00  0.00     0.000 HD 
HETATM    8  C   UNL     1     -12.273  12.253  70.555  1.00  0.00    -0.300 A  
HETATM    9  O   UNL     1     -13.199  10.730  72.112  1.00  0.00    -0.473 OA 
HETATM   10  C   UNL     1     -11.521  12.384  69.417  1.00  0.00    -0.271 A  
HETATM   11  N   UNL     1     -11.431  13.712  69.148  1.00  0.00    -0.278 NA 
HETATM   12  N   UNL     1     -11.033  11.330  68.745  1.00  0.00    -0.203 NA 
HETATM   13  C   UNL     1     -12.125  14.350  70.149  1.00  0.00    -0.335 A  
HETATM   14  N   UNL     1     -12.639  13.499  71.018  1.00  0.00    -0.365 NA 
ENDROOT
BRANCH  11  15
HETATM   15  C   UNL     1     -10.686  14.362  68.092  1.00  0.00    -0.236 C  
BRANCH  15  16
HETATM   16  O   UNL     1     -11.587  14.713  67.044  1.00  0.00    -0.362 OA 
BRANCH  16  17
HETATM   17  C   UNL     1     -10.997  15.678  66.164  1.00  0.00    -0.206 C  
BRANCH  17  18
HETATM   18  C   UNL     1     -11.234  15.243  64.722  1.00  0.00    -0.396 C  
HETATM   19  O   UNL     1     -11.530  16.377  63.911  1.00  0.00    -1.569 OA 
HETATM   20  H   UNL     1     -11.678  16.105  63.012  1.00  0.00     0.000 HD 
ENDBRANCH  17  18
ENDBRANCH  16  17
ENDBRANCH  15  16
ENDBRANCH  11  15
TORSDOF 4
ENDMDL
MODEL       40
REMARK 921   NORMALIZED FREE ENERGY PREDICTED BY IDOCK:   -5.21 KCAL/MOL
REMARK 922        TOTAL FREE ENERGY PREDICTED BY IDOCK:   -6.65 KCAL/MOL
REMARK 923 INTER-LIGAND FREE ENERGY PREDICTED BY IDOCK:   -6.26 KCAL/MOL
REMARK 924 INTRA-LIGAND FREE ENERGY PREDICTED BY IDOCK:   -0.40 KCAL/MOL
REMARK 927      BINDING AFFINITY PREDICTED BY RF-SCORE:    0.00 PKD
ROOT
HETATM    1  N   UNL     1     -11.850  13.034  70.244  1.00  0.00    -0.532 NA 
HETATM    2  H2  UNL     1     -11.527  13.080  71.211  1.00  0.00     0.000 HD 
HETATM    3  H1  UNL     1     -12.590  12.381  69.986  1.00  0.00     0.000 HD 
HETATM    4  C   UNL     1     -11.293  13.841  69.307  1.00  0.00    -0.273 C  
HETATM    5  N   UNL     1     -10.351  14.673  69.635  1.00  0.00    -0.431 N  
HETATM    6  C   UNL     1      -9.805  15.530  68.669  1.00  0.00    -0.207 C  
HETATM    7  H   UNL     1     -10.008  14.703  70.595  1.00  0.00     0.000 HD 
HETATM    8  C   UNL     1     -10.415  15.435  67.334  1.00  0.00    -0.277 A  
HETATM    9  O   UNL     1      -8.888  16.305  68.920  1.00  0.00    -0.231 OA 
HETATM   10  C   UNL     1     -11.400  14.511  67.107  1.00  0.00    -0.350 A  
HETATM   11  N   UNL     1     -11.804  14.664  65.820  1.00  0.00    -0.317 NA 
HETATM   12  N   UNL     1     -11.838  13.671  68.057  1.00  0.00    -0.354 NA 
HETATM   13  C   UNL     1     -11.033  15.676  65.299  1.00  0.00    -0.364 A  
HETATM   14  N   UNL     1     -10.180  16.158  66.183  1.00  0.00    -0.318 NA 
ENDROOT
BRANCH  11  15
HETATM   15  C   UNL     1     -12.772  13.878  65.086  1.00  0.00    -0.398 C  
BRANCH  15  16
HETATM   16  O   UNL     1     -12.245  13.596  63.791  1.00  0.00    -0.606 OA 
BRANCH  16  17
HETATM   17  C   UNL     1     -12.065  12.186  63.609  1.00  0.00    -0.551 C  
BRANCH  17  18
HETATM   18  C   UNL     1     -10.613  11.918  63.227  1.00  0.00    -0.365 C  
HETATM   19  O   UNL     1      -9.757  12.864  63.862  1.00  0.00    -0.682 OA 
HETATM   20  H   UNL     1      -8.853  12.696  63.624  1.00  0.00     0.000 HD 
ENDBRANCH  17  18
ENDBRANCH  16  17
ENDBRANCH  15  16
ENDBRANCH  11  15
TORSDOF 4
ENDMDL
MODEL       41
REMARK 921   NORMALIZED FREE ENERGY PREDICTED BY IDOCK:   -5.19 KCAL/MOL
REMARK 922        TOTAL FREE ENERGY PREDICTED BY IDOCK:   -6.63 KCAL/MOL
REMARK 923 INTER-LIGAND FREE ENERGY PREDICTED BY IDOCK:   -6.47 KCAL/MOL
REMARK 924 INTRA-LIGAND FREE ENERGY PREDICTED BY IDOCK:   -0.16 KCAL/MOL
REMARK 927      BINDING AFFINITY PREDICTED BY RF-SCORE:    0.00 PKD
ROOT
HETATM    1  N   UNL     1     -12.954  14.009  65.091  1.00  0.00    -0.771 NA 
HETATM    2  H2  UNL     1     -13.019  14.325  64.123  1.00  0.00     0.000 HD 
HETATM    3  H1  UNL     1     -13.473  14.498  65.820  1.00  0.00     0.000 HD 
HETATM    4  C   UNL     1     -12.178  12.942  65.402  1.00  0.00    -0.478 C  
HETATM    5  N   UNL     1     -11.517  12.319  64.473  1.00  0.00    -0.327 N  
HETATM    6  C   UNL     1     -10.745  11.194  64.796  1.00  0.00    -0.264 C  
HETATM    7  H   UNL     1     -11.559  12.648  63.509  1.00  0.00     0.000 HD 
HETATM    8  C   UNL     1     -10.804  10.780  66.206  1.00  0.00    -0.073 A  
HETATM    9  O   UNL     1     -10.073  10.596  63.962  1.00  0.00    -0.328 OA 
HETATM   10  C   UNL     1     -11.531  11.524  67.097  1.00  0.00    -0.237 A  
HETATM   11  N   UNL     1     -11.444  10.905  68.302  1.00  0.00    -0.385 NA 
HETATM   12  N   UNL     1     -12.200  12.632  66.740  1.00  0.00    -0.476 NA 
HETATM   13  C   UNL     1     -10.645   9.803  68.104  1.00  0.00    -0.231 A  
HETATM   14  N   UNL     1     -10.236   9.703  66.853  1.00  0.00    -0.230 NA 
ENDROOT
BRANCH  11  15
HETATM   15  C   UNL     1     -11.983  11.338  69.572  1.00  0.00    -0.351 C  
BRANCH  15  16
HETATM   16  O   UNL     1     -11.801  10.293  70.527  1.00  0.00    -0.281 OA 
BRANCH  16  17
HETATM   17  C   UNL     1     -12.813  10.347  71.541  1.00  0.00    -0.464 C  
BRANCH  17  18
HETATM   18  C   UNL     1     -12.848   9.011  72.276  1.00  0.00    -0.406 C  
HETATM   19  O   UNL     1     -13.793   9.064  73.341  1.00  0.00    -1.173 OA 
HETATM   20  H   UNL     1     -13.815   8.231  73.799  1.00  0.00     0.000 HD 
ENDBRANCH  17  18
ENDBRANCH  16  17
ENDBRANCH  15  16
ENDBRANCH  11  15
TORSDOF 4
ENDMDL
MODEL       42
REMARK 921   NORMALIZED FREE ENERGY PREDICTED BY IDOCK:   -5.15 KCAL/MOL
REMARK 922        TOTAL FREE ENERGY PREDICTED BY IDOCK:   -6.58 KCAL/MOL
REMARK 923 INTER-LIGAND FREE ENERGY PREDICTED BY IDOCK:   -6.30 KCAL/MOL
REMARK 924 INTRA-LIGAND FREE ENERGY PREDICTED BY IDOCK:   -0.27 KCAL/MOL
REMARK 927      BINDING AFFINITY PREDICTED BY RF-SCORE:    0.00 PKD
ROOT
HETATM    1  N   UNL     1     -10.683  16.385  69.755  1.00  0.00    -0.334 NA 
HETATM    2  H2  UNL     1     -10.574  17.390  69.897  1.00  0.00     0.000 HD 
HETATM    3  H1  UNL     1     -10.107  15.905  69.064  1.00  0.00     0.000 HD 
HETATM    4  C   UNL     1     -11.593  15.695  70.486  1.00  0.00    -0.360 C  
HETATM    5  N   UNL     1     -12.327  16.306  71.366  1.00  0.00    -0.515 N  
HETATM    6  C   UNL     1     -13.241  15.580  72.143  1.00  0.00    -0.450 C  
HETATM    7  H   UNL     1     -12.240  17.315  71.491  1.00  0.00     0.000 HD 
HETATM    8  C   UNL     1     -13.241  14.128  71.913  1.00  0.00    -0.387 A  
HETATM    9  O   UNL     1     -13.983  16.118  72.959  1.00  0.00    -0.516 OA 
HETATM   10  C   UNL     1     -12.425  13.599  70.949  1.00  0.00    -0.371 A  
HETATM   11  N   UNL     1     -12.597  12.252  70.974  1.00  0.00    -0.326 NA 
HETATM   12  N   UNL     1     -11.616  14.353  70.189  1.00  0.00    -0.275 NA 
HETATM   13  C   UNL     1     -13.532  12.008  71.952  1.00  0.00    -0.205 A  
HETATM   14  N   UNL     1     -13.946  13.118  72.532  1.00  0.00    -0.677 NA 
ENDROOT
BRANCH  11  15
HETATM   15  C   UNL     1     -12.009  11.258  70.102  1.00  0.00    -0.369 C  
BRANCH  15  16
HETATM   16  O   UNL     1     -12.119   9.980  70.725  1.00  0.00    -0.292 OA 
BRANCH  16  17
HETATM   17  C   UNL     1     -10.835   9.506  71.149  1.00  0.00    -0.355 C  
BRANCH  17  18
HETATM   18  C   UNL     1     -11.027   8.488  72.269  1.00  0.00    -0.355 C  
HETATM   19  O   UNL     1     -12.367   8.538  72.750  1.00  0.00    -0.517 OA 
HETATM   20  H   UNL     1     -12.487   7.904  73.447  1.00  0.00     0.000 HD 
ENDBRANCH  17  18
ENDBRANCH  16  17
ENDBRANCH  15  16
ENDBRANCH  11  15
TORSDOF 4
ENDMDL
MODEL       43
REMARK 921   NORMALIZED FREE ENERGY PREDICTED BY IDOCK:   -5.14 KCAL/MOL
REMARK 922        TOTAL FREE ENERGY PREDICTED BY IDOCK:   -6.56 KCAL/MOL
REMARK 923 INTER-LIGAND FREE ENERGY PREDICTED BY IDOCK:   -6.30 KCAL/MOL
REMARK 924 INTRA-LIGAND FREE ENERGY PREDICTED BY IDOCK:   -0.26 KCAL/MOL
REMARK 927      BINDING AFFINITY PREDICTED BY RF-SCORE:    0.00 PKD
ROOT
HETATM    1  N   UNL     1     -10.054  11.298  62.607  1.00  0.00    -0.596 NA 
HETATM    2  H2  UNL     1     -10.294  11.758  61.729  1.00  0.00     0.000 HD 
HETATM    3  H1  UNL     1      -9.334  10.575  62.622  1.00  0.00     0.000 HD 
HETATM    4  C   UNL     1     -10.692  11.651  63.750  1.00  0.00    -0.419 C  
HETATM    5  N   UNL     1     -11.608  12.572  63.733  1.00  0.00    -0.432 N  
HETATM    6  C   UNL     1     -12.238  12.957  64.924  1.00  0.00    -0.453 C  
HETATM    7  H   UNL     1     -11.869  13.015  62.852  1.00  0.00     0.000 HD 
HETATM    8  C   UNL     1     -11.743  12.289  66.137  1.00  0.00    -0.376 A  
HETATM    9  O   UNL     1     -13.135  13.793  64.953  1.00  0.00    -0.716 OA 
HETATM   10  C   UNL     1     -10.776  11.325  66.028  1.00  0.00    -0.242 A  
HETATM   11  N   UNL     1     -10.483  10.908  67.286  1.00  0.00    -0.219 NA 
HETATM   12  N   UNL     1     -10.254  10.952  64.849  1.00  0.00    -0.300 NA 
HETATM   13  C   UNL     1     -11.301  11.628  68.124  1.00  0.00    -0.292 A  
HETATM   14  N   UNL     1     -12.078  12.464  67.463  1.00  0.00    -0.472 NA 
ENDROOT
BRANCH  11  15
HETATM   15  C   UNL     1      -9.576   9.856  67.692  1.00  0.00    -0.148 C  
BRANCH  15  16
HETATM   16  O   UNL     1     -10.330   8.667  67.928  1.00  0.00    -0.215 OA 
BRANCH  16  17
HETATM   17  C   UNL     1     -10.193   7.750  66.836  1.00  0.00    -0.303 C  
BRANCH  17  18
HETATM   18  C   UNL     1     -10.918   6.455  67.183  1.00  0.00    -0.399 C  
HETATM   19  O   UNL     1     -11.105   5.669  66.009  1.00  0.00    -0.721 OA 
HETATM   20  H   UNL     1     -11.557   4.862  66.226  1.00  0.00     0.000 HD 
ENDBRANCH  17  18
ENDBRANCH  16  17
ENDBRANCH  15  16
ENDBRANCH  11  15
TORSDOF 4
ENDMDL
MODEL       44
REMARK 921   NORMALIZED FREE ENERGY PREDICTED BY IDOCK:   -5.12 KCAL/MOL
REMARK 922        TOTAL FREE ENERGY PREDICTED BY IDOCK:   -6.54 KCAL/MOL
REMARK 923 INTER-LIGAND FREE ENERGY PREDICTED BY IDOCK:   -6.39 KCAL/MOL
REMARK 924 INTRA-LIGAND FREE ENERGY PREDICTED BY IDOCK:   -0.16 KCAL/MOL
REMARK 927      BINDING AFFINITY PREDICTED BY RF-SCORE:    0.00 PKD
ROOT
HETATM    1  N   UNL     1     -10.305  15.865  69.908  1.00  0.00    -0.295 NA 
HETATM    2  H2  UNL     1     -10.009  16.546  70.608  1.00  0.00     0.000 HD 
HETATM    3  H1  UNL     1     -10.501  14.904  70.186  1.00  0.00     0.000 HD 
HETATM    4  C   UNL     1     -10.436  16.243  68.612  1.00  0.00    -0.282 C  
HETATM    5  N   UNL     1     -10.187  17.468  68.258  1.00  0.00    -0.343 N  
HETATM    6  C   UNL     1     -10.359  17.860  66.923  1.00  0.00    -0.355 C  
HETATM    7  H   UNL     1      -9.866  18.144  68.951  1.00  0.00     0.000 HD 
HETATM    8  C   UNL     1     -10.878  16.816  66.027  1.00  0.00    -0.026 A  
HETATM    9  O   UNL     1     -10.100  18.994  66.532  1.00  0.00    -0.348 OA 
HETATM   10  C   UNL     1     -11.095  15.556  66.516  1.00  0.00    -0.182 A  
HETATM   11  N   UNL     1     -11.602  14.813  65.499  1.00  0.00    -0.330 NA 
HETATM   12  N   UNL     1     -10.851  15.221  67.793  1.00  0.00    -0.287 NA 
HETATM   13  C   UNL     1     -11.661  15.652  64.411  1.00  0.00    -0.249 A  
HETATM   14  N   UNL     1     -11.225  16.864  64.693  1.00  0.00    -0.956 NA 
ENDROOT
BRANCH  11  15
HETATM   15  C   UNL     1     -11.929  13.404  65.496  1.00  0.00    -0.398 C  
BRANCH  15  16
HETATM   16  O   UNL     1     -12.899  13.161  64.478  1.00  0.00    -0.680 OA 
BRANCH  16  17
HETATM   17  C   UNL     1     -12.439  12.159  63.563  1.00  0.00    -0.555 C  
BRANCH  17  18
HETATM   18  C   UNL     1     -10.917  12.094  63.623  1.00  0.00    -0.461 C  
HETATM   19  O   UNL     1     -10.424  11.232  62.602  1.00  0.00    -0.643 OA 
HETATM   20  H   UNL     1      -9.475  11.192  62.639  1.00  0.00     0.000 HD 
ENDBRANCH  17  18
ENDBRANCH  16  17
ENDBRANCH  15  16
ENDBRANCH  11  15
TORSDOF 4
ENDMDL
MODEL       45
REMARK 921   NORMALIZED FREE ENERGY PREDICTED BY IDOCK:   -5.12 KCAL/MOL
REMARK 922        TOTAL FREE ENERGY PREDICTED BY IDOCK:   -6.53 KCAL/MOL
REMARK 923 INTER-LIGAND FREE ENERGY PREDICTED BY IDOCK:   -6.31 KCAL/MOL
REMARK 924 INTRA-LIGAND FREE ENERGY PREDICTED BY IDOCK:   -0.23 KCAL/MOL
REMARK 927      BINDING AFFINITY PREDICTED BY RF-SCORE:    0.00 PKD
ROOT
HETATM    1  N   UNL     1     -11.208  16.772  69.922  1.00  0.00    -0.354 NA 
HETATM    2  H2  UNL     1     -11.284  17.498  70.635  1.00  0.00     0.000 HD 
HETATM    3  H1  UNL     1     -10.805  16.994  69.012  1.00  0.00     0.000 HD 
HETATM    4  C   UNL     1     -11.641  15.515  70.190  1.00  0.00    -0.337 C  
HETATM    5  N   UNL     1     -12.154  15.231  71.350  1.00  0.00    -0.320 N  
HETATM    6  C   UNL     1     -12.567  13.922  71.632  1.00  0.00    -0.298 C  
HETATM    7  H   UNL     1     -12.256  15.962  72.055  1.00  0.00     0.000 HD 
HETATM    8  C   UNL     1     -12.321  12.945  70.561  1.00  0.00    -0.283 A  
HETATM    9  O   UNL     1     -13.092  13.613  72.697  1.00  0.00    -0.447 OA 
HETATM   10  C   UNL     1     -11.781  13.366  69.376  1.00  0.00    -0.325 A  
HETATM   11  N   UNL     1     -11.630  12.269  68.592  1.00  0.00    -0.300 NA 
HETATM   12  N   UNL     1     -11.463  14.649  69.139  1.00  0.00    -0.277 NA 
HETATM   13  C   UNL     1     -12.103  11.208  69.329  1.00  0.00    -0.308 A  
HETATM   14  N   UNL     1     -12.534  11.583  70.518  1.00  0.00    -0.305 NA 
ENDROOT
BRANCH  11  15
HETATM   15  C   UNL     1     -11.164  12.203  67.224  1.00  0.00    -0.306 C  
BRANCH  15  16
HETATM   16  O   UNL     1     -12.295  12.213  66.353  1.00  0.00    -0.489 OA 
BRANCH  16  17
HETATM   17  C   UNL     1     -12.177  13.253  65.375  1.00  0.00    -0.456 C  
BRANCH  17  18
HETATM   18  C   UNL     1     -12.258  12.636  63.983  1.00  0.00    -0.463 C  
HETATM   19  O   UNL     1     -12.347  13.661  62.998  1.00  0.00    -1.041 OA 
HETATM   20  H   UNL     1     -12.398  13.276  62.130  1.00  0.00     0.000 HD 
ENDBRANCH  17  18
ENDBRANCH  16  17
ENDBRANCH  15  16
ENDBRANCH  11  15
TORSDOF 4
ENDMDL
MODEL       46
REMARK 921   NORMALIZED FREE ENERGY PREDICTED BY IDOCK:   -5.10 KCAL/MOL
REMARK 922        TOTAL FREE ENERGY PREDICTED BY IDOCK:   -6.51 KCAL/MOL
REMARK 923 INTER-LIGAND FREE ENERGY PREDICTED BY IDOCK:   -6.31 KCAL/MOL
REMARK 924 INTRA-LIGAND FREE ENERGY PREDICTED BY IDOCK:   -0.20 KCAL/MOL
REMARK 927      BINDING AFFINITY PREDICTED BY RF-SCORE:    0.00 PKD
ROOT
HETATM    1  N   UNL     1     -12.395  11.396  70.497  1.00  0.00    -0.353 NA 
HETATM    2  H2  UNL     1     -12.407  10.970  71.423  1.00  0.00     0.000 HD 
HETATM    3  H1  UNL     1     -12.848  12.298  70.347  1.00  0.00     0.000 HD 
HETATM    4  C   UNL     1     -11.777  10.763  69.469  1.00  0.00    -0.312 C  
HETATM    5  N   UNL     1     -11.201   9.614  69.659  1.00  0.00    -0.384 N  
HETATM    6  C   UNL     1     -10.533   8.982  68.601  1.00  0.00    -0.200 C  
HETATM    7  H   UNL     1     -11.233   9.173  70.578  1.00  0.00     0.000 HD 
HETATM    8  C   UNL     1     -10.504   9.737  67.340  1.00  0.00    -0.259 A  
HETATM    9  O   UNL     1     -10.006   7.880  68.721  1.00  0.00    -0.176 OA 
HETATM   10  C   UNL     1     -11.158  10.938  67.259  1.00  0.00    -0.283 A  
HETATM   11  N   UNL     1     -10.941  11.429  66.012  1.00  0.00    -0.264 NA 
HETATM   12  N   UNL     1     -11.837  11.465  68.290  1.00  0.00    -0.567 NA 
HETATM   13  C   UNL     1     -10.168  10.493  65.366  1.00  0.00    -0.270 A  
HETATM   14  N   UNL     1      -9.894   9.457  66.136  1.00  0.00    -0.271 NA 
ENDROOT
BRANCH  11  15
HETATM   15  C   UNL     1     -11.477  12.634  65.418  1.00  0.00    -0.338 C  
BRANCH  15  16
HETATM   16  O   UNL     1     -10.429  13.309  64.725  1.00  0.00    -0.348 OA 
BRANCH  16  17
HETATM   17  C   UNL     1     -10.394  14.698  65.078  1.00  0.00    -0.402 C  
BRANCH  17  18
HETATM   18  C   UNL     1     -11.763  15.312  64.808  1.00  0.00    -0.276 C  
HETATM   19  O   UNL     1     -11.652  16.343  63.830  1.00  0.00    -1.605 OA 
HETATM   20  H   UNL     1     -12.506  16.725  63.662  1.00  0.00     0.000 HD 
ENDBRANCH  17  18
ENDBRANCH  16  17
ENDBRANCH  15  16
ENDBRANCH  11  15
TORSDOF 4
ENDMDL
MODEL       47
REMARK 921   NORMALIZED FREE ENERGY PREDICTED BY IDOCK:   -5.06 KCAL/MOL
REMARK 922        TOTAL FREE ENERGY PREDICTED BY IDOCK:   -6.47 KCAL/MOL
REMARK 923 INTER-LIGAND FREE ENERGY PREDICTED BY IDOCK:   -6.28 KCAL/MOL
REMARK 924 INTRA-LIGAND FREE ENERGY PREDICTED BY IDOCK:   -0.18 KCAL/MOL
REMARK 927      BINDING AFFINITY PREDICTED BY RF-SCORE:    0.00 PKD
ROOT
HETATM    1  N   UNL     1     -10.413  17.670  65.332  1.00  0.00    -0.621 NA 
HETATM    2  H2  UNL     1     -10.499  17.902  64.343  1.00  0.00     0.000 HD 
HETATM    3  H1  UNL     1     -10.087  18.376  65.992  1.00  0.00     0.000 HD 
HETATM    4  C   UNL     1     -10.731  16.424  65.764  1.00  0.00    -0.238 C  
HETATM    5  N   UNL     1     -11.145  15.525  64.924  1.00  0.00    -0.482 N  
HETATM    6  C   UNL     1     -11.507  14.250  65.383  1.00  0.00    -0.332 C  
HETATM    7  H   UNL     1     -11.208  15.745  63.930  1.00  0.00     0.000 HD 
HETATM    8  C   UNL     1     -11.428  14.066  66.840  1.00  0.00    -0.356 A  
HETATM    9  O   UNL     1     -11.867  13.356  64.625  1.00  0.00    -0.360 OA 
HETATM   10  C   UNL     1     -10.966  15.088  67.625  1.00  0.00    -0.305 A  
HETATM   11  N   UNL     1     -11.032  14.666  68.913  1.00  0.00    -0.243 NA 
HETATM   12  N   UNL     1     -10.573  16.268  67.121  1.00  0.00    -0.310 NA 
HETATM   13  C   UNL     1     -11.521  13.382  68.866  1.00  0.00    -0.304 A  
HETATM   14  N   UNL     1     -11.763  12.987  67.630  1.00  0.00    -0.354 NA 
ENDROOT
BRANCH  11  15
HETATM   15  C   UNL     1     -10.594  15.358  70.106  1.00  0.00    -0.295 C  
BRANCH  15  16
HETATM   16  O   UNL     1     -11.742  15.825  70.812  1.00  0.00    -0.333 OA 
BRANCH  16  17
HETATM   17  C   UNL     1     -11.804  15.253  72.124  1.00  0.00    -0.439 C  
BRANCH  17  18
HETATM   18  C   UNL     1     -12.321  16.304  73.099  1.00  0.00    -0.499 C  
HETATM   19  O   UNL     1     -13.670  16.017  73.457  1.00  0.00    -0.814 OA 
HETATM   20  H   UNL     1     -13.993  16.672  74.065  1.00  0.00     0.000 HD 
ENDBRANCH  17  18
ENDBRANCH  16  17
ENDBRANCH  15  16
ENDBRANCH  11  15
TORSDOF 4
ENDMDL
MODEL       48
REMARK 921   NORMALIZED FREE ENERGY PREDICTED BY IDOCK:   -5.05 KCAL/MOL
REMARK 922        TOTAL FREE ENERGY PREDICTED BY IDOCK:   -6.45 KCAL/MOL
REMARK 923 INTER-LIGAND FREE ENERGY PREDICTED BY IDOCK:   -6.01 KCAL/MOL
REMARK 924 INTRA-LIGAND FREE ENERGY PREDICTED BY IDOCK:   -0.44 KCAL/MOL
REMARK 927      BINDING AFFINITY PREDICTED BY RF-SCORE:    0.00 PKD
ROOT
HETATM    1  N   UNL     1     -13.039  10.140  71.686  1.00  0.00    -0.420 NA 
HETATM    2  H2  UNL     1     -13.533   9.754  72.491  1.00  0.00     0.000 HD 
HETATM    3  H1  UNL     1     -12.616   9.514  71.002  1.00  0.00     0.000 HD 
HETATM    4  C   UNL     1     -12.948  11.484  71.532  1.00  0.00    -0.380 C  
HETATM    5  N   UNL     1     -13.487  12.283  72.403  1.00  0.00    -0.557 N  
HETATM    6  C   UNL     1     -13.421  13.671  72.218  1.00  0.00    -0.555 C  
HETATM    7  H   UNL     1     -13.959  11.900  73.223  1.00  0.00     0.000 HD 
HETATM    8  C   UNL     1     -12.765  14.104  70.975  1.00  0.00    -0.362 A  
HETATM    9  O   UNL     1     -13.880  14.466  73.032  1.00  0.00    -0.553 OA 
HETATM   10  C   UNL     1     -12.225  13.167  70.136  1.00  0.00    -0.290 A  
HETATM   11  N   UNL     1     -11.723  13.830  69.063  1.00  0.00    -0.307 NA 
HETATM   12  N   UNL     1     -12.264  11.851  70.398  1.00  0.00    -0.338 NA 
HETATM   13  C   UNL     1     -11.963  15.164  69.297  1.00  0.00    -0.292 A  
HETATM   14  N   UNL     1     -12.582  15.364  70.445  1.00  0.00    -0.404 NA 
ENDROOT
BRANCH  11  15
HETATM   15  C   UNL     1     -10.994  13.290  67.937  1.00  0.00    -0.249 C  
BRANCH  15  16
HETATM   16  O   UNL     1      -9.795  12.683  68.416  1.00  0.00    -0.226 OA 
BRANCH  16  17
HETATM   17  C   UNL     1      -9.627  11.374  67.859  1.00  0.00    -0.177 C  
BRANCH  17  18
HETATM   18  C   UNL     1     -10.964  10.898  67.301  1.00  0.00    -0.294 C  
HETATM   19  O   UNL     1     -11.647  10.110  68.273  1.00  0.00    -0.609 OA 
HETATM   20  H   UNL     1     -12.480   9.814  67.925  1.00  0.00     0.000 HD 
ENDBRANCH  17  18
ENDBRANCH  16  17
ENDBRANCH  15  16
ENDBRANCH  11  15
TORSDOF 4
ENDMDL
MODEL       49
REMARK 921   NORMALIZED FREE ENERGY PREDICTED BY IDOCK:   -5.04 KCAL/MOL
REMARK 922        TOTAL FREE ENERGY PREDICTED BY IDOCK:   -6.44 KCAL/MOL
REMARK 923 INTER-LIGAND FREE ENERGY PREDICTED BY IDOCK:   -5.87 KCAL/MOL
REMARK 924 INTRA-LIGAND FREE ENERGY PREDICTED BY IDOCK:   -0.57 KCAL/MOL
REMARK 927      BINDING AFFINITY PREDICTED BY RF-SCORE:    0.00 PKD
ROOT
HETATM    1  N   UNL     1      -9.205  15.329  67.113  1.00  0.00    -0.201 NA 
HETATM    2  H2  UNL     1      -9.206  16.308  67.399  1.00  0.00     0.000 HD 
HETATM    3  H1  UNL     1      -8.595  14.662  67.587  1.00  0.00     0.000 HD 
HETATM    4  C   UNL     1     -10.015  14.919  66.106  1.00  0.00    -0.303 C  
HETATM    5  N   UNL     1     -10.792  15.767  65.502  1.00  0.00    -0.346 N  
HETATM    6  C   UNL     1     -11.652  15.329  64.486  1.00  0.00    -0.312 C  
HETATM    7  H   UNL     1     -10.775  16.752  65.767  1.00  0.00     0.000 HD 
HETATM    8  C   UNL     1     -11.628  13.882  64.227  1.00  0.00    -0.355 A  
HETATM    9  O   UNL     1     -12.376  16.097  63.860  1.00  0.00    -0.895 OA 
HETATM   10  C   UNL     1     -10.758  13.087  64.925  1.00  0.00    -0.332 A  
HETATM   11  N   UNL     1     -10.969  11.809  64.520  1.00  0.00    -0.313 NA 
HETATM   12  N   UNL     1      -9.909  13.574  65.844  1.00  0.00    -0.272 NA 
HETATM   13  C   UNL     1     -11.961  11.872  63.569  1.00  0.00    -0.466 A  
HETATM   14  N   UNL     1     -12.375  13.108  63.363  1.00  0.00    -0.746 NA 
ENDROOT
BRANCH  11  15
HETATM   15  C   UNL     1     -10.253  10.615  64.911  1.00  0.00    -0.324 C  
BRANCH  15  16
HETATM   16  O   UNL     1     -10.847  10.092  66.098  1.00  0.00    -0.014 OA 
BRANCH  16  17
HETATM   17  C   UNL     1      -9.981  10.272  67.226  1.00  0.00    -0.190 C  
BRANCH  17  18
HETATM   18  C   UNL     1     -10.703  11.109  68.276  1.00  0.00    -0.196 C  
HETATM   19  O   UNL     1     -11.913  11.634  67.736  1.00  0.00    -0.608 OA 
HETATM   20  H   UNL     1     -12.362  12.156  68.391  1.00  0.00     0.000 HD 
ENDBRANCH  17  18
ENDBRANCH  16  17
ENDBRANCH  15  16
ENDBRANCH  11  15
TORSDOF 4
ENDMDL
MODEL       50
REMARK 921   NORMALIZED FREE ENERGY PREDICTED BY IDOCK:   -5.01 KCAL/MOL
REMARK 922        TOTAL FREE ENERGY PREDICTED BY IDOCK:   -6.41 KCAL/MOL
REMARK 923 INTER-LIGAND FREE ENERGY PREDICTED BY IDOCK:   -6.23 KCAL/MOL
REMARK 924 INTRA-LIGAND FREE ENERGY PREDICTED BY IDOCK:   -0.18 KCAL/MOL
REMARK 927      BINDING AFFINITY PREDICTED BY RF-SCORE:    0.00 PKD
ROOT
HETATM    1  N   UNL     1     -12.209  14.219  68.557  1.00  0.00    -0.577 NA 
HETATM    2  H2  UNL     1     -12.797  15.026  68.767  1.00  0.00     0.000 HD 
HETATM    3  H1  UNL     1     -11.806  13.673  69.318  1.00  0.00     0.000 HD 
HETATM    4  C   UNL     1     -11.967  13.879  67.267  1.00  0.00    -0.411 C  
HETATM    5  N   UNL     1     -12.480  14.575  66.298  1.00  0.00    -0.364 N  
HETATM    6  C   UNL     1     -12.254  14.196  64.967  1.00  0.00    -0.441 C  
HETATM    7  H   UNL     1     -13.046  15.397  66.504  1.00  0.00     0.000 HD 
HETATM    8  C   UNL     1     -11.470  12.964  64.792  1.00  0.00    -0.321 A  
HETATM    9  O   UNL     1     -12.685  14.842  64.017  1.00  0.00    -0.786 OA 
HETATM   10  C   UNL     1     -10.973  12.320  65.894  1.00  0.00    -0.302 A  
HETATM   11  N   UNL     1     -10.329  11.210  65.453  1.00  0.00    -0.264 NA 
HETATM   12  N   UNL     1     -11.168  12.767  67.145  1.00  0.00    -0.278 NA 
HETATM   13  C   UNL     1     -10.443  11.225  64.082  1.00  0.00    -0.369 A  
HETATM   14  N   UNL     1     -11.119  12.274  63.651  1.00  0.00    -0.435 NA 
ENDROOT
BRANCH  11  15
HETATM   15  C   UNL     1      -9.581  10.242  66.225  1.00  0.00    -0.189 C  
BRANCH  15  16
HETATM   16  O   UNL     1     -10.387   9.078  66.405  1.00  0.00    -0.261 OA 
BRANCH  16  17
HETATM   17  C   UNL     1      -9.574   7.932  66.685  1.00  0.00    -0.226 C  
BRANCH  17  18
HETATM   18  C   UNL     1     -10.420   6.889  67.408  1.00  0.00    -0.269 C  
HETATM   19  O   UNL     1     -11.223   6.176  66.471  1.00  0.00    -0.741 OA 
HETATM   20  H   UNL     1     -11.750   5.526  66.921  1.00  0.00     0.000 HD 
ENDBRANCH  17  18
ENDBRANCH  16  17
ENDBRANCH  15  16
ENDBRANCH  11  15
TORSDOF 4
ENDMDL
MODEL       51
REMARK 921   NORMALIZED FREE ENERGY PREDICTED BY IDOCK:   -5.01 KCAL/MOL
REMARK 922        TOTAL FREE ENERGY PREDICTED BY IDOCK:   -6.40 KCAL/MOL
REMARK 923 INTER-LIGAND FREE ENERGY PREDICTED BY IDOCK:   -6.17 KCAL/MOL
REMARK 924 INTRA-LIGAND FREE ENERGY PREDICTED BY IDOCK:   -0.24 KCAL/MOL
REMARK 927      BINDING AFFINITY PREDICTED BY RF-SCORE:    0.00 PKD
ROOT
HETATM    1  N   UNL     1      -9.605   9.608  64.862  1.00  0.00    -0.425 NA 
HETATM    2  H2  UNL     1      -9.442   9.116  63.984  1.00  0.00     0.000 HD 
HETATM    3  H1  UNL     1      -9.122   9.308  65.709  1.00  0.00     0.000 HD 
HETATM    4  C   UNL     1     -10.462  10.658  64.899  1.00  0.00    -0.212 C  
HETATM    5  N   UNL     1     -11.077  11.041  63.820  1.00  0.00    -0.455 N  
HETATM    6  C   UNL     1     -11.934  12.150  63.858  1.00  0.00    -0.486 C  
HETATM    7  H   UNL     1     -10.936  10.535  62.946  1.00  0.00     0.000 HD 
HETATM    8  C   UNL     1     -12.016  12.832  65.158  1.00  0.00    -0.424 A  
HETATM    9  O   UNL     1     -12.566  12.526  62.876  1.00  0.00    -0.271 OA 
HETATM   10  C   UNL     1     -11.326  12.328  66.228  1.00  0.00    -0.345 A  
HETATM   11  N   UNL     1     -11.548  13.162  67.276  1.00  0.00    -0.334 NA 
HETATM   12  N   UNL     1     -10.569  11.223  66.147  1.00  0.00    -0.258 NA 
HETATM   13  C   UNL     1     -12.387  14.145  66.807  1.00  0.00    -0.298 A  
HETATM   14  N   UNL     1     -12.695  13.972  65.536  1.00  0.00    -0.608 NA 
ENDROOT
BRANCH  11  15
HETATM   15  C   UNL     1     -11.094  13.022  68.643  1.00  0.00    -0.269 C  
BRANCH  15  16
HETATM   16  O   UNL     1     -12.233  12.956  69.500  1.00  0.00    -0.233 OA 
BRANCH  16  17
HETATM   17  C   UNL     1     -12.052  13.783  70.656  1.00  0.00    -0.333 C  
BRANCH  17  18
HETATM   18  C   UNL     1     -12.423  15.219  70.301  1.00  0.00    -0.363 C  
HETATM   19  O   UNL     1     -13.765  15.489  70.696  1.00  0.00    -0.851 OA 
HETATM   20  H   UNL     1     -13.996  16.384  70.475  1.00  0.00     0.000 HD 
ENDBRANCH  17  18
ENDBRANCH  16  17
ENDBRANCH  15  16
ENDBRANCH  11  15
TORSDOF 4
ENDMDL
MODEL       52
REMARK 921   NORMALIZED FREE ENERGY PREDICTED BY IDOCK:   -5.01 KCAL/MOL
REMARK 922        TOTAL FREE ENERGY PREDICTED BY IDOCK:   -6.40 KCAL/MOL
REMARK 923 INTER-LIGAND FREE ENERGY PREDICTED BY IDOCK:   -6.25 KCAL/MOL
REMARK 924 INTRA-LIGAND FREE ENERGY PREDICTED BY IDOCK:   -0.16 KCAL/MOL
REMARK 927      BINDING AFFINITY PREDICTED BY RF-SCORE:    0.00 PKD
ROOT
HETATM    1  N   UNL     1      -9.497  13.377  65.847  1.00  0.00    -0.494 NA 
HETATM    2  H2  UNL     1      -9.019  13.975  65.172  1.00  0.00     0.000 HD 
HETATM    3  H1  UNL     1      -9.434  12.363  65.759  1.00  0.00     0.000 HD 
HETATM    4  C   UNL     1     -10.210  13.934  66.856  1.00  0.00    -0.257 C  
HETATM    5  N   UNL     1     -10.290  15.225  66.969  1.00  0.00    -0.272 N  
HETATM    6  C   UNL     1     -11.000  15.794  68.036  1.00  0.00    -0.330 C  
HETATM    7  H   UNL     1      -9.836  15.826  66.281  1.00  0.00     0.000 HD 
HETATM    8  C   UNL     1     -11.565  14.831  68.994  1.00  0.00    -0.297 A  
HETATM    9  O   UNL     1     -11.136  17.006  68.164  1.00  0.00    -0.334 OA 
HETATM   10  C   UNL     1     -11.422  13.489  68.763  1.00  0.00    -0.311 A  
HETATM   11  N   UNL     1     -11.997  12.840  69.807  1.00  0.00    -0.314 NA 
HETATM   12  N   UNL     1     -10.785  13.001  67.687  1.00  0.00    -0.225 NA 
HETATM   13  C   UNL     1     -12.489  13.819  70.638  1.00  0.00    -0.359 A  
HETATM   14  N   UNL     1     -12.252  15.031  70.172  1.00  0.00    -0.328 NA 
ENDROOT
BRANCH  11  15
HETATM   15  C   UNL     1     -12.165  11.415  69.993  1.00  0.00    -0.301 C  
BRANCH  15  16
HETATM   16  O   UNL     1     -12.629  11.177  71.321  1.00  0.00    -0.387 OA 
BRANCH  16  17
HETATM   17  C   UNL     1     -12.369   9.825  71.719  1.00  0.00    -0.386 C  
BRANCH  17  18
HETATM   18  C   UNL     1     -13.696   9.083  71.847  1.00  0.00    -0.441 C  
HETATM   19  O   UNL     1     -14.049   8.947  73.221  1.00  0.00    -1.211 OA 
HETATM   20  H   UNL     1     -14.875   8.484  73.300  1.00  0.00     0.000 HD 
ENDBRANCH  17  18
ENDBRANCH  16  17
ENDBRANCH  15  16
ENDBRANCH  11  15
TORSDOF 4
ENDMDL
MODEL       53
REMARK 921   NORMALIZED FREE ENERGY PREDICTED BY IDOCK:   -5.00 KCAL/MOL
REMARK 922        TOTAL FREE ENERGY PREDICTED BY IDOCK:   -6.39 KCAL/MOL
REMARK 923 INTER-LIGAND FREE ENERGY PREDICTED BY IDOCK:   -6.14 KCAL/MOL
REMARK 924 INTRA-LIGAND FREE ENERGY PREDICTED BY IDOCK:   -0.25 KCAL/MOL
REMARK 927      BINDING AFFINITY PREDICTED BY RF-SCORE:    0.00 PKD
ROOT
HETATM    1  N   UNL     1      -9.348  16.442  67.699  1.00  0.00    -0.211 NA 
HETATM    2  H2  UNL     1      -9.102  17.430  67.635  1.00  0.00     0.000 HD 
HETATM    3  H1  UNL     1      -9.036  15.893  68.500  1.00  0.00     0.000 HD 
HETATM    4  C   UNL     1     -10.090  15.866  66.721  1.00  0.00    -0.271 C  
HETATM    5  N   UNL     1     -10.487  16.566  65.701  1.00  0.00    -0.361 N  
HETATM    6  C   UNL     1     -11.283  15.972  64.711  1.00  0.00    -0.339 C  
HETATM    7  H   UNL     1     -10.221  17.547  65.621  1.00  0.00     0.000 HD 
HETATM    8  C   UNL     1     -11.649  14.570  64.961  1.00  0.00    -0.382 A  
HETATM    9  O   UNL     1     -11.651  16.580  63.711  1.00  0.00    -1.109 OA 
HETATM   10  C   UNL     1     -11.160  13.934  66.071  1.00  0.00    -0.289 A  
HETATM   11  N   UNL     1     -11.678  12.679  66.074  1.00  0.00    -0.396 NA 
HETATM   12  N   UNL     1     -10.348  14.536  66.953  1.00  0.00    -0.262 NA 
HETATM   13  C   UNL     1     -12.460  12.589  64.947  1.00  0.00    -0.450 A  
HETATM   14  N   UNL     1     -12.458  13.710  64.249  1.00  0.00    -0.655 NA 
ENDROOT
BRANCH  11  15
HETATM   15  C   UNL     1     -11.408  11.601  67.001  1.00  0.00    -0.305 C  
BRANCH  15  16
HETATM   16  O   UNL     1     -10.034  11.234  66.889  1.00  0.00    -0.200 OA 
BRANCH  16  17
HETATM   17  C   UNL     1      -9.902   9.864  66.491  1.00  0.00    -0.215 C  
BRANCH  17  18
HETATM   18  C   UNL     1      -9.514   9.811  65.017  1.00  0.00    -0.272 C  
HETATM   19  O   UNL     1      -9.027   8.513  64.687  1.00  0.00    -0.420 OA 
HETATM   20  H   UNL     1      -8.785   8.481  63.768  1.00  0.00     0.000 HD 
ENDBRANCH  17  18
ENDBRANCH  16  17
ENDBRANCH  15  16
ENDBRANCH  11  15
TORSDOF 4
ENDMDL
MODEL       54
REMARK 921   NORMALIZED FREE ENERGY PREDICTED BY IDOCK:   -4.97 KCAL/MOL
REMARK 922        TOTAL FREE ENERGY PREDICTED BY IDOCK:   -6.35 KCAL/MOL
REMARK 923 INTER-LIGAND FREE ENERGY PREDICTED BY IDOCK:   -6.17 KCAL/MOL
REMARK 924 INTRA-LIGAND FREE ENERGY PREDICTED BY IDOCK:   -0.18 KCAL/MOL
REMARK 927      BINDING AFFINITY PREDICTED BY RF-SCORE:    0.00 PKD
ROOT
HETATM    1  N   UNL     1     -11.199   9.434  68.659  1.00  0.00    -0.464 NA 
HETATM    2  H2  UNL     1     -11.004   8.666  68.016  1.00  0.00     0.000 HD 
HETATM    3  H1  UNL     1     -11.265   9.253  69.660  1.00  0.00     0.000 HD 
HETATM    4  C   UNL     1     -11.368  10.690  68.178  1.00  0.00    -0.284 C  
HETATM    5  N   UNL     1     -11.283  10.921  66.902  1.00  0.00    -0.181 N  
HETATM    6  C   UNL     1     -11.423  12.228  66.415  1.00  0.00    -0.378 C  
HETATM    7  H   UNL     1     -11.115  10.151  66.254  1.00  0.00     0.000 HD 
HETATM    8  C   UNL     1     -11.608  13.262  67.445  1.00  0.00    -0.353 A  
HETATM    9  O   UNL     1     -11.389  12.491  65.218  1.00  0.00    -0.303 OA 
HETATM   10  C   UNL     1     -11.690  12.894  68.762  1.00  0.00    -0.323 A  
HETATM   11  N   UNL     1     -11.821  14.033  69.488  1.00  0.00    -0.304 NA 
HETATM   12  N   UNL     1     -11.613  11.616  69.164  1.00  0.00    -0.285 NA 
HETATM   13  C   UNL     1     -11.830  15.064  68.579  1.00  0.00    -0.291 A  
HETATM   14  N   UNL     1     -11.711  14.633  67.337  1.00  0.00    -0.392 NA 
ENDROOT
BRANCH  11  15
HETATM   15  C   UNL     1     -12.013  14.167  70.916  1.00  0.00    -0.297 C  
BRANCH  15  16
HETATM   16  O   UNL     1     -13.045  15.124  71.151  1.00  0.00    -0.381 OA 
BRANCH  16  17
HETATM   17  C   UNL     1     -13.700  14.873  72.401  1.00  0.00    -0.470 C  
BRANCH  17  18
HETATM   18  C   UNL     1     -12.697  15.066  73.533  1.00  0.00    -0.536 C  
HETATM   19  O   UNL     1     -13.108  16.142  74.372  1.00  0.00    -0.926 OA 
HETATM   20  H   UNL     1     -12.484  16.263  75.078  1.00  0.00     0.000 HD 
ENDBRANCH  17  18
ENDBRANCH  16  17
ENDBRANCH  15  16
ENDBRANCH  11  15
TORSDOF 4
ENDMDL
MODEL       55
REMARK 921   NORMALIZED FREE ENERGY PREDICTED BY IDOCK:   -4.94 KCAL/MOL
REMARK 922        TOTAL FREE ENERGY PREDICTED BY IDOCK:   -6.32 KCAL/MOL
REMARK 923 INTER-LIGAND FREE ENERGY PREDICTED BY IDOCK:   -6.21 KCAL/MOL
REMARK 924 INTRA-LIGAND FREE ENERGY PREDICTED BY IDOCK:   -0.11 KCAL/MOL
REMARK 927      BINDING AFFINITY PREDICTED BY RF-SCORE:    0.00 PKD
ROOT
HETATM    1  N   UNL     1     -13.253  12.348  64.427  1.00  0.00    -0.778 NA 
HETATM    2  H2  UNL     1     -13.991  12.494  63.739  1.00  0.00     0.000 HD 
HETATM    3  H1  UNL     1     -13.173  11.448  64.901  1.00  0.00     0.000 HD 
HETATM    4  C   UNL     1     -12.382  13.349  64.707  1.00  0.00    -0.396 C  
HETATM    5  N   UNL     1     -12.484  14.494  64.104  1.00  0.00    -0.852 N  
HETATM    6  C   UNL     1     -11.558  15.513  64.372  1.00  0.00    -0.258 C  
HETATM    7  H   UNL     1     -13.237  14.653  63.434  1.00  0.00     0.000 HD 
HETATM    8  C   UNL     1     -10.487  15.151  65.312  1.00  0.00    -0.409 A  
HETATM    9  O   UNL     1     -11.635  16.624  63.857  1.00  0.00    -1.204 OA 
HETATM   10  C   UNL     1     -10.490  13.911  65.893  1.00  0.00    -0.305 A  
HETATM   11  N   UNL     1      -9.384  13.833  66.676  1.00  0.00    -0.275 NA 
HETATM   12  N   UNL     1     -11.441  12.997  65.645  1.00  0.00    -0.321 NA 
HETATM   13  C   UNL     1      -8.748  15.046  66.556  1.00  0.00    -0.208 A  
HETATM   14  N   UNL     1      -9.391  15.866  65.746  1.00  0.00    -0.358 NA 
ENDROOT
BRANCH  11  15
HETATM   15  C   UNL     1      -8.979  12.752  67.548  1.00  0.00    -0.192 C  
BRANCH  15  16
HETATM   16  O   UNL     1      -8.916  11.547  66.785  1.00  0.00    -0.169 OA 
BRANCH  16  17
HETATM   17  C   UNL     1      -7.970  10.632  67.352  1.00  0.00    -0.111 C  
BRANCH  17  18
HETATM   18  C   UNL     1      -7.350   9.804  66.232  1.00  0.00    -0.099 C  
HETATM   19  O   UNL     1      -7.441  10.507  64.996  1.00  0.00    -0.274 OA 
HETATM   20  H   UNL     1      -7.054   9.991  64.298  1.00  0.00     0.000 HD 
ENDBRANCH  17  18
ENDBRANCH  16  17
ENDBRANCH  15  16
ENDBRANCH  11  15
TORSDOF 4
ENDMDL
MODEL       56
REMARK 921   NORMALIZED FREE ENERGY PREDICTED BY IDOCK:   -4.93 KCAL/MOL
REMARK 922        TOTAL FREE ENERGY PREDICTED BY IDOCK:   -6.31 KCAL/MOL
REMARK 923 INTER-LIGAND FREE ENERGY PREDICTED BY IDOCK:   -6.16 KCAL/MOL
REMARK 924 INTRA-LIGAND FREE ENERGY PREDICTED BY IDOCK:   -0.14 KCAL/MOL
REMARK 927      BINDING AFFINITY PREDICTED BY RF-SCORE:    0.00 PKD
ROOT
HETATM    1  N   UNL     1     -11.774  16.242  63.709  1.00  0.00    -1.488 NA 
HETATM    2  H2  UNL     1     -12.642  16.089  63.196  1.00  0.00     0.000 HD 
HETATM    3  H1  UNL     1     -11.232  17.092  63.550  1.00  0.00     0.000 HD 
HETATM    4  C   UNL     1     -11.345  15.315  64.601  1.00  0.00    -0.358 C  
HETATM    5  N   UNL     1     -12.034  14.233  64.805  1.00  0.00    -0.417 N  
HETATM    6  C   UNL     1     -11.603  13.296  65.754  1.00  0.00    -0.337 C  
HETATM    7  H   UNL     1     -12.889  14.065  64.274  1.00  0.00     0.000 HD 
HETATM    8  C   UNL     1     -10.390  13.670  66.495  1.00  0.00    -0.282 A  
HETATM    9  O   UNL     1     -12.198  12.242  65.955  1.00  0.00    -0.634 OA 
HETATM   10  C   UNL     1      -9.743  14.837  66.185  1.00  0.00    -0.312 A  
HETATM   11  N   UNL     1      -8.691  14.951  67.035  1.00  0.00    -0.225 NA 
HETATM   12  N   UNL     1     -10.168  15.666  65.219  1.00  0.00    -0.393 NA 
HETATM   13  C   UNL     1      -8.725  13.830  67.831  1.00  0.00    -0.183 A  
HETATM   14  N   UNL     1      -9.732  13.034  67.527  1.00  0.00    -0.202 NA 
ENDROOT
BRANCH  11  15
HETATM   15  C   UNL     1      -7.669  15.974  67.062  1.00  0.00    -0.229 C  
BRANCH  15  16
HETATM   16  O   UNL     1      -8.286  17.232  67.329  1.00  0.00    -0.195 OA 
BRANCH  16  17
HETATM   17  C   UNL     1      -7.469  18.029  68.196  1.00  0.00    -0.249 C  
BRANCH  17  18
HETATM   18  C   UNL     1      -8.322  19.142  68.795  1.00  0.00    -0.342 C  
HETATM   19  O   UNL     1      -8.870  19.951  67.757  1.00  0.00    -0.318 OA 
HETATM   20  H   UNL     1      -9.401  20.644  68.131  1.00  0.00     0.000 HD 
ENDBRANCH  17  18
ENDBRANCH  16  17
ENDBRANCH  15  16
ENDBRANCH  11  15
TORSDOF 4
ENDMDL
MODEL       57
REMARK 921   NORMALIZED FREE ENERGY PREDICTED BY IDOCK:   -4.86 KCAL/MOL
REMARK 922        TOTAL FREE ENERGY PREDICTED BY IDOCK:   -6.22 KCAL/MOL
REMARK 923 INTER-LIGAND FREE ENERGY PREDICTED BY IDOCK:   -5.98 KCAL/MOL
REMARK 924 INTRA-LIGAND FREE ENERGY PREDICTED BY IDOCK:   -0.24 KCAL/MOL
REMARK 927      BINDING AFFINITY PREDICTED BY RF-SCORE:    0.00 PKD
ROOT
HETATM    1  N   UNL     1     -11.359  16.342  69.124  1.00  0.00    -0.317 NA 
HETATM    2  H2  UNL     1     -11.453  17.352  69.229  1.00  0.00     0.000 HD 
HETATM    3  H1  UNL     1     -10.762  15.961  68.390  1.00  0.00     0.000 HD 
HETATM    4  C   UNL     1     -12.029  15.512  69.961  1.00  0.00    -0.364 C  
HETATM    5  N   UNL     1     -12.789  15.996  70.896  1.00  0.00    -0.544 N  
HETATM    6  C   UNL     1     -13.450  15.132  71.781  1.00  0.00    -0.433 C  
HETATM    7  H   UNL     1     -12.906  17.006  70.986  1.00  0.00     0.000 HD 
HETATM    8  C   UNL     1     -13.164  13.703  71.588  1.00  0.00    -0.367 A  
HETATM    9  O   UNL     1     -14.209  15.540  72.654  1.00  0.00    -0.518 OA 
HETATM   10  C   UNL     1     -12.349  13.311  70.560  1.00  0.00    -0.316 A  
HETATM   11  N   UNL     1     -12.228  11.962  70.636  1.00  0.00    -0.374 NA 
HETATM   12  N   UNL     1     -11.794  14.182  69.703  1.00  0.00    -0.303 NA 
HETATM   13  C   UNL     1     -12.993  11.573  71.710  1.00  0.00    -0.394 A  
HETATM   14  N   UNL     1     -13.577  12.598  72.302  1.00  0.00    -0.515 NA 
ENDROOT
BRANCH  11  15
HETATM   15  C   UNL     1     -11.528  11.073  69.734  1.00  0.00    -0.311 C  
BRANCH  15  16
HETATM   16  O   UNL     1     -12.186  11.093  68.469  1.00  0.00    -0.600 OA 
BRANCH  16  17
HETATM   17  C   UNL     1     -11.343  11.670  67.463  1.00  0.00    -0.298 C  
BRANCH  17  18
HETATM   18  C   UNL     1      -9.885  11.442  67.850  1.00  0.00    -0.179 C  
HETATM   19  O   UNL     1      -9.318  10.417  67.039  1.00  0.00    -0.152 OA 
HETATM   20  H   UNL     1      -8.410  10.276  67.280  1.00  0.00     0.000 HD 
ENDBRANCH  17  18
ENDBRANCH  16  17
ENDBRANCH  15  16
ENDBRANCH  11  15
TORSDOF 4
ENDMDL
MODEL       58
REMARK 921   NORMALIZED FREE ENERGY PREDICTED BY IDOCK:   -4.82 KCAL/MOL
REMARK 922        TOTAL FREE ENERGY PREDICTED BY IDOCK:   -6.17 KCAL/MOL
REMARK 923 INTER-LIGAND FREE ENERGY PREDICTED BY IDOCK:   -5.69 KCAL/MOL
REMARK 924 INTRA-LIGAND FREE ENERGY PREDICTED BY IDOCK:   -0.49 KCAL/MOL
REMARK 927      BINDING AFFINITY PREDICTED BY RF-SCORE:    0.00 PKD
ROOT
HETATM    1  N   UNL     1     -11.048  15.023  70.721  1.00  0.00    -0.491 NA 
HETATM    2  H2  UNL     1     -11.187  14.701  71.680  1.00  0.00     0.000 HD 
HETATM    3  H1  UNL     1     -10.707  15.968  70.548  1.00  0.00     0.000 HD 
HETATM    4  C   UNL     1     -11.319  14.192  69.684  1.00  0.00    -0.236 C  
HETATM    5  N   UNL     1     -11.753  12.989  69.905  1.00  0.00    -0.480 N  
HETATM    6  C   UNL     1     -11.997  12.123  68.829  1.00  0.00    -0.239 C  
HETATM    7  H   UNL     1     -11.918  12.672  70.860  1.00  0.00     0.000 HD 
HETATM    8  C   UNL     1     -11.672  12.669  67.502  1.00  0.00    -0.368 A  
HETATM    9  O   UNL     1     -12.444  10.991  68.983  1.00  0.00    -0.449 OA 
HETATM   10  C   UNL     1     -11.227  13.960  67.396  1.00  0.00    -0.312 A  
HETATM   11  N   UNL     1     -10.972  14.188  66.082  1.00  0.00    -0.305 NA 
HETATM   12  N   UNL     1     -11.074  14.764  68.459  1.00  0.00    -0.253 NA 
HETATM   13  C   UNL     1     -11.289  13.022  65.426  1.00  0.00    -0.297 A  
HETATM   14  N   UNL     1     -11.722  12.088  66.252  1.00  0.00    -0.547 NA 
ENDROOT
BRANCH  11  15
HETATM   15  C   UNL     1     -10.549  15.420  65.453  1.00  0.00    -0.410 C  
BRANCH  15  16
HETATM   16  O   UNL     1      -9.189  15.671  65.806  1.00  0.00    -0.321 OA 
BRANCH  16  17
HETATM   17  C   UNL     1      -9.023  17.014  66.279  1.00  0.00    -0.247 C  
BRANCH  17  18
HETATM   18  C   UNL     1     -10.398  17.646  66.466  1.00  0.00    -0.337 C  
HETATM   19  O   UNL     1     -10.777  17.593  67.839  1.00  0.00    -0.394 OA 
HETATM   20  H   UNL     1     -11.634  17.987  67.956  1.00  0.00     0.000 HD 
ENDBRANCH  17  18
ENDBRANCH  16  17
ENDBRANCH  15  16
ENDBRANCH  11  15
TORSDOF 4
ENDMDL
MODEL       59
REMARK 921   NORMALIZED FREE ENERGY PREDICTED BY IDOCK:   -4.80 KCAL/MOL
REMARK 922        TOTAL FREE ENERGY PREDICTED BY IDOCK:   -6.15 KCAL/MOL
REMARK 923 INTER-LIGAND FREE ENERGY PREDICTED BY IDOCK:   -5.98 KCAL/MOL
REMARK 924 INTRA-LIGAND FREE ENERGY PREDICTED BY IDOCK:   -0.17 KCAL/MOL
REMARK 927      BINDING AFFINITY PREDICTED BY RF-SCORE:    0.00 PKD
ROOT
HETATM    1  N   UNL     1     -10.192   7.551  66.357  1.00  0.00    -0.483 NA 
HETATM    2  H2  UNL     1     -10.056   6.543  66.440  1.00  0.00     0.000 HD 
HETATM    3  H1  UNL     1     -10.085   8.004  65.450  1.00  0.00     0.000 HD 
HETATM    4  C   UNL     1     -10.515   8.280  67.454  1.00  0.00    -0.283 C  
HETATM    5  N   UNL     1     -10.652   7.703  68.609  1.00  0.00    -0.331 N  
HETATM    6  C   UNL     1     -11.021   8.458  69.731  1.00  0.00    -0.127 C  
HETATM    7  H   UNL     1     -10.491   6.700  68.700  1.00  0.00     0.000 HD 
HETATM    8  C   UNL     1     -11.280   9.882  69.468  1.00  0.00    -0.177 A  
HETATM    9  O   UNL     1     -11.125   7.966  70.850  1.00  0.00    -0.246 OA 
HETATM   10  C   UNL     1     -11.093  10.378  68.206  1.00  0.00    -0.281 A  
HETATM   11  N   UNL     1     -11.434  11.692  68.238  1.00  0.00    -0.277 NA 
HETATM   12  N   UNL     1     -10.675   9.618  67.182  1.00  0.00    -0.228 NA 
HETATM   13  C   UNL     1     -11.806  11.955  69.535  1.00  0.00    -0.331 A  
HETATM   14  N   UNL     1     -11.716  10.887  70.305  1.00  0.00    -0.322 NA 
ENDROOT
BRANCH  11  15
HETATM   15  C   UNL     1     -11.344  12.666  67.172  1.00  0.00    -0.319 C  
BRANCH  15  16
HETATM   16  O   UNL     1     -12.333  12.364  66.189  1.00  0.00    -0.606 OA 
BRANCH  16  17
HETATM   17  C   UNL     1     -12.442  13.423  65.231  1.00  0.00    -0.483 C  
BRANCH  17  18
HETATM   18  C   UNL     1     -12.026  12.897  63.862  1.00  0.00    -0.480 C  
HETATM   19  O   UNL     1     -12.516  13.759  62.837  1.00  0.00    -1.009 OA 
HETATM   20  H   UNL     1     -12.256  13.431  61.984  1.00  0.00     0.000 HD 
ENDBRANCH  17  18
ENDBRANCH  16  17
ENDBRANCH  15  16
ENDBRANCH  11  15
TORSDOF 4
ENDMDL
MODEL       60
REMARK 921   NORMALIZED FREE ENERGY PREDICTED BY IDOCK:   -4.79 KCAL/MOL
REMARK 922        TOTAL FREE ENERGY PREDICTED BY IDOCK:   -6.13 KCAL/MOL
REMARK 923 INTER-LIGAND FREE ENERGY PREDICTED BY IDOCK:   -5.62 KCAL/MOL
REMARK 924 INTRA-LIGAND FREE ENERGY PREDICTED BY IDOCK:   -0.51 KCAL/MOL
REMARK 927      BINDING AFFINITY PREDICTED BY RF-SCORE:    0.00 PKD
ROOT
HETATM    1  N   UNL     1      -8.987  11.114  62.749  1.00  0.00    -0.420 NA 
HETATM    2  H2  UNL     1      -9.116  10.345  62.090  1.00  0.00     0.000 HD 
HETATM    3  H1  UNL     1      -8.045  11.413  63.002  1.00  0.00     0.000 HD 
HETATM    4  C   UNL     1     -10.068  11.734  63.283  1.00  0.00    -0.420 C  
HETATM    5  N   UNL     1     -11.268  11.354  62.960  1.00  0.00    -0.844 N  
HETATM    6  C   UNL     1     -12.381  12.023  63.489  1.00  0.00    -0.551 C  
HETATM    7  H   UNL     1     -11.400  10.569  62.323  1.00  0.00     0.000 HD 
HETATM    8  C   UNL     1     -12.068  13.172  64.352  1.00  0.00    -0.410 A  
HETATM    9  O   UNL     1     -13.533  11.678  63.245  1.00  0.00    -0.363 OA 
HETATM   10  C   UNL     1     -10.760  13.471  64.627  1.00  0.00    -0.416 A  
HETATM   11  N   UNL     1     -10.758  14.583  65.405  1.00  0.00    -0.336 NA 
HETATM   12  N   UNL     1      -9.734  12.753  64.142  1.00  0.00    -0.043 NA 
HETATM   13  C   UNL     1     -12.079  14.916  65.592  1.00  0.00    -0.008 A  
HETATM   14  N   UNL     1     -12.895  14.081  64.977  1.00  0.00    -0.732 NA 
ENDROOT
BRANCH  11  15
HETATM   15  C   UNL     1      -9.627  15.249  66.013  1.00  0.00    -0.338 C  
BRANCH  15  16
HETATM   16  O   UNL     1      -9.270  14.551  67.205  1.00  0.00    -0.204 OA 
BRANCH  16  17
HETATM   17  C   UNL     1      -7.860  14.638  67.445  1.00  0.00    -0.202 C  
BRANCH  17  18
HETATM   18  C   UNL     1      -7.235  13.263  67.228  1.00  0.00    -0.019 C  
HETATM   19  O   UNL     1      -8.228  12.338  66.793  1.00  0.00    -0.320 OA 
HETATM   20  H   UNL     1      -7.838  11.482  66.658  1.00  0.00     0.000 HD 
ENDBRANCH  17  18
ENDBRANCH  16  17
ENDBRANCH  15  16
ENDBRANCH  11  15
TORSDOF 4
ENDMDL
MODEL       61
REMARK 921   NORMALIZED FREE ENERGY PREDICTED BY IDOCK:   -4.78 KCAL/MOL
REMARK 922        TOTAL FREE ENERGY PREDICTED BY IDOCK:   -6.12 KCAL/MOL
REMARK 923 INTER-LIGAND FREE ENERGY PREDICTED BY IDOCK:   -5.78 KCAL/MOL
REMARK 924 INTRA-LIGAND FREE ENERGY PREDICTED BY IDOCK:   -0.34 KCAL/MOL
REMARK 927      BINDING AFFINITY PREDICTED BY RF-SCORE:    0.00 PKD
ROOT
HETATM    1  N   UNL     1      -9.318   9.620  63.887  1.00  0.00    -0.413 NA 
HETATM    2  H2  UNL     1      -9.129   8.692  63.506  1.00  0.00     0.000 HD 
HETATM    3  H1  UNL     1      -9.171  10.446  63.308  1.00  0.00     0.000 HD 
HETATM    4  C   UNL     1      -9.766   9.747  65.161  1.00  0.00    -0.268 C  
HETATM    5  N   UNL     1      -9.954   8.695  65.898  1.00  0.00    -0.442 N  
HETATM    6  C   UNL     1     -10.451   8.832  67.202  1.00  0.00    -0.283 C  
HETATM    7  H   UNL     1      -9.740   7.768  65.529  1.00  0.00     0.000 HD 
HETATM    8  C   UNL     1     -10.774  10.209  67.606  1.00  0.00    -0.285 A  
HETATM    9  O   UNL     1     -10.609   7.872  67.950  1.00  0.00    -0.208 OA 
HETATM   10  C   UNL     1     -10.523  11.241  66.741  1.00  0.00    -0.248 A  
HETATM   11  N   UNL     1     -10.944  12.381  67.346  1.00  0.00    -0.244 NA 
HETATM   12  N   UNL     1      -9.985  11.054  65.526  1.00  0.00    -0.242 NA 
HETATM   13  C   UNL     1     -11.427  12.001  68.576  1.00  0.00    -0.293 A  
HETATM   14  N   UNL     1     -11.332  10.699  68.768  1.00  0.00    -0.271 NA 
ENDROOT
BRANCH  11  15
HETATM   15  C   UNL     1     -10.833  13.741  66.867  1.00  0.00    -0.285 C  
BRANCH  15  16
HETATM   16  O   UNL     1     -12.144  14.281  66.711  1.00  0.00    -0.430 OA 
BRANCH  16  17
HETATM   17  C   UNL     1     -12.708  13.899  65.451  1.00  0.00    -0.490 C  
BRANCH  17  18
HETATM   18  C   UNL     1     -11.803  14.400  64.331  1.00  0.00    -0.415 C  
HETATM   19  O   UNL     1     -12.239  15.682  63.887  1.00  0.00    -0.964 OA 
HETATM   20  H   UNL     1     -11.675  15.995  63.189  1.00  0.00     0.000 HD 
ENDBRANCH  17  18
ENDBRANCH  16  17
ENDBRANCH  15  16
ENDBRANCH  11  15
TORSDOF 4
ENDMDL
MODEL       62
REMARK 921   NORMALIZED FREE ENERGY PREDICTED BY IDOCK:   -4.77 KCAL/MOL
REMARK 922        TOTAL FREE ENERGY PREDICTED BY IDOCK:   -6.11 KCAL/MOL
REMARK 923 INTER-LIGAND FREE ENERGY PREDICTED BY IDOCK:   -5.80 KCAL/MOL
REMARK 924 INTRA-LIGAND FREE ENERGY PREDICTED BY IDOCK:   -0.30 KCAL/MOL
REMARK 927      BINDING AFFINITY PREDICTED BY RF-SCORE:    0.00 PKD
ROOT
HETATM    1  N   UNL     1     -11.019  12.640  63.111  1.00  0.00    -0.653 NA 
HETATM    2  H2  UNL     1     -11.292  11.712  62.784  1.00  0.00     0.000 HD 
HETATM    3  H1  UNL     1     -10.656  13.324  62.448  1.00  0.00     0.000 HD 
HETATM    4  C   UNL     1     -11.142  12.956  64.424  1.00  0.00    -0.361 C  
HETATM    5  N   UNL     1     -11.605  12.084  65.268  1.00  0.00    -0.316 N  
HETATM    6  C   UNL     1     -11.763  12.430  66.618  1.00  0.00    -0.372 C  
HETATM    7  H   UNL     1     -11.854  11.148  64.949  1.00  0.00     0.000 HD 
HETATM    8  C   UNL     1     -11.423  13.822  66.949  1.00  0.00    -0.347 A  
HETATM    9  O   UNL     1     -12.159  11.631  67.459  1.00  0.00    -0.611 OA 
HETATM   10  C   UNL     1     -10.934  14.647  65.972  1.00  0.00    -0.325 A  
HETATM   11  N   UNL     1     -10.742  15.867  66.537  1.00  0.00    -0.293 NA 
HETATM   12  N   UNL     1     -10.744  14.240  64.707  1.00  0.00    -0.422 NA 
HETATM   13  C   UNL     1     -11.110  15.735  67.856  1.00  0.00    -0.326 A  
HETATM   14  N   UNL     1     -11.517  14.513  68.139  1.00  0.00    -0.297 NA 
ENDROOT
BRANCH  11  15
HETATM   15  C   UNL     1     -10.177  17.054  65.934  1.00  0.00    -0.296 C  
BRANCH  15  16
HETATM   16  O   UNL     1      -8.793  16.823  65.676  1.00  0.00    -0.461 OA 
BRANCH  16  17
HETATM   17  C   UNL     1      -7.972  17.621  66.538  1.00  0.00    -0.267 C  
BRANCH  17  18
HETATM   18  C   UNL     1      -7.333  16.719  67.588  1.00  0.00    -0.146 C  
HETATM   19  O   UNL     1      -6.319  15.915  66.990  1.00  0.00    -0.309 OA 
HETATM   20  H   UNL     1      -5.921  15.353  67.645  1.00  0.00     0.000 HD 
ENDBRANCH  17  18
ENDBRANCH  16  17
ENDBRANCH  15  16
ENDBRANCH  11  15
TORSDOF 4
ENDMDL
MODEL       63
REMARK 921   NORMALIZED FREE ENERGY PREDICTED BY IDOCK:   -4.74 KCAL/MOL
REMARK 922        TOTAL FREE ENERGY PREDICTED BY IDOCK:   -6.07 KCAL/MOL
REMARK 923 INTER-LIGAND FREE ENERGY PREDICTED BY IDOCK:   -5.70 KCAL/MOL
REMARK 924 INTRA-LIGAND FREE ENERGY PREDICTED BY IDOCK:   -0.37 KCAL/MOL
REMARK 927      BINDING AFFINITY PREDICTED BY RF-SCORE:    0.00 PKD
ROOT
HETATM    1  N   UNL     1     -14.361   9.078  73.293  1.00  0.00    -1.108 NA 
HETATM    2  H2  UNL     1     -15.072   9.691  73.693  1.00  0.00     0.000 HD 
HETATM    3  H1  UNL     1     -14.365   8.083  73.516  1.00  0.00     0.000 HD 
HETATM    4  C   UNL     1     -13.416   9.590  72.466  1.00  0.00    -0.300 C  
HETATM    5  N   UNL     1     -13.410  10.857  72.181  1.00  0.00    -0.580 N  
HETATM    6  C   UNL     1     -12.452  11.373  71.297  1.00  0.00    -0.318 C  
HETATM    7  H   UNL     1     -14.103  11.477  72.600  1.00  0.00     0.000 HD 
HETATM    8  C   UNL     1     -11.541  10.377  70.714  1.00  0.00    -0.358 A  
HETATM    9  O   UNL     1     -12.382  12.567  71.027  1.00  0.00    -0.351 OA 
HETATM   10  C   UNL     1     -11.638   9.067  71.099  1.00  0.00    -0.306 A  
HETATM   11  N   UNL     1     -10.715   8.370  70.388  1.00  0.00    -0.228 NA 
HETATM   12  N   UNL     1     -12.537   8.641  72.001  1.00  0.00    -0.354 NA 
HETATM   13  C   UNL     1     -10.070   9.292  69.598  1.00  0.00    -0.197 A  
HETATM   14  N   UNL     1     -10.539  10.513  69.776  1.00  0.00    -0.247 NA 
ENDROOT
BRANCH  11  15
HETATM   15  C   UNL     1     -10.383   6.966  70.487  1.00  0.00    -0.204 C  
BRANCH  15  16
HETATM   16  O   UNL     1     -10.470   6.569  71.855  1.00  0.00    -0.203 OA 
BRANCH  16  17
HETATM   17  C   UNL     1      -9.217   6.760  72.523  1.00  0.00    -0.136 C  
BRANCH  17  18
HETATM   18  C   UNL     1      -9.482   7.280  73.932  1.00  0.00    -0.271 C  
HETATM   19  O   UNL     1     -10.884   7.324  74.181  1.00  0.00    -0.536 OA 
HETATM   20  H   UNL     1     -11.049   7.649  75.059  1.00  0.00     0.000 HD 
ENDBRANCH  17  18
ENDBRANCH  16  17
ENDBRANCH  15  16
ENDBRANCH  11  15
TORSDOF 4
ENDMDL
MODEL       64
REMARK 921   NORMALIZED FREE ENERGY PREDICTED BY IDOCK:   -4.72 KCAL/MOL
REMARK 922        TOTAL FREE ENERGY PREDICTED BY IDOCK:   -6.05 KCAL/MOL
REMARK 923 INTER-LIGAND FREE ENERGY PREDICTED BY IDOCK:   -5.67 KCAL/MOL
REMARK 924 INTRA-LIGAND FREE ENERGY PREDICTED BY IDOCK:   -0.38 KCAL/MOL
REMARK 927      BINDING AFFINITY PREDICTED BY RF-SCORE:    0.00 PKD
ROOT
HETATM    1  N   UNL     1     -11.469  14.433  70.536  1.00  0.00    -0.479 NA 
HETATM    2  H2  UNL     1     -11.706  13.627  71.116  1.00  0.00     0.000 HD 
HETATM    3  H1  UNL     1     -11.242  15.324  70.976  1.00  0.00     0.000 HD 
HETATM    4  C   UNL     1     -11.457  14.313  69.186  1.00  0.00    -0.291 C  
HETATM    5  N   UNL     1     -11.746  13.178  68.625  1.00  0.00    -0.307 N  
HETATM    6  C   UNL     1     -11.697  13.052  67.230  1.00  0.00    -0.375 C  
HETATM    7  H   UNL     1     -12.010  12.377  69.200  1.00  0.00     0.000 HD 
HETATM    8  C   UNL     1     -11.253  14.255  66.510  1.00  0.00    -0.332 A  
HETATM    9  O   UNL     1     -11.999  12.013  66.652  1.00  0.00    -0.614 OA 
HETATM   10  C   UNL     1     -10.983  15.399  67.212  1.00  0.00    -0.317 A  
HETATM   11  N   UNL     1     -10.564  16.329  66.316  1.00  0.00    -0.288 NA 
HETATM   12  N   UNL     1     -11.110  15.479  68.546  1.00  0.00    -0.289 NA 
HETATM   13  C   UNL     1     -10.609  15.717  65.086  1.00  0.00    -0.411 A  
HETATM   14  N   UNL     1     -11.028  14.469  65.166  1.00  0.00    -0.355 NA 
ENDROOT
BRANCH  11  15
HETATM   15  C   UNL     1     -10.227  17.716  66.556  1.00  0.00    -0.355 C  
BRANCH  15  16
HETATM   16  O   UNL     1      -8.958  17.988  65.964  1.00  0.00    -0.502 OA 
BRANCH  16  17
HETATM   17  C   UNL     1      -7.915  17.937  66.945  1.00  0.00    -0.227 C  
BRANCH  17  18
HETATM   18  C   UNL     1      -8.539  18.009  68.335  1.00  0.00    -0.290 C  
HETATM   19  O   UNL     1      -8.326  16.783  69.030  1.00  0.00    -0.234 OA 
HETATM   20  H   UNL     1      -8.714  16.827  69.896  1.00  0.00     0.000 HD 
ENDBRANCH  17  18
ENDBRANCH  16  17
ENDBRANCH  15  16
ENDBRANCH  11  15
TORSDOF 4
ENDMDL
MODEL       65
REMARK 921   NORMALIZED FREE ENERGY PREDICTED BY IDOCK:   -4.71 KCAL/MOL
REMARK 922        TOTAL FREE ENERGY PREDICTED BY IDOCK:   -6.03 KCAL/MOL
REMARK 923 INTER-LIGAND FREE ENERGY PREDICTED BY IDOCK:   -5.86 KCAL/MOL
REMARK 924 INTRA-LIGAND FREE ENERGY PREDICTED BY IDOCK:   -0.17 KCAL/MOL
REMARK 927      BINDING AFFINITY PREDICTED BY RF-SCORE:    0.00 PKD
ROOT
HETATM    1  N   UNL     1     -11.673  16.435  63.991  1.00  0.00    -1.461 NA 
HETATM    2  H2  UNL     1     -12.354  16.850  63.354  1.00  0.00     0.000 HD 
HETATM    3  H1  UNL     1     -11.065  17.036  64.547  1.00  0.00     0.000 HD 
HETATM    4  C   UNL     1     -11.583  15.086  64.096  1.00  0.00    -0.050 C  
HETATM    5  N   UNL     1     -12.358  14.320  63.389  1.00  0.00    -1.126 N  
HETATM    6  C   UNL     1     -12.283  12.927  63.529  1.00  0.00    -0.512 C  
HETATM    7  H   UNL     1     -13.020  14.731  62.732  1.00  0.00     0.000 HD 
HETATM    8  C   UNL     1     -11.332  12.451  64.544  1.00  0.00    -0.328 A  
HETATM    9  O   UNL     1     -12.966  12.161  62.856  1.00  0.00    -0.359 OA 
HETATM   10  C   UNL     1     -10.561  13.357  65.222  1.00  0.00    -0.325 A  
HETATM   11  N   UNL     1      -9.810  12.658  66.111  1.00  0.00    -0.258 NA 
HETATM   12  N   UNL     1     -10.631  14.679  64.999  1.00  0.00    -0.418 NA 
HETATM   13  C   UNL     1     -10.141  11.336  65.930  1.00  0.00    -0.245 A  
HETATM   14  N   UNL     1     -11.050  11.176  64.987  1.00  0.00    -0.107 NA 
ENDROOT
BRANCH  11  15
HETATM   15  C   UNL     1      -8.790  13.157  67.009  1.00  0.00    -0.210 C  
BRANCH  15  16
HETATM   16  O   UNL     1      -8.407  12.107  67.895  1.00  0.00    -0.142 OA 
BRANCH  16  17
HETATM   17  C   UNL     1      -6.995  11.873  67.830  1.00  0.00    -0.085 C  
BRANCH  17  18
HETATM   18  C   UNL     1      -6.514  11.363  69.185  1.00  0.00    -0.085 C  
HETATM   19  O   UNL     1      -7.470  10.460  69.734  1.00  0.00    -0.150 OA 
HETATM   20  H   UNL     1      -7.170  10.142  70.578  1.00  0.00     0.000 HD 
ENDBRANCH  17  18
ENDBRANCH  16  17
ENDBRANCH  15  16
ENDBRANCH  11  15
TORSDOF 4
ENDMDL
MODEL       66
REMARK 921   NORMALIZED FREE ENERGY PREDICTED BY IDOCK:   -4.67 KCAL/MOL
REMARK 922        TOTAL FREE ENERGY PREDICTED BY IDOCK:   -5.98 KCAL/MOL
REMARK 923 INTER-LIGAND FREE ENERGY PREDICTED BY IDOCK:   -5.67 KCAL/MOL
REMARK 924 INTRA-LIGAND FREE ENERGY PREDICTED BY IDOCK:   -0.31 KCAL/MOL
REMARK 927      BINDING AFFINITY PREDICTED BY RF-SCORE:    0.00 PKD
ROOT
HETATM    1  N   UNL     1     -13.037  10.242  71.568  1.00  0.00    -0.415 NA 
HETATM    2  H2  UNL     1     -13.505   9.835  72.378  1.00  0.00     0.000 HD 
HETATM    3  H1  UNL     1     -12.653   9.633  70.845  1.00  0.00     0.000 HD 
HETATM    4  C   UNL     1     -12.926  11.589  71.458  1.00  0.00    -0.380 C  
HETATM    5  N   UNL     1     -13.414  12.364  72.378  1.00  0.00    -0.570 N  
HETATM    6  C   UNL     1     -13.328  13.757  72.240  1.00  0.00    -0.521 C  
HETATM    7  H   UNL     1     -13.860  11.960  73.202  1.00  0.00     0.000 HD 
HETATM    8  C   UNL     1     -12.714  14.223  70.988  1.00  0.00    -0.359 A  
HETATM    9  O   UNL     1     -13.739  14.530  73.100  1.00  0.00    -0.536 OA 
HETATM   10  C   UNL     1     -12.227  13.307  70.094  1.00  0.00    -0.306 A  
HETATM   11  N   UNL     1     -11.756  14.000  69.026  1.00  0.00    -0.307 NA 
HETATM   12  N   UNL     1     -12.280  11.984  70.311  1.00  0.00    -0.298 NA 
HETATM   13  C   UNL     1     -11.960  15.329  69.317  1.00  0.00    -0.299 A  
HETATM   14  N   UNL     1     -12.529  15.498  70.496  1.00  0.00    -0.423 NA 
ENDROOT
BRANCH  11  15
HETATM   15  C   UNL     1     -11.082  13.489  67.853  1.00  0.00    -0.265 C  
BRANCH  15  16
HETATM   16  O   UNL     1     -10.135  14.458  67.409  1.00  0.00    -0.240 OA 
BRANCH  16  17
HETATM   17  C   UNL     1      -8.859  13.852  67.164  1.00  0.00    -0.226 C  
BRANCH  17  18
HETATM   18  C   UNL     1      -7.872  14.334  68.221  1.00  0.00    -0.141 C  
HETATM   19  O   UNL     1      -8.560  14.638  69.432  1.00  0.00    -0.381 OA 
HETATM   20  H   UNL     1      -7.944  14.938  70.090  1.00  0.00     0.000 HD 
ENDBRANCH  17  18
ENDBRANCH  16  17
ENDBRANCH  15  16
ENDBRANCH  11  15
TORSDOF 4
ENDMDL
MODEL       67
REMARK 921   NORMALIZED FREE ENERGY PREDICTED BY IDOCK:   -4.66 KCAL/MOL
REMARK 922        TOTAL FREE ENERGY PREDICTED BY IDOCK:   -5.98 KCAL/MOL
REMARK 923 INTER-LIGAND FREE ENERGY PREDICTED BY IDOCK:   -5.70 KCAL/MOL
REMARK 924 INTRA-LIGAND FREE ENERGY PREDICTED BY IDOCK:   -0.28 KCAL/MOL
REMARK 927      BINDING AFFINITY PREDICTED BY RF-SCORE:    0.00 PKD
ROOT
HETATM    1  N   UNL     1     -10.752   9.048  68.625  1.00  0.00    -0.391 NA 
HETATM    2  H2  UNL     1     -10.773   8.028  68.609  1.00  0.00     0.000 HD 
HETATM    3  H1  UNL     1     -10.243   9.557  67.902  1.00  0.00     0.000 HD 
HETATM    4  C   UNL     1     -11.400   9.721  69.608  1.00  0.00    -0.122 C  
HETATM    5  N   UNL     1     -12.048   9.074  70.529  1.00  0.00    -0.476 N  
HETATM    6  C   UNL     1     -12.745   9.777  71.521  1.00  0.00    -0.406 C  
HETATM    7  H   UNL     1     -12.049   8.054  70.531  1.00  0.00     0.000 HD 
HETATM    8  C   UNL     1     -12.717  11.241  71.386  1.00  0.00    -0.396 A  
HETATM    9  O   UNL     1     -13.339   9.212  72.434  1.00  0.00    -0.434 OA 
HETATM   10  C   UNL     1     -11.990  11.810  70.374  1.00  0.00    -0.332 A  
HETATM   11  N   UNL     1     -12.167  13.154  70.461  1.00  0.00    -0.361 NA 
HETATM   12  N   UNL     1     -11.288  11.086  69.489  1.00  0.00    -0.262 NA 
HETATM   13  C   UNL     1     -12.991  13.358  71.542  1.00  0.00    -0.341 A  
HETATM   14  N   UNL     1     -13.335  12.226  72.127  1.00  0.00    -0.484 NA 
ENDROOT
BRANCH  11  15
HETATM   15  C   UNL     1     -11.553  14.191  69.661  1.00  0.00    -0.292 C  
BRANCH  15  16
HETATM   16  O   UNL     1     -12.139  14.173  68.360  1.00  0.00    -0.344 OA 
BRANCH  16  17
HETATM   17  C   UNL     1     -11.177  14.532  67.361  1.00  0.00    -0.327 C  
BRANCH  17  18
HETATM   18  C   UNL     1     -10.825  13.294  66.544  1.00  0.00    -0.281 C  
HETATM   19  O   UNL     1      -9.525  13.435  65.977  1.00  0.00    -0.451 OA 
HETATM   20  H   UNL     1      -9.306  12.663  65.468  1.00  0.00     0.000 HD 
ENDBRANCH  17  18
ENDBRANCH  16  17
ENDBRANCH  15  16
ENDBRANCH  11  15
TORSDOF 4
ENDMDL
MODEL       68
REMARK 921   NORMALIZED FREE ENERGY PREDICTED BY IDOCK:   -4.66 KCAL/MOL
REMARK 922        TOTAL FREE ENERGY PREDICTED BY IDOCK:   -5.97 KCAL/MOL
REMARK 923 INTER-LIGAND FREE ENERGY PREDICTED BY IDOCK:   -5.79 KCAL/MOL
REMARK 924 INTRA-LIGAND FREE ENERGY PREDICTED BY IDOCK:   -0.18 KCAL/MOL
REMARK 927      BINDING AFFINITY PREDICTED BY RF-SCORE:    0.00 PKD
ROOT
HETATM    1  N   UNL     1      -9.639  10.017  62.978  1.00  0.00    -0.516 NA 
HETATM    2  H2  UNL     1      -9.608  10.022  61.959  1.00  0.00     0.000 HD 
HETATM    3  H1  UNL     1      -9.094   9.331  63.500  1.00  0.00     0.000 HD 
HETATM    4  C   UNL     1     -10.404  10.924  63.634  1.00  0.00    -0.298 C  
HETATM    5  N   UNL     1     -11.098  11.799  62.971  1.00  0.00    -0.684 N  
HETATM    6  C   UNL     1     -11.859  12.757  63.657  1.00  0.00    -0.532 C  
HETATM    7  H   UNL     1     -11.090  11.790  61.951  1.00  0.00     0.000 HD 
HETATM    8  C   UNL     1     -11.750  12.708  65.122  1.00  0.00    -0.367 A  
HETATM    9  O   UNL     1     -12.560  13.579  63.076  1.00  0.00    -0.716 OA 
HETATM   10  C   UNL     1     -10.991  11.731  65.710  1.00  0.00    -0.301 A  
HETATM   11  N   UNL     1     -11.037  11.940  67.050  1.00  0.00    -0.284 NA 
HETATM   12  N   UNL     1     -10.335  10.799  65.001  1.00  0.00    -0.303 NA 
HETATM   13  C   UNL     1     -11.842  13.039  67.235  1.00  0.00    -0.363 A  
HETATM   14  N   UNL     1     -12.295  13.521  66.094  1.00  0.00    -0.424 NA 
ENDROOT
BRANCH  11  15
HETATM   15  C   UNL     1     -10.453  11.136  68.102  1.00  0.00    -0.189 C  
BRANCH  15  16
HETATM   16  O   UNL     1      -9.437  11.899  68.751  1.00  0.00    -0.120 OA 
BRANCH  16  17
HETATM   17  C   UNL     1      -8.155  11.276  68.601  1.00  0.00    -0.145 C  
BRANCH  17  18
HETATM   18  C   UNL     1      -7.759  11.308  67.129  1.00  0.00    -0.147 C  
HETATM   19  O   UNL     1      -8.088  12.573  66.562  1.00  0.00    -0.401 OA 
HETATM   20  H   UNL     1      -7.840  12.593  65.644  1.00  0.00     0.000 HD 
ENDBRANCH  17  18
ENDBRANCH  16  17
ENDBRANCH  15  16
ENDBRANCH  11  15
TORSDOF 4
ENDMDL
MODEL       69
REMARK 921   NORMALIZED FREE ENERGY PREDICTED BY IDOCK:   -4.65 KCAL/MOL
REMARK 922        TOTAL FREE ENERGY PREDICTED BY IDOCK:   -5.95 KCAL/MOL
REMARK 923 INTER-LIGAND FREE ENERGY PREDICTED BY IDOCK:   -5.77 KCAL/MOL
REMARK 924 INTRA-LIGAND FREE ENERGY PREDICTED BY IDOCK:   -0.19 KCAL/MOL
REMARK 927      BINDING AFFINITY PREDICTED BY RF-SCORE:    0.00 PKD
ROOT
HETATM    1  N   UNL     1     -11.008  15.290  71.058  1.00  0.00    -0.516 NA 
HETATM    2  H2  UNL     1     -11.346  15.939  71.770  1.00  0.00     0.000 HD 
HETATM    3  H1  UNL     1     -10.888  14.304  71.287  1.00  0.00     0.000 HD 
HETATM    4  C   UNL     1     -10.721  15.744  69.813  1.00  0.00    -0.316 C  
HETATM    5  N   UNL     1     -10.874  17.000  69.521  1.00  0.00    -0.369 N  
HETATM    6  C   UNL     1     -10.609  17.456  68.222  1.00  0.00    -0.366 C  
HETATM    7  H   UNL     1     -11.186  17.656  70.237  1.00  0.00     0.000 HD 
HETATM    8  C   UNL     1     -10.218  16.413  67.262  1.00  0.00    -0.278 A  
HETATM    9  O   UNL     1     -10.701  18.638  67.908  1.00  0.00    -0.383 OA 
HETATM   10  C   UNL     1     -10.082  15.119  67.691  1.00  0.00    -0.231 A  
HETATM   11  N   UNL     1      -9.754  14.370  66.607  1.00  0.00    -0.267 NA 
HETATM   12  N   UNL     1     -10.287  14.753  68.966  1.00  0.00    -0.240 NA 
HETATM   13  C   UNL     1      -9.686  15.245  65.549  1.00  0.00    -0.278 A  
HETATM   14  N   UNL     1      -9.953  16.486  65.911  1.00  0.00    -0.442 NA 
ENDROOT
BRANCH  11  15
HETATM   15  C   UNL     1      -9.437  12.960  66.556  1.00  0.00    -0.251 C  
BRANCH  15  16
HETATM   16  O   UNL     1     -10.653  12.215  66.602  1.00  0.00    -0.226 OA 
BRANCH  16  17
HETATM   17  C   UNL     1     -11.226  12.092  65.294  1.00  0.00    -0.332 C  
BRANCH  17  18
HETATM   18  C   UNL     1     -12.534  12.876  65.251  1.00  0.00    -0.493 C  
HETATM   19  O   UNL     1     -13.409  12.314  64.277  1.00  0.00    -0.777 OA 
HETATM   20  H   UNL     1     -14.224  12.802  64.251  1.00  0.00     0.000 HD 
ENDBRANCH  17  18
ENDBRANCH  16  17
ENDBRANCH  15  16
ENDBRANCH  11  15
TORSDOF 4
ENDMDL
MODEL       70
REMARK 921   NORMALIZED FREE ENERGY PREDICTED BY IDOCK:   -4.63 KCAL/MOL
REMARK 922        TOTAL FREE ENERGY PREDICTED BY IDOCK:   -5.93 KCAL/MOL
REMARK 923 INTER-LIGAND FREE ENERGY PREDICTED BY IDOCK:   -5.49 KCAL/MOL
REMARK 924 INTRA-LIGAND FREE ENERGY PREDICTED BY IDOCK:   -0.44 KCAL/MOL
REMARK 927      BINDING AFFINITY PREDICTED BY RF-SCORE:    0.00 PKD
ROOT
HETATM    1  N   UNL     1      -7.958  16.649  68.788  1.00  0.00    -0.230 NA 
HETATM    2  H2  UNL     1      -7.584  17.442  69.309  1.00  0.00     0.000 HD 
HETATM    3  H1  UNL     1      -7.740  15.698  69.087  1.00  0.00     0.000 HD 
HETATM    4  C   UNL     1      -8.744  16.862  67.704  1.00  0.00    -0.209 C  
HETATM    5  N   UNL     1      -9.022  18.072  67.324  1.00  0.00    -0.248 N  
HETATM    6  C   UNL     1      -9.864  18.286  66.223  1.00  0.00    -0.321 C  
HETATM    7  H   UNL     1      -8.628  18.868  67.826  1.00  0.00     0.000 HD 
HETATM    8  C   UNL     1     -10.415  17.066  65.613  1.00  0.00    -0.216 A  
HETATM    9  O   UNL     1     -10.125  19.408  65.803  1.00  0.00    -0.438 OA 
HETATM   10  C   UNL     1     -10.040  15.842  66.098  1.00  0.00    -0.318 A  
HETATM   11  N   UNL     1     -10.717  14.905  65.386  1.00  0.00    -0.349 NA 
HETATM   12  N   UNL     1      -9.178  15.698  67.116  1.00  0.00    -0.206 NA 
HETATM   13  C   UNL     1     -11.475  15.598  64.472  1.00  0.00    -0.300 A  
HETATM   14  N   UNL     1     -11.311  16.903  64.577  1.00  0.00    -1.002 NA 
ENDROOT
BRANCH  11  15
HETATM   15  C   UNL     1     -10.612  13.464  65.474  1.00  0.00    -0.290 C  
BRANCH  15  16
HETATM   16  O   UNL     1     -11.860  12.941  65.926  1.00  0.00    -0.379 OA 
BRANCH  16  17
HETATM   17  C   UNL     1     -12.152  13.392  67.255  1.00  0.00    -0.304 C  
BRANCH  17  18
HETATM   18  C   UNL     1     -11.362  12.549  68.249  1.00  0.00    -0.286 C  
HETATM   19  O   UNL     1     -10.488  13.380  69.009  1.00  0.00    -0.395 OA 
HETATM   20  H   UNL     1      -9.995  12.854  69.629  1.00  0.00     0.000 HD 
ENDBRANCH  17  18
ENDBRANCH  16  17
ENDBRANCH  15  16
ENDBRANCH  11  15
TORSDOF 4
ENDMDL
MODEL       71
REMARK 921   NORMALIZED FREE ENERGY PREDICTED BY IDOCK:   -4.63 KCAL/MOL
REMARK 922        TOTAL FREE ENERGY PREDICTED BY IDOCK:   -5.93 KCAL/MOL
REMARK 923 INTER-LIGAND FREE ENERGY PREDICTED BY IDOCK:   -5.73 KCAL/MOL
REMARK 924 INTRA-LIGAND FREE ENERGY PREDICTED BY IDOCK:   -0.21 KCAL/MOL
REMARK 927      BINDING AFFINITY PREDICTED BY RF-SCORE:    0.00 PKD
ROOT
HETATM    1  N   UNL     1     -14.029  15.177  72.971  1.00  0.00    -0.517 NA 
HETATM    2  H2  UNL     1     -14.428  14.830  73.843  1.00  0.00     0.000 HD 
HETATM    3  H1  UNL     1     -14.054  16.175  72.763  1.00  0.00     0.000 HD 
HETATM    4  C   UNL     1     -13.466  14.309  72.094  1.00  0.00    -0.433 C  
HETATM    5  N   UNL     1     -13.433  13.038  72.359  1.00  0.00    -0.565 N  
HETATM    6  C   UNL     1     -12.818  12.151  71.464  1.00  0.00    -0.289 C  
HETATM    7  H   UNL     1     -13.855  12.685  73.218  1.00  0.00     0.000 HD 
HETATM    8  C   UNL     1     -12.197  12.780  70.289  1.00  0.00    -0.277 A  
HETATM    9  O   UNL     1     -12.795  10.939  71.651  1.00  0.00    -0.429 OA 
HETATM   10  C   UNL     1     -12.305  14.134  70.113  1.00  0.00    -0.351 A  
HETATM   11  N   UNL     1     -11.620  14.448  68.984  1.00  0.00    -0.278 NA 
HETATM   12  N   UNL     1     -12.964  14.927  70.974  1.00  0.00    -0.352 NA 
HETATM   13  C   UNL     1     -11.127  13.260  68.498  1.00  0.00    -0.265 A  
HETATM   14  N   UNL     1     -11.463  12.234  69.257  1.00  0.00    -0.281 NA 
ENDROOT
BRANCH  11  15
HETATM   15  C   UNL     1     -11.496  15.738  68.342  1.00  0.00    -0.365 C  
BRANCH  15  16
HETATM   16  O   UNL     1     -10.198  15.835  67.755  1.00  0.00    -0.242 OA 
BRANCH  16  17
HETATM   17  C   UNL     1      -9.502  16.988  68.244  1.00  0.00    -0.265 C  
BRANCH  17  18
HETATM   18  C   UNL     1      -9.664  18.126  67.241  1.00  0.00    -0.297 C  
HETATM   19  O   UNL     1      -9.382  17.660  65.924  1.00  0.00    -0.520 OA 
HETATM   20  H   UNL     1      -9.483  18.369  65.299  1.00  0.00     0.000 HD 
ENDBRANCH  17  18
ENDBRANCH  16  17
ENDBRANCH  15  16
ENDBRANCH  11  15
TORSDOF 4
ENDMDL
MODEL       72
REMARK 921   NORMALIZED FREE ENERGY PREDICTED BY IDOCK:   -4.62 KCAL/MOL
REMARK 922        TOTAL FREE ENERGY PREDICTED BY IDOCK:   -5.92 KCAL/MOL
REMARK 923 INTER-LIGAND FREE ENERGY PREDICTED BY IDOCK:   -5.42 KCAL/MOL
REMARK 924 INTRA-LIGAND FREE ENERGY PREDICTED BY IDOCK:   -0.50 KCAL/MOL
REMARK 927      BINDING AFFINITY PREDICTED BY RF-SCORE:    0.00 PKD
ROOT
HETATM    1  N   UNL     1     -10.927  15.308  70.836  1.00  0.00    -0.493 NA 
HETATM    2  H2  UNL     1     -11.038  16.028  71.550  1.00  0.00     0.000 HD 
HETATM    3  H1  UNL     1     -10.943  14.323  71.102  1.00  0.00     0.000 HD 
HETATM    4  C   UNL     1     -10.760  15.663  69.538  1.00  0.00    -0.271 C  
HETATM    5  N   UNL     1     -10.741  16.917  69.199  1.00  0.00    -0.325 N  
HETATM    6  C   UNL     1     -10.604  17.276  67.850  1.00  0.00    -0.384 C  
HETATM    7  H   UNL     1     -10.825  17.640  69.913  1.00  0.00     0.000 HD 
HETATM    8  C   UNL     1     -10.546  16.150  66.907  1.00  0.00    -0.283 A  
HETATM    9  O   UNL     1     -10.541  18.446  67.485  1.00  0.00    -0.408 OA 
HETATM   10  C   UNL     1     -10.567  14.868  67.386  1.00  0.00    -0.263 A  
HETATM   11  N   UNL     1     -10.539  14.038  66.312  1.00  0.00    -0.279 NA 
HETATM   12  N   UNL     1     -10.635  14.584  68.696  1.00  0.00    -0.248 NA 
HETATM   13  C   UNL     1     -10.486  14.853  65.205  1.00  0.00    -0.404 A  
HETATM   14  N   UNL     1     -10.481  16.132  65.529  1.00  0.00    -0.438 NA 
ENDROOT
BRANCH  11  15
HETATM   15  C   UNL     1     -10.477  12.593  66.298  1.00  0.00    -0.251 C  
BRANCH  15  16
HETATM   16  O   UNL     1     -11.658  12.078  66.912  1.00  0.00    -0.432 OA 
BRANCH  16  17
HETATM   17  C   UNL     1     -11.363  10.906  67.684  1.00  0.00    -0.270 C  
BRANCH  17  18
HETATM   18  C   UNL     1     -10.351  11.268  68.765  1.00  0.00    -0.205 C  
HETATM   19  O   UNL     1     -10.986  12.016  69.799  1.00  0.00    -0.463 OA 
HETATM   20  H   UNL     1     -10.354  12.240  70.473  1.00  0.00     0.000 HD 
ENDBRANCH  17  18
ENDBRANCH  16  17
ENDBRANCH  15  16
ENDBRANCH  11  15
TORSDOF 4
ENDMDL
MODEL       73
REMARK 921   NORMALIZED FREE ENERGY PREDICTED BY IDOCK:   -4.61 KCAL/MOL
REMARK 922        TOTAL FREE ENERGY PREDICTED BY IDOCK:   -5.91 KCAL/MOL
REMARK 923 INTER-LIGAND FREE ENERGY PREDICTED BY IDOCK:   -5.71 KCAL/MOL
REMARK 924 INTRA-LIGAND FREE ENERGY PREDICTED BY IDOCK:   -0.20 KCAL/MOL
REMARK 927      BINDING AFFINITY PREDICTED BY RF-SCORE:    0.00 PKD
ROOT
HETATM    1  N   UNL     1      -6.956  20.668  65.115  1.00  0.00    -0.525 NA 
HETATM    2  H2  UNL     1      -6.537  21.595  65.186  1.00  0.00     0.000 HD 
HETATM    3  H1  UNL     1      -7.216  20.297  64.201  1.00  0.00     0.000 HD 
HETATM    4  C   UNL     1      -7.165  19.933  66.236  1.00  0.00    -0.276 C  
HETATM    5  N   UNL     1      -6.834  20.404  67.400  1.00  0.00    -0.258 N  
HETATM    6  C   UNL     1      -7.019  19.625  68.550  1.00  0.00    -0.310 C  
HETATM    7  H   UNL     1      -6.439  21.342  67.477  1.00  0.00     0.000 HD 
HETATM    8  C   UNL     1      -7.544  18.272  68.310  1.00  0.00    -0.278 A  
HETATM    9  O   UNL     1      -6.759  20.040  69.675  1.00  0.00    -0.326 OA 
HETATM   10  C   UNL     1      -7.865  17.891  67.035  1.00  0.00    -0.214 A  
HETATM   11  N   UNL     1      -8.285  16.601  67.097  1.00  0.00    -0.170 NA 
HETATM   12  N   UNL     1      -7.725  18.705  65.978  1.00  0.00    -0.442 NA 
HETATM   13  C   UNL     1      -8.219  16.244  68.423  1.00  0.00    -0.185 A  
HETATM   14  N   UNL     1      -7.784  17.231  69.183  1.00  0.00    -0.151 NA 
ENDROOT
BRANCH  11  15
HETATM   15  C   UNL     1      -8.797  15.774  66.026  1.00  0.00    -0.225 C  
BRANCH  15  16
HETATM   16  O   UNL     1     -10.094  15.305  66.389  1.00  0.00    -0.253 OA 
BRANCH  16  17
HETATM   17  C   UNL     1     -10.746  14.689  65.271  1.00  0.00    -0.381 C  
BRANCH  17  18
HETATM   18  C   UNL     1     -11.909  15.570  64.829  1.00  0.00    -0.112 C  
HETATM   19  O   UNL     1     -11.445  16.581  63.938  1.00  0.00    -1.608 OA 
HETATM   20  H   UNL     1     -12.171  17.130  63.662  1.00  0.00     0.000 HD 
ENDBRANCH  17  18
ENDBRANCH  16  17
ENDBRANCH  15  16
ENDBRANCH  11  15
TORSDOF 4
ENDMDL
MODEL       74
REMARK 921   NORMALIZED FREE ENERGY PREDICTED BY IDOCK:   -4.60 KCAL/MOL
REMARK 922        TOTAL FREE ENERGY PREDICTED BY IDOCK:   -5.89 KCAL/MOL
REMARK 923 INTER-LIGAND FREE ENERGY PREDICTED BY IDOCK:   -5.66 KCAL/MOL
REMARK 924 INTRA-LIGAND FREE ENERGY PREDICTED BY IDOCK:   -0.23 KCAL/MOL
REMARK 927      BINDING AFFINITY PREDICTED BY RF-SCORE:    0.00 PKD
ROOT
HETATM    1  N   UNL     1     -13.210  15.517  71.025  1.00  0.00    -0.564 NA 
HETATM    2  H2  UNL     1     -13.834  14.902  71.547  1.00  0.00     0.000 HD 
HETATM    3  H1  UNL     1     -13.113  16.494  71.302  1.00  0.00     0.000 HD 
HETATM    4  C   UNL     1     -12.512  15.033  69.968  1.00  0.00    -0.275 C  
HETATM    5  N   UNL     1     -12.635  13.789  69.616  1.00  0.00    -0.275 N  
HETATM    6  C   UNL     1     -11.884  13.286  68.544  1.00  0.00    -0.349 C  
HETATM    7  H   UNL     1     -13.278  13.177  70.119  1.00  0.00     0.000 HD 
HETATM    8  C   UNL     1     -10.952  14.244  67.931  1.00  0.00    -0.267 A  
HETATM    9  O   UNL     1     -11.993  12.129  68.150  1.00  0.00    -0.430 OA 
HETATM   10  C   UNL     1     -10.918  15.536  68.385  1.00  0.00    -0.297 A  
HETATM   11  N   UNL     1      -9.957  16.183  67.678  1.00  0.00    -0.238 NA 
HETATM   12  N   UNL     1     -11.709  15.977  69.375  1.00  0.00    -0.320 NA 
HETATM   13  C   UNL     1      -9.445  15.258  66.799  1.00  0.00    -0.245 A  
HETATM   14  N   UNL     1     -10.028  14.081  66.920  1.00  0.00    -0.257 NA 
ENDROOT
BRANCH  11  15
HETATM   15  C   UNL     1      -9.589  17.581  67.740  1.00  0.00    -0.269 C  
BRANCH  15  16
HETATM   16  O   UNL     1     -10.690  18.366  67.285  1.00  0.00    -0.411 OA 
BRANCH  16  17
HETATM   17  C   UNL     1     -10.363  19.048  66.068  1.00  0.00    -0.446 C  
BRANCH  17  18
HETATM   18  C   UNL     1      -9.101  19.875  66.288  1.00  0.00    -0.360 C  
HETATM   19  O   UNL     1      -9.378  20.967  67.160  1.00  0.00    -0.663 OA 
HETATM   20  H   UNL     1      -8.591  21.483  67.297  1.00  0.00     0.000 HD 
ENDBRANCH  17  18
ENDBRANCH  16  17
ENDBRANCH  15  16
ENDBRANCH  11  15
TORSDOF 4
ENDMDL
MODEL       75
REMARK 921   NORMALIZED FREE ENERGY PREDICTED BY IDOCK:   -4.58 KCAL/MOL
REMARK 922        TOTAL FREE ENERGY PREDICTED BY IDOCK:   -5.87 KCAL/MOL
REMARK 923 INTER-LIGAND FREE ENERGY PREDICTED BY IDOCK:   -5.62 KCAL/MOL
REMARK 924 INTRA-LIGAND FREE ENERGY PREDICTED BY IDOCK:   -0.25 KCAL/MOL
REMARK 927      BINDING AFFINITY PREDICTED BY RF-SCORE:    0.00 PKD
ROOT
HETATM    1  N   UNL     1     -12.642  10.899  69.579  1.00  0.00    -0.534 NA 
HETATM    2  H2  UNL     1     -12.757  10.830  70.591  1.00  0.00     0.000 HD 
HETATM    3  H1  UNL     1     -13.454  11.069  68.987  1.00  0.00     0.000 HD 
HETATM    4  C   UNL     1     -11.410  10.764  69.029  1.00  0.00    -0.284 C  
HETATM    5  N   UNL     1     -10.375  10.548  69.784  1.00  0.00    -0.397 N  
HETATM    6  C   UNL     1      -9.099  10.445  69.211  1.00  0.00    -0.175 C  
HETATM    7  H   UNL     1     -10.490  10.452  70.793  1.00  0.00     0.000 HD 
HETATM    8  C   UNL     1      -9.049  10.653  67.756  1.00  0.00    -0.143 A  
HETATM    9  O   UNL     1      -8.097  10.203  69.877  1.00  0.00    -0.174 OA 
HETATM   10  C   UNL     1     -10.212  10.866  67.066  1.00  0.00    -0.214 A  
HETATM   11  N   UNL     1      -9.876  11.060  65.765  1.00  0.00    -0.223 NA 
HETATM   12  N   UNL     1     -11.415  10.890  67.661  1.00  0.00    -0.518 NA 
HETATM   13  C   UNL     1      -8.507  10.942  65.706  1.00  0.00    -0.155 A  
HETATM   14  N   UNL     1      -7.978  10.689  66.888  1.00  0.00    -0.120 NA 
ENDROOT
BRANCH  11  15
HETATM   15  C   UNL     1     -10.754  11.255  64.632  1.00  0.00    -0.303 C  
BRANCH  15  16
HETATM   16  O   UNL     1     -10.288  12.372  63.877  1.00  0.00    -0.384 OA 
BRANCH  16  17
HETATM   17  C   UNL     1     -10.542  13.600  64.572  1.00  0.00    -0.411 C  
BRANCH  17  18
HETATM   18  C   UNL     1     -12.044  13.868  64.571  1.00  0.00    -0.443 C  
HETATM   19  O   UNL     1     -12.491  14.137  63.245  1.00  0.00    -1.146 OA 
HETATM   20  H   UNL     1     -13.427  14.303  63.245  1.00  0.00     0.000 HD 
ENDBRANCH  17  18
ENDBRANCH  16  17
ENDBRANCH  15  16
ENDBRANCH  11  15
TORSDOF 4
ENDMDL
MODEL       76
REMARK 921   NORMALIZED FREE ENERGY PREDICTED BY IDOCK:   -4.57 KCAL/MOL
REMARK 922        TOTAL FREE ENERGY PREDICTED BY IDOCK:   -5.86 KCAL/MOL
REMARK 923 INTER-LIGAND FREE ENERGY PREDICTED BY IDOCK:   -5.33 KCAL/MOL
REMARK 924 INTRA-LIGAND FREE ENERGY PREDICTED BY IDOCK:   -0.53 KCAL/MOL
REMARK 927      BINDING AFFINITY PREDICTED BY RF-SCORE:    0.00 PKD
ROOT
HETATM    1  N   UNL     1     -14.387   8.695  72.903  1.00  0.00    -1.063 NA 
HETATM    2  H2  UNL     1     -15.271   9.179  72.743  1.00  0.00     0.000 HD 
HETATM    3  H1  UNL     1     -14.349   7.913  73.557  1.00  0.00     0.000 HD 
HETATM    4  C   UNL     1     -13.270   9.093  72.246  1.00  0.00    -0.461 C  
HETATM    5  N   UNL     1     -13.319  10.088  71.413  1.00  0.00    -0.370 N  
HETATM    6  C   UNL     1     -12.168  10.472  70.710  1.00  0.00    -0.369 C  
HETATM    7  H   UNL     1     -14.195  10.592  71.270  1.00  0.00     0.000 HD 
HETATM    8  C   UNL     1     -10.980   9.640  70.956  1.00  0.00    -0.361 A  
HETATM    9  O   UNL     1     -12.154  11.428  69.942  1.00  0.00    -0.310 OA 
HETATM   10  C   UNL     1     -11.049   8.620  71.867  1.00  0.00    -0.346 A  
HETATM   11  N   UNL     1      -9.840   8.003  71.869  1.00  0.00    -0.177 NA 
HETATM   12  N   UNL     1     -12.164   8.340  72.559  1.00  0.00    -0.356 NA 
HETATM   13  C   UNL     1      -9.064   8.686  70.962  1.00  0.00    -0.199 A  
HETATM   14  N   UNL     1      -9.719   9.684  70.400  1.00  0.00    -0.262 NA 
ENDROOT
BRANCH  11  15
HETATM   15  C   UNL     1      -9.392   6.913  72.709  1.00  0.00    -0.135 C  
BRANCH  15  16
HETATM   16  O   UNL     1      -9.995   5.704  72.251  1.00  0.00    -0.168 OA 
BRANCH  16  17
HETATM   17  C   UNL     1      -9.239   5.131  71.177  1.00  0.00    -0.145 C  
BRANCH  17  18
HETATM   18  C   UNL     1     -10.171   4.880  69.995  1.00  0.00    -0.243 C  
HETATM   19  O   UNL     1     -11.191   5.874  69.957  1.00  0.00    -0.364 OA 
HETATM   20  H   UNL     1     -11.771   5.717  69.221  1.00  0.00     0.000 HD 
ENDBRANCH  17  18
ENDBRANCH  16  17
ENDBRANCH  15  16
ENDBRANCH  11  15
TORSDOF 4
ENDMDL
MODEL       77
REMARK 921   NORMALIZED FREE ENERGY PREDICTED BY IDOCK:   -4.49 KCAL/MOL
REMARK 922        TOTAL FREE ENERGY PREDICTED BY IDOCK:   -5.77 KCAL/MOL
REMARK 923 INTER-LIGAND FREE ENERGY PREDICTED BY IDOCK:   -5.52 KCAL/MOL
REMARK 924 INTRA-LIGAND FREE ENERGY PREDICTED BY IDOCK:   -0.24 KCAL/MOL
REMARK 927      BINDING AFFINITY PREDICTED BY RF-SCORE:    0.00 PKD
ROOT
HETATM    1  N   UNL     1     -10.786  13.350  68.934  1.00  0.00    -0.352 NA 
HETATM    2  H2  UNL     1     -10.891  14.365  68.965  1.00  0.00     0.000 HD 
HETATM    3  H1  UNL     1     -10.163  12.925  68.248  1.00  0.00     0.000 HD 
HETATM    4  C   UNL     1     -11.474  12.574  69.808  1.00  0.00    -0.141 C  
HETATM    5  N   UNL     1     -12.266  13.115  70.683  1.00  0.00    -0.441 N  
HETATM    6  C   UNL     1     -12.947  12.309  71.606  1.00  0.00    -0.311 C  
HETATM    7  H   UNL     1     -12.394  14.127  70.699  1.00  0.00     0.000 HD 
HETATM    8  C   UNL     1     -12.643  10.872  71.524  1.00  0.00    -0.375 A  
HETATM    9  O   UNL     1     -13.735  12.769  72.426  1.00  0.00    -0.546 OA 
HETATM   10  C   UNL     1     -11.794  10.418  70.550  1.00  0.00    -0.337 A  
HETATM   11  N   UNL     1     -11.664   9.078  70.725  1.00  0.00    -0.270 NA 
HETATM   12  N   UNL     1     -11.220  11.232  69.650  1.00  0.00    -0.262 NA 
HETATM   13  C   UNL     1     -12.459   8.758  71.800  1.00  0.00    -0.350 A  
HETATM   14  N   UNL     1     -13.069   9.816  72.300  1.00  0.00    -0.402 NA 
ENDROOT
BRANCH  11  15
HETATM   15  C   UNL     1     -10.930   8.136  69.909  1.00  0.00    -0.168 C  
BRANCH  15  16
HETATM   16  O   UNL     1     -11.491   6.837  70.092  1.00  0.00    -0.333 OA 
BRANCH  16  17
HETATM   17  C   UNL     1     -11.017   5.929  69.089  1.00  0.00    -0.312 C  
BRANCH  17  18
HETATM   18  C   UNL     1     -10.571   6.728  67.869  1.00  0.00    -0.242 C  
HETATM   19  O   UNL     1     -11.260   6.271  66.708  1.00  0.00    -0.683 OA 
HETATM   20  H   UNL     1     -10.982   6.769  65.948  1.00  0.00     0.000 HD 
ENDBRANCH  17  18
ENDBRANCH  16  17
ENDBRANCH  15  16
ENDBRANCH  11  15
TORSDOF 4
ENDMDL
MODEL       78
REMARK 921   NORMALIZED FREE ENERGY PREDICTED BY IDOCK:   -4.49 KCAL/MOL
REMARK 922        TOTAL FREE ENERGY PREDICTED BY IDOCK:   -5.76 KCAL/MOL
REMARK 923 INTER-LIGAND FREE ENERGY PREDICTED BY IDOCK:   -5.23 KCAL/MOL
REMARK 924 INTRA-LIGAND FREE ENERGY PREDICTED BY IDOCK:   -0.53 KCAL/MOL
REMARK 927      BINDING AFFINITY PREDICTED BY RF-SCORE:    0.00 PKD
ROOT
HETATM    1  N   UNL     1     -10.006   9.634  66.041  1.00  0.00    -0.280 NA 
HETATM    2  H2  UNL     1      -9.969   9.455  65.038  1.00  0.00     0.000 HD 
HETATM    3  H1  UNL     1      -9.907  10.587  66.392  1.00  0.00     0.000 HD 
HETATM    4  C   UNL     1     -10.189   8.603  66.904  1.00  0.00    -0.296 C  
HETATM    5  N   UNL     1     -10.317   7.390  66.458  1.00  0.00    -0.499 N  
HETATM    6  C   UNL     1     -10.541   6.334  67.353  1.00  0.00    -0.291 C  
HETATM    7  H   UNL     1     -10.253   7.205  65.457  1.00  0.00     0.000 HD 
HETATM    8  C   UNL     1     -10.668   6.728  68.764  1.00  0.00    -0.239 A  
HETATM    9  O   UNL     1     -10.629   5.167  66.985  1.00  0.00    -0.223 OA 
HETATM   10  C   UNL     1     -10.505   8.042  69.114  1.00  0.00    -0.208 A  
HETATM   11  N   UNL     1     -10.708   8.128  70.454  1.00  0.00    -0.229 NA 
HETATM   12  N   UNL     1     -10.227   9.002  68.218  1.00  0.00    -0.197 NA 
HETATM   13  C   UNL     1     -10.975   6.848  70.879  1.00  0.00    -0.253 A  
HETATM   14  N   UNL     1     -10.951   5.979  69.887  1.00  0.00    -0.362 NA 
ENDROOT
BRANCH  11  15
HETATM   15  C   UNL     1     -10.582   9.290  71.306  1.00  0.00    -0.347 C  
BRANCH  15  16
HETATM   16  O   UNL     1     -11.802   9.467  72.024  1.00  0.00    -0.341 OA 
BRANCH  16  17
HETATM   17  C   UNL     1     -12.819  10.014  71.175  1.00  0.00    -0.385 C  
BRANCH  17  18
HETATM   18  C   UNL     1     -12.228  11.169  70.375  1.00  0.00    -0.369 C  
HETATM   19  O   UNL     1     -12.448  10.962  68.982  1.00  0.00    -0.713 OA 
HETATM   20  H   UNL     1     -12.080  11.682  68.483  1.00  0.00     0.000 HD 
ENDBRANCH  17  18
ENDBRANCH  16  17
ENDBRANCH  15  16
ENDBRANCH  11  15
TORSDOF 4
ENDMDL
MODEL       79
REMARK 921   NORMALIZED FREE ENERGY PREDICTED BY IDOCK:   -4.47 KCAL/MOL
REMARK 922        TOTAL FREE ENERGY PREDICTED BY IDOCK:   -5.74 KCAL/MOL
REMARK 923 INTER-LIGAND FREE ENERGY PREDICTED BY IDOCK:   -5.50 KCAL/MOL
REMARK 924 INTRA-LIGAND FREE ENERGY PREDICTED BY IDOCK:   -0.24 KCAL/MOL
REMARK 927      BINDING AFFINITY PREDICTED BY RF-SCORE:    0.00 PKD
ROOT
HETATM    1  N   UNL     1      -9.712   6.907  66.418  1.00  0.00    -0.366 NA 
HETATM    2  H2  UNL     1      -9.362   6.512  65.545  1.00  0.00     0.000 HD 
HETATM    3  H1  UNL     1      -9.855   6.302  67.227  1.00  0.00     0.000 HD 
HETATM    4  C   UNL     1      -9.983   8.233  66.498  1.00  0.00    -0.250 C  
HETATM    5  N   UNL     1      -9.800   9.003  65.468  1.00  0.00    -0.436 N  
HETATM    6  C   UNL     1     -10.048  10.379  65.569  1.00  0.00    -0.283 C  
HETATM    7  H   UNL     1      -9.475   8.607  64.586  1.00  0.00     0.000 HD 
HETATM    8  C   UNL     1     -10.459  10.844  66.902  1.00  0.00    -0.249 A  
HETATM    9  O   UNL     1      -9.927  11.141  64.615  1.00  0.00    -0.249 OA 
HETATM   10  C   UNL     1     -10.627   9.933  67.911  1.00  0.00    -0.254 A  
HETATM   11  N   UNL     1     -10.968  10.629  69.026  1.00  0.00    -0.229 NA 
HETATM   12  N   UNL     1     -10.436   8.616  67.738  1.00  0.00    -0.238 NA 
HETATM   13  C   UNL     1     -11.011  11.950  68.649  1.00  0.00    -0.228 A  
HETATM   14  N   UNL     1     -10.717  12.114  67.373  1.00  0.00    -0.228 NA 
ENDROOT
BRANCH  11  15
HETATM   15  C   UNL     1     -11.317  10.112  70.331  1.00  0.00    -0.326 C  
BRANCH  15  16
HETATM   16  O   UNL     1     -11.959  11.146  71.076  1.00  0.00    -0.293 OA 
BRANCH  16  17
HETATM   17  C   UNL     1     -13.127  10.648  71.740  1.00  0.00    -0.466 C  
BRANCH  17  18
HETATM   18  C   UNL     1     -12.959   9.151  71.982  1.00  0.00    -0.424 C  
HETATM   19  O   UNL     1     -13.553   8.787  73.225  1.00  0.00    -0.983 OA 
HETATM   20  H   UNL     1     -13.448   7.854  73.375  1.00  0.00     0.000 HD 
ENDBRANCH  17  18
ENDBRANCH  16  17
ENDBRANCH  15  16
ENDBRANCH  11  15
TORSDOF 4
ENDMDL
MODEL       80
REMARK 921   NORMALIZED FREE ENERGY PREDICTED BY IDOCK:   -4.45 KCAL/MOL
REMARK 922        TOTAL FREE ENERGY PREDICTED BY IDOCK:   -5.72 KCAL/MOL
REMARK 923 INTER-LIGAND FREE ENERGY PREDICTED BY IDOCK:   -5.48 KCAL/MOL
REMARK 924 INTRA-LIGAND FREE ENERGY PREDICTED BY IDOCK:   -0.23 KCAL/MOL
REMARK 927      BINDING AFFINITY PREDICTED BY RF-SCORE:    0.00 PKD
ROOT
HETATM    1  N   UNL     1      -8.314   9.062  67.858  1.00  0.00    -0.117 NA 
HETATM    2  H2  UNL     1      -7.544   8.412  68.018  1.00  0.00     0.000 HD 
HETATM    3  H1  UNL     1      -8.804   9.474  68.652  1.00  0.00     0.000 HD 
HETATM    4  C   UNL     1      -8.681   9.374  66.590  1.00  0.00    -0.131 C  
HETATM    5  N   UNL     1      -8.058   8.850  65.579  1.00  0.00    -0.107 N  
HETATM    6  C   UNL     1      -8.419   9.205  64.272  1.00  0.00    -0.187 C  
HETATM    7  H   UNL     1      -7.305   8.179  65.735  1.00  0.00     0.000 HD 
HETATM    8  C   UNL     1      -9.479  10.219  64.170  1.00  0.00    -0.301 A  
HETATM    9  O   UNL     1      -7.887   8.708  63.284  1.00  0.00    -0.135 OA 
HETATM   10  C   UNL     1     -10.069  10.694  65.311  1.00  0.00    -0.297 A  
HETATM   11  N   UNL     1     -10.975  11.632  64.934  1.00  0.00    -0.300 NA 
HETATM   12  N   UNL     1      -9.724  10.268  66.537  1.00  0.00    -0.185 NA 
HETATM   13  C   UNL     1     -10.915  11.686  63.561  1.00  0.00    -0.407 A  
HETATM   14  N   UNL     1     -10.029  10.841  63.069  1.00  0.00    -0.302 NA 
ENDROOT
BRANCH  11  15
HETATM   15  C   UNL     1     -11.898  12.371  65.767  1.00  0.00    -0.406 C  
BRANCH  15  16
HETATM   16  O   UNL     1     -11.316  13.634  66.088  1.00  0.00    -0.304 OA 
BRANCH  16  17
HETATM   17  C   UNL     1     -12.025  14.701  65.444  1.00  0.00    -0.275 C  
BRANCH  17  18
HETATM   18  C   UNL     1     -11.018  15.729  64.938  1.00  0.00    -0.427 C  
HETATM   19  O   UNL     1     -11.560  16.436  63.826  1.00  0.00    -1.605 OA 
HETATM   20  H   UNL     1     -10.933  17.077  63.510  1.00  0.00     0.000 HD 
ENDBRANCH  17  18
ENDBRANCH  16  17
ENDBRANCH  15  16
ENDBRANCH  11  15
TORSDOF 4
ENDMDL
MODEL       81
REMARK 921   NORMALIZED FREE ENERGY PREDICTED BY IDOCK:   -4.44 KCAL/MOL
REMARK 922        TOTAL FREE ENERGY PREDICTED BY IDOCK:   -5.70 KCAL/MOL
REMARK 923 INTER-LIGAND FREE ENERGY PREDICTED BY IDOCK:   -5.36 KCAL/MOL
REMARK 924 INTRA-LIGAND FREE ENERGY PREDICTED BY IDOCK:   -0.34 KCAL/MOL
REMARK 927      BINDING AFFINITY PREDICTED BY RF-SCORE:    0.00 PKD
ROOT
HETATM    1  N   UNL     1     -12.199  10.081  70.072  1.00  0.00    -0.491 NA 
HETATM    2  H2  UNL     1     -12.401   9.938  71.062  1.00  0.00     0.000 HD 
HETATM    3  H1  UNL     1     -12.114   9.277  69.450  1.00  0.00     0.000 HD 
HETATM    4  C   UNL     1     -12.045  11.339  69.589  1.00  0.00    -0.322 C  
HETATM    5  N   UNL     1     -12.154  12.363  70.381  1.00  0.00    -0.449 N  
HETATM    6  C   UNL     1     -12.030  13.662  69.868  1.00  0.00    -0.348 C  
HETATM    7  H   UNL     1     -12.329  12.223  71.376  1.00  0.00     0.000 HD 
HETATM    8  C   UNL     1     -11.832  13.743  68.413  1.00  0.00    -0.376 A  
HETATM    9  O   UNL     1     -12.086  14.659  70.581  1.00  0.00    -0.277 OA 
HETATM   10  C   UNL     1     -11.725  12.589  67.683  1.00  0.00    -0.361 A  
HETATM   11  N   UNL     1     -11.587  12.950  66.381  1.00  0.00    -0.351 NA 
HETATM   12  N   UNL     1     -11.788  11.370  68.240  1.00  0.00    -0.567 NA 
HETATM   13  C   UNL     1     -11.600  14.325  66.366  1.00  0.00    -0.372 A  
HETATM   14  N   UNL     1     -11.738  14.834  67.576  1.00  0.00    -0.370 NA 
ENDROOT
BRANCH  11  15
HETATM   15  C   UNL     1     -11.370  12.097  65.234  1.00  0.00    -0.336 C  
BRANCH  15  16
HETATM   16  O   UNL     1      -9.971  12.049  64.956  1.00  0.00    -0.255 OA 
BRANCH  16  17
HETATM   17  C   UNL     1      -9.391  10.840  65.462  1.00  0.00    -0.207 C  
BRANCH  17  18
HETATM   18  C   UNL     1      -8.278  11.196  66.441  1.00  0.00    -0.164 C  
HETATM   19  O   UNL     1      -8.083  10.132  67.369  1.00  0.00    -0.113 OA 
HETATM   20  H   UNL     1      -7.389  10.355  67.978  1.00  0.00     0.000 HD 
ENDBRANCH  17  18
ENDBRANCH  16  17
ENDBRANCH  15  16
ENDBRANCH  11  15
TORSDOF 4
ENDMDL
MODEL       82
REMARK 921   NORMALIZED FREE ENERGY PREDICTED BY IDOCK:   -4.43 KCAL/MOL
REMARK 922        TOTAL FREE ENERGY PREDICTED BY IDOCK:   -5.68 KCAL/MOL
REMARK 923 INTER-LIGAND FREE ENERGY PREDICTED BY IDOCK:   -5.16 KCAL/MOL
REMARK 924 INTRA-LIGAND FREE ENERGY PREDICTED BY IDOCK:   -0.52 KCAL/MOL
REMARK 927      BINDING AFFINITY PREDICTED BY RF-SCORE:    0.00 PKD
ROOT
HETATM    1  N   UNL     1     -11.675   6.695  70.220  1.00  0.00    -0.516 NA 
HETATM    2  H2  UNL     1     -11.960   5.795  70.607  1.00  0.00     0.000 HD 
HETATM    3  H1  UNL     1     -11.063   6.726  69.405  1.00  0.00     0.000 HD 
HETATM    4  C   UNL     1     -12.111   7.844  70.792  1.00  0.00    -0.084 C  
HETATM    5  N   UNL     1     -12.891   7.805  71.831  1.00  0.00    -0.392 N  
HETATM    6  C   UNL     1     -13.367   8.997  72.395  1.00  0.00    -0.460 C  
HETATM    7  H   UNL     1     -13.156   6.908  72.236  1.00  0.00     0.000 HD 
HETATM    8  C   UNL     1     -12.962  10.225  71.694  1.00  0.00    -0.465 A  
HETATM    9  O   UNL     1     -14.073   9.014  73.398  1.00  0.00    -0.160 OA 
HETATM   10  C   UNL     1     -12.128  10.139  70.612  1.00  0.00    -0.319 A  
HETATM   11  N   UNL     1     -11.950  11.401  70.143  1.00  0.00    -0.352 NA 
HETATM   12  N   UNL     1     -11.651   8.971  70.154  1.00  0.00    -0.076 NA 
HETATM   13  C   UNL     1     -12.676  12.220  70.974  1.00  0.00    -0.225 A  
HETATM   14  N   UNL     1     -13.292  11.544  71.925  1.00  0.00    -0.404 NA 
ENDROOT
BRANCH  11  15
HETATM   15  C   UNL     1     -11.100  11.841  69.057  1.00  0.00    -0.246 C  
BRANCH  15  16
HETATM   16  O   UNL     1     -11.847  11.792  67.843  1.00  0.00    -0.518 OA 
BRANCH  16  17
HETATM   17  C   UNL     1     -11.013  11.398  66.746  1.00  0.00    -0.291 C  
BRANCH  17  18
HETATM   18  C   UNL     1     -10.128  10.237  67.188  1.00  0.00    -0.210 C  
HETATM   19  O   UNL     1     -10.913   9.058  67.346  1.00  0.00    -0.444 OA 
HETATM   20  H   UNL     1     -10.361   8.335  67.621  1.00  0.00     0.000 HD 
ENDBRANCH  17  18
ENDBRANCH  16  17
ENDBRANCH  15  16
ENDBRANCH  11  15
TORSDOF 4
ENDMDL
MODEL       83
REMARK 921   NORMALIZED FREE ENERGY PREDICTED BY IDOCK:   -4.41 KCAL/MOL
REMARK 922        TOTAL FREE ENERGY PREDICTED BY IDOCK:   -5.66 KCAL/MOL
REMARK 923 INTER-LIGAND FREE ENERGY PREDICTED BY IDOCK:   -5.03 KCAL/MOL
REMARK 924 INTRA-LIGAND FREE ENERGY PREDICTED BY IDOCK:   -0.63 KCAL/MOL
REMARK 927      BINDING AFFINITY PREDICTED BY RF-SCORE:    0.00 PKD
ROOT
HETATM    1  N   UNL     1     -12.664  11.826  71.099  1.00  0.00    -0.358 NA 
HETATM    2  H2  UNL     1     -12.938  11.707  72.075  1.00  0.00     0.000 HD 
HETATM    3  H1  UNL     1     -12.734  11.040  70.453  1.00  0.00     0.000 HD 
HETATM    4  C   UNL     1     -12.209  13.028  70.668  1.00  0.00    -0.307 C  
HETATM    5  N   UNL     1     -12.120  14.029  71.490  1.00  0.00    -0.349 N  
HETATM    6  C   UNL     1     -11.683  15.279  71.030  1.00  0.00    -0.348 C  
HETATM    7  H   UNL     1     -12.368  13.906  72.472  1.00  0.00     0.000 HD 
HETATM    8  C   UNL     1     -11.406  15.351  69.587  1.00  0.00    -0.307 A  
HETATM    9  O   UNL     1     -11.545  16.244  71.775  1.00  0.00    -0.459 OA 
HETATM   10  C   UNL     1     -11.529  14.223  68.821  1.00  0.00    -0.296 A  
HETATM   11  N   UNL     1     -11.254  14.577  67.539  1.00  0.00    -0.307 NA 
HETATM   12  N   UNL     1     -11.890  13.035  69.331  1.00  0.00    -0.322 NA 
HETATM   13  C   UNL     1     -10.955  15.919  67.573  1.00  0.00    -0.280 A  
HETATM   14  N   UNL     1     -11.031  16.415  68.794  1.00  0.00    -0.332 NA 
ENDROOT
BRANCH  11  15
HETATM   15  C   UNL     1     -11.183  13.727  66.371  1.00  0.00    -0.316 C  
BRANCH  15  16
HETATM   16  O   UNL     1      -9.816  13.395  66.128  1.00  0.00    -0.284 OA 
BRANCH  16  17
HETATM   17  C   UNL     1      -9.531  12.059  66.561  1.00  0.00    -0.228 C  
BRANCH  17  18
HETATM   18  C   UNL     1      -8.673  12.119  67.820  1.00  0.00    -0.171 C  
HETATM   19  O   UNL     1      -9.380  11.555  68.921  1.00  0.00    -0.367 OA 
HETATM   20  H   UNL     1      -8.845  11.592  69.706  1.00  0.00     0.000 HD 
ENDBRANCH  17  18
ENDBRANCH  16  17
ENDBRANCH  15  16
ENDBRANCH  11  15
TORSDOF 4
ENDMDL
MODEL       84
REMARK 921   NORMALIZED FREE ENERGY PREDICTED BY IDOCK:   -4.40 KCAL/MOL
REMARK 922        TOTAL FREE ENERGY PREDICTED BY IDOCK:   -5.66 KCAL/MOL
REMARK 923 INTER-LIGAND FREE ENERGY PREDICTED BY IDOCK:   -5.45 KCAL/MOL
REMARK 924 INTRA-LIGAND FREE ENERGY PREDICTED BY IDOCK:   -0.21 KCAL/MOL
REMARK 927      BINDING AFFINITY PREDICTED BY RF-SCORE:    0.00 PKD
ROOT
HETATM    1  N   UNL     1      -8.881   7.410  69.352  1.00  0.00    -0.137 NA 
HETATM    2  H2  UNL     1      -8.912   6.812  70.178  1.00  0.00     0.000 HD 
HETATM    3  H1  UNL     1      -8.253   7.180  68.582  1.00  0.00     0.000 HD 
HETATM    4  C   UNL     1      -9.675   8.507  69.282  1.00  0.00    -0.173 C  
HETATM    5  N   UNL     1     -10.476   8.801  70.262  1.00  0.00    -0.201 N  
HETATM    6  C   UNL     1     -11.320   9.916  70.167  1.00  0.00    -0.275 C  
HETATM    7  H   UNL     1     -10.490   8.220  71.100  1.00  0.00     0.000 HD 
HETATM    8  C   UNL     1     -11.251  10.645  68.892  1.00  0.00    -0.275 A  
HETATM    9  O   UNL     1     -12.065  10.256  71.081  1.00  0.00    -0.341 OA 
HETATM   10  C   UNL     1     -10.359  10.244  67.934  1.00  0.00    -0.196 A  
HETATM   11  N   UNL     1     -10.531  11.058  66.861  1.00  0.00    -0.235 NA 
HETATM   12  N   UNL     1      -9.528   9.204  68.106  1.00  0.00    -0.141 NA 
HETATM   13  C   UNL     1     -11.521  11.944  67.213  1.00  0.00    -0.317 A  
HETATM   14  N   UNL     1     -11.971  11.728  68.434  1.00  0.00    -0.490 NA 
ENDROOT
BRANCH  11  15
HETATM   15  C   UNL     1      -9.779  11.080  65.625  1.00  0.00    -0.232 C  
BRANCH  15  16
HETATM   16  O   UNL     1     -10.675  10.849  64.539  1.00  0.00    -0.327 OA 
BRANCH  16  17
HETATM   17  C   UNL     1     -10.742  11.994  63.679  1.00  0.00    -0.449 C  
BRANCH  17  18
HETATM   18  C   UNL     1     -12.202  12.397  63.502  1.00  0.00    -0.563 C  
HETATM   19  O   UNL     1     -12.287  13.756  63.084  1.00  0.00    -1.099 OA 
HETATM   20  H   UNL     1     -13.197  14.007  62.974  1.00  0.00     0.000 HD 
ENDBRANCH  17  18
ENDBRANCH  16  17
ENDBRANCH  15  16
ENDBRANCH  11  15
TORSDOF 4
ENDMDL
MODEL       85
REMARK 921   NORMALIZED FREE ENERGY PREDICTED BY IDOCK:   -4.38 KCAL/MOL
REMARK 922        TOTAL FREE ENERGY PREDICTED BY IDOCK:   -5.63 KCAL/MOL
REMARK 923 INTER-LIGAND FREE ENERGY PREDICTED BY IDOCK:   -5.44 KCAL/MOL
REMARK 924 INTRA-LIGAND FREE ENERGY PREDICTED BY IDOCK:   -0.18 KCAL/MOL
REMARK 927      BINDING AFFINITY PREDICTED BY RF-SCORE:    0.00 PKD
ROOT
HETATM    1  N   UNL     1     -10.917   7.737  69.151  1.00  0.00    -0.427 NA 
HETATM    2  H2  UNL     1     -11.043   6.737  69.313  1.00  0.00     0.000 HD 
HETATM    3  H1  UNL     1     -10.327   8.055  68.382  1.00  0.00     0.000 HD 
HETATM    4  C   UNL     1     -11.535   8.634  69.958  1.00  0.00     0.069 C  
HETATM    5  N   UNL     1     -12.286   8.229  70.937  1.00  0.00    -0.484 N  
HETATM    6  C   UNL     1     -12.950   9.163  71.744  1.00  0.00    -0.380 C  
HETATM    7  H   UNL     1     -12.392   7.231  71.118  1.00  0.00     0.000 HD 
HETATM    8  C   UNL     1     -12.765  10.568  71.355  1.00  0.00    -0.442 A  
HETATM    9  O   UNL     1     -13.639   8.830  72.704  1.00  0.00    -0.387 OA 
HETATM   10  C   UNL     1     -11.940  10.874  70.306  1.00  0.00    -0.361 A  
HETATM   11  N   UNL     1     -11.981  12.221  70.143  1.00  0.00    -0.335 NA 
HETATM   12  N   UNL     1     -11.278   9.938  69.608  1.00  0.00    -0.232 NA 
HETATM   13  C   UNL     1     -12.826  12.695  71.119  1.00  0.00    -0.220 A  
HETATM   14  N   UNL     1     -13.310  11.725  71.871  1.00  0.00    -0.401 NA 
ENDROOT
BRANCH  11  15
HETATM   15  C   UNL     1     -11.228  13.034  69.212  1.00  0.00    -0.199 C  
BRANCH  15  16
HETATM   16  O   UNL     1     -12.142  13.690  68.335  1.00  0.00    -0.361 OA 
BRANCH  16  17
HETATM   17  C   UNL     1     -11.589  14.919  67.847  1.00  0.00    -0.344 C  
BRANCH  17  18
HETATM   18  C   UNL     1     -11.638  15.961  68.959  1.00  0.00    -0.389 C  
HETATM   19  O   UNL     1     -12.851  15.831  69.697  1.00  0.00    -0.550 OA 
HETATM   20  H   UNL     1     -12.881  16.480  70.391  1.00  0.00     0.000 HD 
ENDBRANCH  17  18
ENDBRANCH  16  17
ENDBRANCH  15  16
ENDBRANCH  11  15
TORSDOF 4
ENDMDL
MODEL       86
REMARK 921   NORMALIZED FREE ENERGY PREDICTED BY IDOCK:   -4.37 KCAL/MOL
REMARK 922        TOTAL FREE ENERGY PREDICTED BY IDOCK:   -5.61 KCAL/MOL
REMARK 923 INTER-LIGAND FREE ENERGY PREDICTED BY IDOCK:   -5.06 KCAL/MOL
REMARK 924 INTRA-LIGAND FREE ENERGY PREDICTED BY IDOCK:   -0.56 KCAL/MOL
REMARK 927      BINDING AFFINITY PREDICTED BY RF-SCORE:    0.00 PKD
ROOT
HETATM    1  N   UNL     1     -11.615  15.116  69.226  1.00  0.00    -0.304 NA 
HETATM    2  H2  UNL     1     -11.840  16.076  69.490  1.00  0.00     0.000 HD 
HETATM    3  H1  UNL     1     -11.014  14.938  68.422  1.00  0.00     0.000 HD 
HETATM    4  C   UNL     1     -12.118  14.083  69.947  1.00  0.00    -0.345 C  
HETATM    5  N   UNL     1     -12.884  14.309  70.971  1.00  0.00    -0.342 N  
HETATM    6  C   UNL     1     -13.370  13.237  71.733  1.00  0.00    -0.393 C  
HETATM    7  H   UNL     1     -13.132  15.266  71.221  1.00  0.00     0.000 HD 
HETATM    8  C   UNL     1     -12.903  11.908  71.312  1.00  0.00    -0.290 A  
HETATM    9  O   UNL     1     -14.127  13.398  72.685  1.00  0.00    -0.767 OA 
HETATM   10  C   UNL     1     -12.101  11.795  70.207  1.00  0.00    -0.342 A  
HETATM   11  N   UNL     1     -11.793  10.481  70.069  1.00  0.00    -0.294 NA 
HETATM   12  N   UNL     1     -11.719  12.855  69.477  1.00  0.00    -0.319 NA 
HETATM   13  C   UNL     1     -12.437   9.831  71.096  1.00  0.00    -0.350 A  
HETATM   14  N   UNL     1     -13.121  10.661  71.859  1.00  0.00    -0.487 NA 
ENDROOT
BRANCH  11  15
HETATM   15  C   UNL     1     -11.030   9.846  69.017  1.00  0.00    -0.190 C  
BRANCH  15  16
HETATM   16  O   UNL     1      -9.658   9.805  69.405  1.00  0.00    -0.182 OA 
BRANCH  16  17
HETATM   17  C   UNL     1      -8.809  10.229  68.331  1.00  0.00    -0.129 C  
BRANCH  17  18
HETATM   18  C   UNL     1      -8.434  11.692  68.544  1.00  0.00    -0.135 C  
HETATM   19  O   UNL     1      -9.402  12.539  67.931  1.00  0.00    -0.186 OA 
HETATM   20  H   UNL     1      -9.168  13.451  68.065  1.00  0.00     0.000 HD 
ENDBRANCH  17  18
ENDBRANCH  16  17
ENDBRANCH  15  16
ENDBRANCH  11  15
TORSDOF 4
ENDMDL
MODEL       87
REMARK 921   NORMALIZED FREE ENERGY PREDICTED BY IDOCK:   -4.37 KCAL/MOL
REMARK 922        TOTAL FREE ENERGY PREDICTED BY IDOCK:   -5.61 KCAL/MOL
REMARK 923 INTER-LIGAND FREE ENERGY PREDICTED BY IDOCK:   -5.41 KCAL/MOL
REMARK 924 INTRA-LIGAND FREE ENERGY PREDICTED BY IDOCK:   -0.20 KCAL/MOL
REMARK 927      BINDING AFFINITY PREDICTED BY RF-SCORE:    0.00 PKD
ROOT
HETATM    1  N   UNL     1     -13.131   8.227  72.587  1.00  0.00    -0.600 NA 
HETATM    2  H2  UNL     1     -13.811   8.244  73.348  1.00  0.00     0.000 HD 
HETATM    3  H1  UNL     1     -12.695   7.345  72.316  1.00  0.00     0.000 HD 
HETATM    4  C   UNL     1     -12.813   9.375  71.940  1.00  0.00    -0.412 C  
HETATM    5  N   UNL     1     -13.368  10.497  72.284  1.00  0.00    -0.577 N  
HETATM    6  C   UNL     1     -13.061  11.675  71.587  1.00  0.00    -0.351 C  
HETATM    7  H   UNL     1     -14.029  10.522  73.061  1.00  0.00     0.000 HD 
HETATM    8  C   UNL     1     -12.140  11.507  70.453  1.00  0.00    -0.382 A  
HETATM    9  O   UNL     1     -13.530  12.765  71.899  1.00  0.00    -0.450 OA 
HETATM   10  C   UNL     1     -11.611  10.271  70.193  1.00  0.00    -0.299 A  
HETATM   11  N   UNL     1     -10.834  10.393  69.086  1.00  0.00    -0.220 NA 
HETATM   12  N   UNL     1     -11.893   9.190  70.936  1.00  0.00    -0.286 NA 
HETATM   13  C   UNL     1     -10.907  11.716  68.717  1.00  0.00    -0.220 A  
HETATM   14  N   UNL     1     -11.680  12.416  69.525  1.00  0.00    -0.315 NA 
ENDROOT
BRANCH  11  15
HETATM   15  C   UNL     1     -10.009   9.386  68.455  1.00  0.00    -0.173 C  
BRANCH  15  16
HETATM   16  O   UNL     1     -10.645   8.961  67.251  1.00  0.00    -0.283 OA 
BRANCH  16  17
HETATM   17  C   UNL     1     -10.706   7.531  67.182  1.00  0.00    -0.309 C  
BRANCH  17  18
HETATM   18  C   UNL     1      -9.378   7.004  66.650  1.00  0.00    -0.165 C  
HETATM   19  O   UNL     1      -9.609   6.041  65.625  1.00  0.00    -0.374 OA 
HETATM   20  H   UNL     1      -8.781   5.713  65.293  1.00  0.00     0.000 HD 
ENDBRANCH  17  18
ENDBRANCH  16  17
ENDBRANCH  15  16
ENDBRANCH  11  15
TORSDOF 4
ENDMDL
MODEL       88
REMARK 921   NORMALIZED FREE ENERGY PREDICTED BY IDOCK:   -4.36 KCAL/MOL
REMARK 922        TOTAL FREE ENERGY PREDICTED BY IDOCK:   -5.60 KCAL/MOL
REMARK 923 INTER-LIGAND FREE ENERGY PREDICTED BY IDOCK:   -5.36 KCAL/MOL
REMARK 924 INTRA-LIGAND FREE ENERGY PREDICTED BY IDOCK:   -0.24 KCAL/MOL
REMARK 927      BINDING AFFINITY PREDICTED BY RF-SCORE:    0.00 PKD
ROOT
HETATM    1  N   UNL     1     -13.027  15.430  70.276  1.00  0.00    -0.671 NA 
HETATM    2  H2  UNL     1     -13.825  14.809  70.414  1.00  0.00     0.000 HD 
HETATM    3  H1  UNL     1     -12.806  16.136  70.979  1.00  0.00     0.000 HD 
HETATM    4  C   UNL     1     -12.264  15.312  69.161  1.00  0.00    -0.153 C  
HETATM    5  N   UNL     1     -12.545  14.413  68.267  1.00  0.00    -0.331 N  
HETATM    6  C   UNL     1     -11.731  14.273  67.134  1.00  0.00    -0.404 C  
HETATM    7  H   UNL     1     -13.357  13.808  68.389  1.00  0.00     0.000 HD 
HETATM    8  C   UNL     1     -10.560  15.162  67.093  1.00  0.00    -0.295 A  
HETATM    9  O   UNL     1     -11.976  13.466  66.243  1.00  0.00    -0.372 OA 
HETATM   10  C   UNL     1     -10.374  16.078  68.094  1.00  0.00    -0.260 A  
HETATM   11  N   UNL     1      -9.213  16.731  67.829  1.00  0.00    -0.220 NA 
HETATM   12  N   UNL     1     -11.224  16.209  69.124  1.00  0.00    -0.329 NA 
HETATM   13  C   UNL     1      -8.737  16.195  66.655  1.00  0.00    -0.265 A  
HETATM   14  N   UNL     1      -9.529  15.252  66.182  1.00  0.00    -0.306 NA 
ENDROOT
BRANCH  11  15
HETATM   15  C   UNL     1      -8.621  17.834  68.553  1.00  0.00    -0.291 C  
BRANCH  15  16
HETATM   16  O   UNL     1      -7.305  18.059  68.049  1.00  0.00    -0.220 OA 
BRANCH  16  17
HETATM   17  C   UNL     1      -7.009  19.461  68.002  1.00  0.00    -0.255 C  
BRANCH  17  18
HETATM   18  C   UNL     1      -7.631  20.055  66.743  1.00  0.00    -0.275 C  
HETATM   19  O   UNL     1      -7.144  21.379  66.536  1.00  0.00    -0.710 OA 
HETATM   20  H   UNL     1      -7.532  21.749  65.751  1.00  0.00     0.000 HD 
ENDBRANCH  17  18
ENDBRANCH  16  17
ENDBRANCH  15  16
ENDBRANCH  11  15
TORSDOF 4
ENDMDL
MODEL       89
REMARK 921   NORMALIZED FREE ENERGY PREDICTED BY IDOCK:   -4.34 KCAL/MOL
REMARK 922        TOTAL FREE ENERGY PREDICTED BY IDOCK:   -5.58 KCAL/MOL
REMARK 923 INTER-LIGAND FREE ENERGY PREDICTED BY IDOCK:   -5.01 KCAL/MOL
REMARK 924 INTRA-LIGAND FREE ENERGY PREDICTED BY IDOCK:   -0.57 KCAL/MOL
REMARK 927      BINDING AFFINITY PREDICTED BY RF-SCORE:    0.00 PKD
ROOT
HETATM    1  N   UNL     1     -13.353  12.649  71.985  1.00  0.00    -0.504 NA 
HETATM    2  H2  UNL     1     -14.152  12.888  72.572  1.00  0.00     0.000 HD 
HETATM    3  H1  UNL     1     -12.770  13.389  71.595  1.00  0.00     0.000 HD 
HETATM    4  C   UNL     1     -13.071  11.348  71.726  1.00  0.00    -0.418 C  
HETATM    5  N   UNL     1     -13.812  10.404  72.223  1.00  0.00    -0.348 N  
HETATM    6  C   UNL     1     -13.493   9.061  71.981  1.00  0.00    -0.442 C  
HETATM    7  H   UNL     1     -14.628  10.641  72.789  1.00  0.00     0.000 HD 
HETATM    8  C   UNL     1     -12.268   8.841  71.199  1.00  0.00    -0.244 A  
HETATM    9  O   UNL     1     -14.185   8.136  72.395  1.00  0.00    -0.269 OA 
HETATM   10  C   UNL     1     -11.572   9.919  70.720  1.00  0.00    -0.349 A  
HETATM   11  N   UNL     1     -10.480   9.436  70.074  1.00  0.00    -0.218 NA 
HETATM   12  N   UNL     1     -11.962  11.186  70.930  1.00  0.00    -0.311 NA 
HETATM   13  C   UNL     1     -10.558   8.066  70.170  1.00  0.00    -0.237 A  
HETATM   14  N   UNL     1     -11.628   7.675  70.835  1.00  0.00    -0.283 NA 
ENDROOT
BRANCH  11  15
HETATM   15  C   UNL     1      -9.474  10.173  69.342  1.00  0.00    -0.224 C  
BRANCH  15  16
HETATM   16  O   UNL     1     -10.049  10.648  68.125  1.00  0.00    -0.152 OA 
BRANCH  16  17
HETATM   17  C   UNL     1      -9.881  12.065  67.999  1.00  0.00    -0.199 C  
BRANCH  17  18
HETATM   18  C   UNL     1     -11.255  12.722  67.924  1.00  0.00    -0.274 C  
HETATM   19  O   UNL     1     -12.272  11.724  67.887  1.00  0.00    -0.538 OA 
HETATM   20  H   UNL     1     -13.129  12.134  67.841  1.00  0.00     0.000 HD 
ENDBRANCH  17  18
ENDBRANCH  16  17
ENDBRANCH  15  16
ENDBRANCH  11  15
TORSDOF 4
ENDMDL
MODEL       90
REMARK 921   NORMALIZED FREE ENERGY PREDICTED BY IDOCK:   -4.34 KCAL/MOL
REMARK 922        TOTAL FREE ENERGY PREDICTED BY IDOCK:   -5.58 KCAL/MOL
REMARK 923 INTER-LIGAND FREE ENERGY PREDICTED BY IDOCK:   -5.70 KCAL/MOL
REMARK 924 INTRA-LIGAND FREE ENERGY PREDICTED BY IDOCK:    0.12 KCAL/MOL
REMARK 927      BINDING AFFINITY PREDICTED BY RF-SCORE:    0.00 PKD
ROOT
HETATM    1  N   UNL     1     -10.145  12.106  62.860  1.00  0.00    -0.421 NA 
HETATM    2  H2  UNL     1      -9.838  11.476  62.118  1.00  0.00     0.000 HD 
HETATM    3  H1  UNL     1     -10.341  13.084  62.646  1.00  0.00     0.000 HD 
HETATM    4  C   UNL     1     -10.291  11.639  64.124  1.00  0.00    -0.337 C  
HETATM    5  N   UNL     1     -10.042  10.394  64.397  1.00  0.00    -0.326 N  
HETATM    6  C   UNL     1     -10.231   9.910  65.699  1.00  0.00    -0.159 C  
HETATM    7  H   UNL     1      -9.710   9.768  63.664  1.00  0.00     0.000 HD 
HETATM    8  C   UNL     1     -10.764  10.888  66.658  1.00  0.00    -0.230 A  
HETATM    9  O   UNL     1      -9.972   8.752  66.015  1.00  0.00    -0.256 OA 
HETATM   10  C   UNL     1     -10.980  12.179  66.254  1.00  0.00    -0.295 A  
HETATM   11  N   UNL     1     -11.502  12.848  67.313  1.00  0.00    -0.316 NA 
HETATM   12  N   UNL     1     -10.720  12.601  65.007  1.00  0.00    -0.284 NA 
HETATM   13  C   UNL     1     -11.572  11.937  68.340  1.00  0.00    -0.317 A  
HETATM   14  N   UNL     1     -11.128  10.747  67.981  1.00  0.00    -0.277 NA 
ENDROOT
BRANCH  11  15
HETATM   15  C   UNL     1     -11.835  14.253  67.409  1.00  0.00    -0.409 C  
BRANCH  15  16
HETATM   16  O   UNL     1     -10.682  15.021  67.070  1.00  0.00    -0.291 OA 
BRANCH  16  17
HETATM   17  C   UNL     1     -11.014  16.059  66.139  1.00  0.00    -0.083 C  
BRANCH  17  18
HETATM   18  C   UNL     1     -10.667  15.590  64.730  1.00  0.00    -0.304 C  
HETATM   19  O   UNL     1     -11.563  16.172  63.787  1.00  0.00    -1.390 OA 
HETATM   20  H   UNL     1     -11.346  15.879  62.909  1.00  0.00     0.000 HD 
ENDBRANCH  17  18
ENDBRANCH  16  17
ENDBRANCH  15  16
ENDBRANCH  11  15
TORSDOF 4
ENDMDL
MODEL       91
REMARK 921   NORMALIZED FREE ENERGY PREDICTED BY IDOCK:   -4.32 KCAL/MOL
REMARK 922        TOTAL FREE ENERGY PREDICTED BY IDOCK:   -5.55 KCAL/MOL
REMARK 923 INTER-LIGAND FREE ENERGY PREDICTED BY IDOCK:   -5.35 KCAL/MOL
REMARK 924 INTRA-LIGAND FREE ENERGY PREDICTED BY IDOCK:   -0.20 KCAL/MOL
REMARK 927      BINDING AFFINITY PREDICTED BY RF-SCORE:    0.00 PKD
ROOT
HETATM    1  N   UNL     1     -10.999  11.348  66.889  1.00  0.00    -0.288 NA 
HETATM    2  H2  UNL     1     -10.497  11.894  66.188  1.00  0.00     0.000 HD 
HETATM    3  H1  UNL     1     -11.151  10.351  66.741  1.00  0.00     0.000 HD 
HETATM    4  C   UNL     1     -11.460  11.952  68.012  1.00  0.00    -0.323 C  
HETATM    5  N   UNL     1     -11.266  13.222  68.201  1.00  0.00    -0.256 N  
HETATM    6  C   UNL     1     -11.713  13.833  69.381  1.00  0.00    -0.325 C  
HETATM    7  H   UNL     1     -10.787  13.777  67.490  1.00  0.00     0.000 HD 
HETATM    8  C   UNL     1     -12.339  12.926  70.354  1.00  0.00    -0.258 A  
HETATM    9  O   UNL     1     -11.588  15.036  69.588  1.00  0.00    -0.267 OA 
HETATM   10  C   UNL     1     -12.497  11.603  70.038  1.00  0.00    -0.095 A  
HETATM   11  N   UNL     1     -13.060  10.997  71.115  1.00  0.00    -0.307 NA 
HETATM   12  N   UNL     1     -12.104  11.086  68.863  1.00  0.00    -0.511 NA 
HETATM   13  C   UNL     1     -13.242  11.986  72.052  1.00  0.00    -0.375 A  
HETATM   14  N   UNL     1     -12.826  13.162  71.623  1.00  0.00    -0.325 NA 
ENDROOT
BRANCH  11  15
HETATM   15  C   UNL     1     -13.485   9.621  71.247  1.00  0.00    -0.289 C  
BRANCH  15  16
HETATM   16  O   UNL     1     -12.916   9.078  72.438  1.00  0.00    -0.408 OA 
BRANCH  16  17
HETATM   17  C   UNL     1     -11.911   8.106  72.127  1.00  0.00    -0.359 C  
BRANCH  17  18
HETATM   18  C   UNL     1     -12.582   6.874  71.528  1.00  0.00    -0.367 C  
HETATM   19  O   UNL     1     -12.186   6.713  70.169  1.00  0.00    -0.598 OA 
HETATM   20  H   UNL     1     -12.604   5.945  69.796  1.00  0.00     0.000 HD 
ENDBRANCH  17  18
ENDBRANCH  16  17
ENDBRANCH  15  16
ENDBRANCH  11  15
TORSDOF 4
ENDMDL
MODEL       92
REMARK 921   NORMALIZED FREE ENERGY PREDICTED BY IDOCK:   -4.32 KCAL/MOL
REMARK 922        TOTAL FREE ENERGY PREDICTED BY IDOCK:   -5.55 KCAL/MOL
REMARK 923 INTER-LIGAND FREE ENERGY PREDICTED BY IDOCK:   -5.08 KCAL/MOL
REMARK 924 INTRA-LIGAND FREE ENERGY PREDICTED BY IDOCK:   -0.47 KCAL/MOL
REMARK 927      BINDING AFFINITY PREDICTED BY RF-SCORE:    0.00 PKD
ROOT
HETATM    1  N   UNL     1     -13.149  14.199  64.918  1.00  0.00    -0.579 NA 
HETATM    2  H2  UNL     1     -13.864  13.628  64.466  1.00  0.00     0.000 HD 
HETATM    3  H1  UNL     1     -13.303  15.199  65.045  1.00  0.00     0.000 HD 
HETATM    4  C   UNL     1     -11.999  13.624  65.348  1.00  0.00    -0.378 C  
HETATM    5  N   UNL     1     -11.802  12.350  65.187  1.00  0.00    -0.384 N  
HETATM    6  C   UNL     1     -10.626  11.756  65.666  1.00  0.00    -0.268 C  
HETATM    7  H   UNL     1     -12.503  11.782  64.712  1.00  0.00     0.000 HD 
HETATM    8  C   UNL     1      -9.715  12.662  66.381  1.00  0.00    -0.258 A  
HETATM    9  O   UNL     1     -10.377  10.566  65.504  1.00  0.00    -0.270 OA 
HETATM   10  C   UNL     1     -10.027  13.992  66.480  1.00  0.00    -0.284 A  
HETATM   11  N   UNL     1      -9.047  14.581  67.210  1.00  0.00    -0.199 NA 
HETATM   12  N   UNL     1     -11.141  14.517  65.944  1.00  0.00    -0.321 NA 
HETATM   13  C   UNL     1      -8.154  13.582  67.521  1.00  0.00    -0.186 A  
HETATM   14  N   UNL     1      -8.523  12.415  67.029  1.00  0.00    -0.182 NA 
ENDROOT
BRANCH  11  15
HETATM   15  C   UNL     1      -8.889  15.982  67.531  1.00  0.00    -0.189 C  
BRANCH  15  16
HETATM   16  O   UNL     1      -8.506  16.683  66.349  1.00  0.00    -0.258 OA 
BRANCH  16  17
HETATM   17  C   UNL     1      -8.738  18.090  66.491  1.00  0.00    -0.260 C  
BRANCH  17  18
HETATM   18  C   UNL     1     -10.228  18.366  66.317  1.00  0.00    -0.406 C  
HETATM   19  O   UNL     1     -10.773  17.497  65.327  1.00  0.00    -0.656 OA 
HETATM   20  H   UNL     1     -11.702  17.669  65.219  1.00  0.00     0.000 HD 
ENDBRANCH  17  18
ENDBRANCH  16  17
ENDBRANCH  15  16
ENDBRANCH  11  15
TORSDOF 4
ENDMDL
MODEL       93
REMARK 921   NORMALIZED FREE ENERGY PREDICTED BY IDOCK:   -4.32 KCAL/MOL
REMARK 922        TOTAL FREE ENERGY PREDICTED BY IDOCK:   -5.55 KCAL/MOL
REMARK 923 INTER-LIGAND FREE ENERGY PREDICTED BY IDOCK:   -5.39 KCAL/MOL
REMARK 924 INTRA-LIGAND FREE ENERGY PREDICTED BY IDOCK:   -0.16 KCAL/MOL
REMARK 927      BINDING AFFINITY PREDICTED BY RF-SCORE:    0.00 PKD
ROOT
HETATM    1  N   UNL     1     -11.436   9.763  71.455  1.00  0.00    -0.380 NA 
HETATM    2  H2  UNL     1     -11.403   9.130  72.255  1.00  0.00     0.000 HD 
HETATM    3  H1  UNL     1     -11.689  10.742  71.592  1.00  0.00     0.000 HD 
HETATM    4  C   UNL     1     -11.143   9.299  70.215  1.00  0.00    -0.251 C  
HETATM    5  N   UNL     1     -10.820   8.053  70.040  1.00  0.00    -0.259 N  
HETATM    6  C   UNL     1     -10.483   7.589  68.761  1.00  0.00    -0.194 C  
HETATM    7  H   UNL     1     -10.813   7.412  70.833  1.00  0.00     0.000 HD 
HETATM    8  C   UNL     1     -10.476   8.614  67.706  1.00  0.00    -0.224 A  
HETATM    9  O   UNL     1     -10.210   6.414  68.538  1.00  0.00    -0.151 OA 
HETATM   10  C   UNL     1     -10.844   9.898  68.012  1.00  0.00    -0.243 A  
HETATM   11  N   UNL     1     -10.714  10.632  66.878  1.00  0.00    -0.255 NA 
HETATM   12  N   UNL     1     -11.220  10.270  69.245  1.00  0.00    -0.236 NA 
HETATM   13  C   UNL     1     -10.282   9.759  65.908  1.00  0.00    -0.174 A  
HETATM   14  N   UNL     1     -10.136   8.532  66.372  1.00  0.00    -0.261 NA 
ENDROOT
BRANCH  11  15
HETATM   15  C   UNL     1     -11.045  12.025  66.670  1.00  0.00    -0.310 C  
BRANCH  15  16
HETATM   16  O   UNL     1     -11.720  12.154  65.420  1.00  0.00    -0.364 OA 
BRANCH  16  17
HETATM   17  C   UNL     1     -12.658  13.237  65.455  1.00  0.00    -0.468 C  
BRANCH  17  18
HETATM   18  C   UNL     1     -12.122  14.385  64.606  1.00  0.00    -0.471 C  
HETATM   19  O   UNL     1     -12.484  14.193  63.241  1.00  0.00    -1.146 OA 
HETATM   20  H   UNL     1     -12.150  14.909  62.712  1.00  0.00     0.000 HD 
ENDBRANCH  17  18
ENDBRANCH  16  17
ENDBRANCH  15  16
ENDBRANCH  11  15
TORSDOF 4
ENDMDL
MODEL       94
REMARK 921   NORMALIZED FREE ENERGY PREDICTED BY IDOCK:   -4.31 KCAL/MOL
REMARK 922        TOTAL FREE ENERGY PREDICTED BY IDOCK:   -5.54 KCAL/MOL
REMARK 923 INTER-LIGAND FREE ENERGY PREDICTED BY IDOCK:   -5.38 KCAL/MOL
REMARK 924 INTRA-LIGAND FREE ENERGY PREDICTED BY IDOCK:   -0.16 KCAL/MOL
REMARK 927      BINDING AFFINITY PREDICTED BY RF-SCORE:    0.00 PKD
ROOT
HETATM    1  N   UNL     1      -9.834  11.354  69.169  1.00  0.00    -0.415 NA 
HETATM    2  H2  UNL     1      -9.709  10.344  69.244  1.00  0.00     0.000 HD 
HETATM    3  H1  UNL     1      -9.734  11.941  69.997  1.00  0.00     0.000 HD 
HETATM    4  C   UNL     1     -10.132  11.909  67.968  1.00  0.00    -0.195 C  
HETATM    5  N   UNL     1     -10.259  11.161  66.913  1.00  0.00    -0.214 N  
HETATM    6  C   UNL     1     -10.532  11.746  65.668  1.00  0.00    -0.265 C  
HETATM    7  H   UNL     1     -10.160  10.149  66.991  1.00  0.00     0.000 HD 
HETATM    8  C   UNL     1     -10.598  13.215  65.669  1.00  0.00    -0.277 A  
HETATM    9  O   UNL     1     -10.698  11.080  64.652  1.00  0.00    -0.324 OA 
HETATM   10  C   UNL     1     -10.456  13.895  66.849  1.00  0.00    -0.276 A  
HETATM   11  N   UNL     1     -10.522  15.219  66.559  1.00  0.00    -0.291 NA 
HETATM   12  N   UNL     1     -10.260  13.276  68.024  1.00  0.00    -0.234 NA 
HETATM   13  C   UNL     1     -10.720  15.300  65.200  1.00  0.00    -0.436 A  
HETATM   14  N   UNL     1     -10.778  14.109  64.635  1.00  0.00    -0.415 NA 
ENDROOT
BRANCH  11  15
HETATM   15  C   UNL     1     -10.494  16.339  67.474  1.00  0.00    -0.302 C  
BRANCH  15  16
HETATM   16  O   UNL     1     -10.672  17.544  66.730  1.00  0.00    -0.244 OA 
BRANCH  16  17
HETATM   17  C   UNL     1      -9.888  18.607  67.285  1.00  0.00    -0.318 C  
BRANCH  17  18
HETATM   18  C   UNL     1     -10.227  19.904  66.557  1.00  0.00    -0.491 C  
HETATM   19  O   UNL     1      -9.557  21.000  67.174  1.00  0.00    -0.686 OA 
HETATM   20  H   UNL     1      -9.768  21.808  66.720  1.00  0.00     0.000 HD 
ENDBRANCH  17  18
ENDBRANCH  16  17
ENDBRANCH  15  16
ENDBRANCH  11  15
TORSDOF 4
ENDMDL
MODEL       95
REMARK 921   NORMALIZED FREE ENERGY PREDICTED BY IDOCK:   -4.31 KCAL/MOL
REMARK 922        TOTAL FREE ENERGY PREDICTED BY IDOCK:   -5.54 KCAL/MOL
REMARK 923 INTER-LIGAND FREE ENERGY PREDICTED BY IDOCK:   -5.45 KCAL/MOL
REMARK 924 INTRA-LIGAND FREE ENERGY PREDICTED BY IDOCK:   -0.09 KCAL/MOL
REMARK 927      BINDING AFFINITY PREDICTED BY RF-SCORE:    0.00 PKD
ROOT
HETATM    1  N   UNL     1     -11.746  16.357  63.601  1.00  0.00    -1.221 NA 
HETATM    2  H2  UNL     1     -12.519  16.644  63.001  1.00  0.00     0.000 HD 
HETATM    3  H1  UNL     1     -11.116  17.061  63.987  1.00  0.00     0.000 HD 
HETATM    4  C   UNL     1     -11.560  15.044  63.883  1.00  0.00     0.368 C  
HETATM    5  N   UNL     1     -12.362  14.148  63.392  1.00  0.00    -1.144 N  
HETATM    6  C   UNL     1     -12.186  12.796  63.716  1.00  0.00    -0.489 C  
HETATM    7  H   UNL     1     -13.121  14.429  62.770  1.00  0.00     0.000 HD 
HETATM    8  C   UNL     1     -11.096  12.517  64.662  1.00  0.00    -0.306 A  
HETATM    9  O   UNL     1     -12.893  11.909  63.247  1.00  0.00    -0.702 OA 
HETATM   10  C   UNL     1     -10.310  13.547  65.106  1.00  0.00    -0.353 A  
HETATM   11  N   UNL     1      -9.419  13.021  65.985  1.00  0.00    -0.161 NA 
HETATM   12  N   UNL     1     -10.487  14.817  64.710  1.00  0.00    -0.365 NA 
HETATM   13  C   UNL     1      -9.686  11.673  66.034  1.00  0.00    -0.232 A  
HETATM   14  N   UNL     1     -10.686  11.335  65.243  1.00  0.00    -0.266 NA 
ENDROOT
BRANCH  11  15
HETATM   15  C   UNL     1      -8.335  13.691  66.671  1.00  0.00     0.276 C  
BRANCH  15  16
HETATM   16  O   UNL     1      -8.875  14.760  67.446  1.00  0.00    -0.174 OA 
BRANCH  16  17
HETATM   17  C   UNL     1      -9.673  14.257  68.525  1.00  0.00    -0.225 C  
BRANCH  17  18
HETATM   18  C   UNL     1      -9.636  15.258  69.676  1.00  0.00    -0.180 C  
HETATM   19  O   UNL     1     -10.930  15.822  69.874  1.00  0.00    -0.273 OA 
HETATM   20  H   UNL     1     -10.907  16.445  70.591  1.00  0.00     0.000 HD 
ENDBRANCH  17  18
ENDBRANCH  16  17
ENDBRANCH  15  16
ENDBRANCH  11  15
TORSDOF 4
ENDMDL
MODEL       96
REMARK 921   NORMALIZED FREE ENERGY PREDICTED BY IDOCK:   -4.29 KCAL/MOL
REMARK 922        TOTAL FREE ENERGY PREDICTED BY IDOCK:   -5.51 KCAL/MOL
REMARK 923 INTER-LIGAND FREE ENERGY PREDICTED BY IDOCK:   -4.97 KCAL/MOL
REMARK 924 INTRA-LIGAND FREE ENERGY PREDICTED BY IDOCK:   -0.54 KCAL/MOL
REMARK 927      BINDING AFFINITY PREDICTED BY RF-SCORE:    0.00 PKD
ROOT
HETATM    1  N   UNL     1     -11.003  12.056  68.968  1.00  0.00    -0.294 NA 
HETATM    2  H2  UNL     1     -11.533  12.600  69.649  1.00  0.00     0.000 HD 
HETATM    3  H1  UNL     1     -10.316  11.373  69.287  1.00  0.00     0.000 HD 
HETATM    4  C   UNL     1     -11.215  12.244  67.642  1.00  0.00    -0.290 C  
HETATM    5  N   UNL     1     -12.090  13.113  67.234  1.00  0.00    -0.325 N  
HETATM    6  C   UNL     1     -12.330  13.277  65.863  1.00  0.00    -0.418 C  
HETATM    7  H   UNL     1     -12.603  13.677  67.912  1.00  0.00     0.000 HD 
HETATM    8  C   UNL     1     -11.573  12.373  64.984  1.00  0.00    -0.345 A  
HETATM    9  O   UNL     1     -13.117  14.112  65.428  1.00  0.00    -0.743 OA 
HETATM   10  C   UNL     1     -10.670  11.501  65.532  1.00  0.00    -0.272 A  
HETATM   11  N   UNL     1     -10.149  10.772  64.512  1.00  0.00    -0.328 NA 
HETATM   12  N   UNL     1     -10.436  11.434  66.852  1.00  0.00    -0.230 NA 
HETATM   13  C   UNL     1     -10.747  11.241  63.366  1.00  0.00    -0.274 A  
HETATM   14  N   UNL     1     -11.605  12.212  63.615  1.00  0.00    -0.456 NA 
ENDROOT
BRANCH  11  15
HETATM   15  C   UNL     1      -9.106   9.770  64.570  1.00  0.00    -0.249 C  
BRANCH  15  16
HETATM   16  O   UNL     1      -7.841  10.418  64.450  1.00  0.00    -0.144 OA 
BRANCH  16  17
HETATM   17  C   UNL     1      -6.897   9.873  65.381  1.00  0.00    -0.112 C  
BRANCH  17  18
HETATM   18  C   UNL     1      -6.889  10.735  66.639  1.00  0.00    -0.125 C  
HETATM   19  O   UNL     1      -7.371  12.042  66.340  1.00  0.00    -0.367 OA 
HETATM   20  H   UNL     1      -7.366  12.579  67.124  1.00  0.00     0.000 HD 
ENDBRANCH  17  18
ENDBRANCH  16  17
ENDBRANCH  15  16
ENDBRANCH  11  15
TORSDOF 4
ENDMDL
MODEL       97
REMARK 921   NORMALIZED FREE ENERGY PREDICTED BY IDOCK:   -4.28 KCAL/MOL
REMARK 922        TOTAL FREE ENERGY PREDICTED BY IDOCK:   -5.50 KCAL/MOL
REMARK 923 INTER-LIGAND FREE ENERGY PREDICTED BY IDOCK:   -5.21 KCAL/MOL
REMARK 924 INTRA-LIGAND FREE ENERGY PREDICTED BY IDOCK:   -0.30 KCAL/MOL
REMARK 927      BINDING AFFINITY PREDICTED BY RF-SCORE:    0.00 PKD
ROOT
HETATM    1  N   UNL     1     -10.117  11.601  68.831  1.00  0.00    -0.373 NA 
HETATM    2  H2  UNL     1      -9.921  12.582  68.626  1.00  0.00     0.000 HD 
HETATM    3  H1  UNL     1      -9.582  10.869  68.364  1.00  0.00     0.000 HD 
HETATM    4  C   UNL     1     -11.085  11.279  69.724  1.00  0.00    -0.167 C  
HETATM    5  N   UNL     1     -11.766  12.212  70.318  1.00  0.00    -0.534 N  
HETATM    6  C   UNL     1     -12.741  11.872  71.267  1.00  0.00    -0.298 C  
HETATM    7  H   UNL     1     -11.591  13.192  70.096  1.00  0.00     0.000 HD 
HETATM    8  C   UNL     1     -12.867  10.434  71.545  1.00  0.00    -0.464 A  
HETATM    9  O   UNL     1     -13.436  12.715  71.826  1.00  0.00    -0.379 OA 
HETATM   10  C   UNL     1     -12.098   9.542  70.846  1.00  0.00    -0.278 A  
HETATM   11  N   UNL     1     -12.386   8.305  71.322  1.00  0.00    -0.291 NA 
HETATM   12  N   UNL     1     -11.224   9.924  69.901  1.00  0.00    -0.251 NA 
HETATM   13  C   UNL     1     -13.342   8.486  72.294  1.00  0.00    -0.323 A  
HETATM   14  N   UNL     1     -13.660   9.757  72.448  1.00  0.00    -0.347 NA 
ENDROOT
BRANCH  11  15
HETATM   15  C   UNL     1     -11.886   7.028  70.861  1.00  0.00    -0.356 C  
BRANCH  15  16
HETATM   16  O   UNL     1     -10.763   6.659  71.661  1.00  0.00    -0.222 OA 
BRANCH  16  17
HETATM   17  C   UNL     1     -11.163   5.801  72.737  1.00  0.00    -0.292 C  
BRANCH  17  18
HETATM   18  C   UNL     1     -10.465   6.253  74.015  1.00  0.00    -0.264 C  
HETATM   19  O   UNL     1     -10.138   7.638  73.931  1.00  0.00    -0.365 OA 
HETATM   20  H   UNL     1      -9.704   7.919  74.728  1.00  0.00     0.000 HD 
ENDBRANCH  17  18
ENDBRANCH  16  17
ENDBRANCH  15  16
ENDBRANCH  11  15
TORSDOF 4
ENDMDL
MODEL       98
REMARK 921   NORMALIZED FREE ENERGY PREDICTED BY IDOCK:   -4.27 KCAL/MOL
REMARK 922        TOTAL FREE ENERGY PREDICTED BY IDOCK:   -5.48 KCAL/MOL
REMARK 923 INTER-LIGAND FREE ENERGY PREDICTED BY IDOCK:   -5.00 KCAL/MOL
REMARK 924 INTRA-LIGAND FREE ENERGY PREDICTED BY IDOCK:   -0.49 KCAL/MOL
REMARK 927      BINDING AFFINITY PREDICTED BY RF-SCORE:    0.00 PKD
ROOT
HETATM    1  N   UNL     1     -12.391  11.049  69.030  1.00  0.00    -0.669 NA 
HETATM    2  H2  UNL     1     -13.272  11.500  68.784  1.00  0.00     0.000 HD 
HETATM    3  H1  UNL     1     -11.559  11.218  68.465  1.00  0.00     0.000 HD 
HETATM    4  C   UNL     1     -12.331  10.227  70.107  1.00  0.00    -0.142 C  
HETATM    5  N   UNL     1     -13.390  10.012  70.827  1.00  0.00    -0.578 N  
HETATM    6  C   UNL     1     -13.312   9.189  71.960  1.00  0.00    -0.445 C  
HETATM    7  H   UNL     1     -14.279  10.441  70.569  1.00  0.00     0.000 HD 
HETATM    8  C   UNL     1     -11.970   8.671  72.265  1.00  0.00    -0.368 A  
HETATM    9  O   UNL     1     -14.292   8.925  72.650  1.00  0.00    -0.613 OA 
HETATM   10  C   UNL     1     -10.929   8.961  71.424  1.00  0.00    -0.310 A  
HETATM   11  N   UNL     1      -9.815   8.396  71.955  1.00  0.00    -0.254 NA 
HETATM   12  N   UNL     1     -11.077   9.703  70.315  1.00  0.00    -0.259 NA 
HETATM   13  C   UNL     1     -10.224   7.762  73.105  1.00  0.00    -0.335 A  
HETATM   14  N   UNL     1     -11.519   7.902  73.317  1.00  0.00    -0.174 NA 
ENDROOT
BRANCH  11  15
HETATM   15  C   UNL     1      -8.478   8.362  71.404  1.00  0.00    -0.155 C  
BRANCH  15  16
HETATM   16  O   UNL     1      -8.545   7.859  70.070  1.00  0.00    -0.132 OA 
BRANCH  16  17
HETATM   17  C   UNL     1      -8.478   6.428  70.060  1.00  0.00    -0.135 C  
BRANCH  17  18
HETATM   18  C   UNL     1      -9.794   5.875  69.522  1.00  0.00    -0.169 C  
HETATM   19  O   UNL     1     -10.650   5.513  70.603  1.00  0.00    -0.262 OA 
HETATM   20  H   UNL     1     -11.470   5.168  70.268  1.00  0.00     0.000 HD 
ENDBRANCH  17  18
ENDBRANCH  16  17
ENDBRANCH  15  16
ENDBRANCH  11  15
TORSDOF 4
ENDMDL
MODEL       99
REMARK 921   NORMALIZED FREE ENERGY PREDICTED BY IDOCK:   -4.25 KCAL/MOL
REMARK 922        TOTAL FREE ENERGY PREDICTED BY IDOCK:   -5.47 KCAL/MOL
REMARK 923 INTER-LIGAND FREE ENERGY PREDICTED BY IDOCK:   -4.94 KCAL/MOL
REMARK 924 INTRA-LIGAND FREE ENERGY PREDICTED BY IDOCK:   -0.53 KCAL/MOL
REMARK 927      BINDING AFFINITY PREDICTED BY RF-SCORE:    0.00 PKD
ROOT
HETATM    1  N   UNL     1      -8.969  12.505  68.647  1.00  0.00    -0.388 NA 
HETATM    2  H2  UNL     1      -8.664  12.889  69.542  1.00  0.00     0.000 HD 
HETATM    3  H1  UNL     1      -8.770  11.532  68.418  1.00  0.00     0.000 HD 
HETATM    4  C   UNL     1      -9.638  13.292  67.769  1.00  0.00    -0.214 C  
HETATM    5  N   UNL     1      -9.892  14.532  68.060  1.00  0.00    -0.218 N  
HETATM    6  C   UNL     1     -10.616  15.330  67.162  1.00  0.00    -0.302 C  
HETATM    7  H   UNL     1      -9.565  14.926  68.942  1.00  0.00     0.000 HD 
HETATM    8  C   UNL     1     -11.081  14.640  65.950  1.00  0.00    -0.338 A  
HETATM    9  O   UNL     1     -10.847  16.516  67.375  1.00  0.00    -0.294 OA 
HETATM   10  C   UNL     1     -10.743  13.328  65.749  1.00  0.00    -0.277 A  
HETATM   11  N   UNL     1     -11.326  12.937  64.587  1.00  0.00    -0.309 NA 
HETATM   12  N   UNL     1      -9.991  12.632  66.616  1.00  0.00    -0.237 NA 
HETATM   13  C   UNL     1     -11.994  14.040  64.109  1.00  0.00    -0.408 A  
HETATM   14  N   UNL     1     -11.860  15.086  64.902  1.00  0.00    -0.336 NA 
ENDROOT
BRANCH  11  15
HETATM   15  C   UNL     1     -11.211  11.663  63.911  1.00  0.00    -0.397 C  
BRANCH  15  16
HETATM   16  O   UNL     1      -9.932  11.592  63.283  1.00  0.00    -0.379 OA 
BRANCH  16  17
HETATM   17  C   UNL     1      -9.484  10.234  63.187  1.00  0.00    -0.298 C  
BRANCH  17  18
HETATM   18  C   UNL     1      -8.599   9.919  64.389  1.00  0.00    -0.185 C  
HETATM   19  O   UNL     1      -8.120  11.127  64.973  1.00  0.00    -0.359 OA 
HETATM   20  H   UNL     1      -7.569  10.931  65.722  1.00  0.00     0.000 HD 
ENDBRANCH  17  18
ENDBRANCH  16  17
ENDBRANCH  15  16
ENDBRANCH  11  15
TORSDOF 4
ENDMDL
MODEL      100
REMARK 921   NORMALIZED FREE ENERGY PREDICTED BY IDOCK:   -4.24 KCAL/MOL
REMARK 922        TOTAL FREE ENERGY PREDICTED BY IDOCK:   -5.45 KCAL/MOL
REMARK 923 INTER-LIGAND FREE ENERGY PREDICTED BY IDOCK:   -5.24 KCAL/MOL
REMARK 924 INTRA-LIGAND FREE ENERGY PREDICTED BY IDOCK:   -0.21 KCAL/MOL
REMARK 927      BINDING AFFINITY PREDICTED BY RF-SCORE:    0.00 PKD
ROOT
HETATM    1  N   UNL     1     -11.290   6.991  69.899  1.00  0.00    -0.464 NA 
HETATM    2  H2  UNL     1     -11.574   6.074  70.247  1.00  0.00     0.000 HD 
HETATM    3  H1  UNL     1     -10.637   7.057  69.118  1.00  0.00     0.000 HD 
HETATM    4  C   UNL     1     -11.781   8.114  70.477  1.00  0.00    -0.063 C  
HETATM    5  N   UNL     1     -12.612   8.030  71.472  1.00  0.00    -0.311 N  
HETATM    6  C   UNL     1     -13.144   9.196  72.042  1.00  0.00    -0.429 C  
HETATM    7  H   UNL     1     -12.878   7.116  71.839  1.00  0.00     0.000 HD 
HETATM    8  C   UNL     1     -12.732  10.451  71.396  1.00  0.00    -0.446 A  
HETATM    9  O   UNL     1     -13.902   9.170  73.006  1.00  0.00    -0.307 OA 
HETATM   10  C   UNL     1     -11.841  10.413  70.357  1.00  0.00    -0.328 A  
HETATM   11  N   UNL     1     -11.667  11.690  69.931  1.00  0.00    -0.331 NA 
HETATM   12  N   UNL     1     -11.315   9.268  69.894  1.00  0.00    -0.130 NA 
HETATM   13  C   UNL     1     -12.454  12.471  70.745  1.00  0.00    -0.268 A  
HETATM   14  N   UNL     1     -13.103  11.756  71.643  1.00  0.00    -0.415 NA 
ENDROOT
BRANCH  11  15
HETATM   15  C   UNL     1     -10.772  12.177  68.904  1.00  0.00    -0.175 C  
BRANCH  15  16
HETATM   16  O   UNL     1     -11.516  12.989  67.996  1.00  0.00    -0.269 OA 
BRANCH  16  17
HETATM   17  C   UNL     1     -11.819  12.266  66.796  1.00  0.00    -0.277 C  
BRANCH  17  18
HETATM   18  C   UNL     1     -11.568  13.172  65.595  1.00  0.00    -0.338 C  
HETATM   19  O   UNL     1     -12.803  13.686  65.104  1.00  0.00    -0.687 OA 
HETATM   20  H   UNL     1     -12.646  14.251  64.355  1.00  0.00     0.000 HD 
ENDBRANCH  17  18
ENDBRANCH  16  17
ENDBRANCH  15  16
ENDBRANCH  11  15
TORSDOF 4
ENDMDL
MODEL      101
REMARK 921   NORMALIZED FREE ENERGY PREDICTED BY IDOCK:   -4.23 KCAL/MOL
REMARK 922        TOTAL FREE ENERGY PREDICTED BY IDOCK:   -5.44 KCAL/MOL
REMARK 923 INTER-LIGAND FREE ENERGY PREDICTED BY IDOCK:   -4.88 KCAL/MOL
REMARK 924 INTRA-LIGAND FREE ENERGY PREDICTED BY IDOCK:   -0.55 KCAL/MOL
REMARK 927      BINDING AFFINITY PREDICTED BY RF-SCORE:    0.00 PKD
ROOT
HETATM    1  N   UNL     1      -7.726   9.415  66.695  1.00  0.00    -0.097 NA 
HETATM    2  H2  UNL     1      -6.980   8.901  66.226  1.00  0.00     0.000 HD 
HETATM    3  H1  UNL     1      -7.735   9.480  67.713  1.00  0.00     0.000 HD 
HETATM    4  C   UNL     1      -8.701  10.009  65.963  1.00  0.00    -0.138 C  
HETATM    5  N   UNL     1      -8.689   9.926  64.667  1.00  0.00    -0.177 N  
HETATM    6  C   UNL     1      -9.680  10.572  63.914  1.00  0.00    -0.325 C  
HETATM    7  H   UNL     1      -7.959   9.391  64.196  1.00  0.00     0.000 HD 
HETATM    8  C   UNL     1     -10.646  11.357  64.696  1.00  0.00    -0.318 A  
HETATM    9  O   UNL     1      -9.734  10.492  62.691  1.00  0.00    -0.293 OA 
HETATM   10  C   UNL     1     -10.561  11.361  66.063  1.00  0.00    -0.266 A  
HETATM   11  N   UNL     1     -11.538  12.184  66.523  1.00  0.00    -0.484 NA 
HETATM   12  N   UNL     1      -9.627  10.670  66.734  1.00  0.00    -0.166 NA 
HETATM   13  C   UNL     1     -12.201  12.645  65.409  1.00  0.00    -0.459 A  
HETATM   14  N   UNL     1     -11.693  12.159  64.292  1.00  0.00    -0.366 NA 
ENDROOT
BRANCH  11  15
HETATM   15  C   UNL     1     -11.901  12.464  67.895  1.00  0.00    -0.308 C  
BRANCH  15  16
HETATM   16  O   UNL     1     -12.365  11.260  68.502  1.00  0.00    -0.543 OA 
BRANCH  16  17
HETATM   17  C   UNL     1     -12.091  11.257  69.908  1.00  0.00    -0.341 C  
BRANCH  17  18
HETATM   18  C   UNL     1     -11.360   9.968  70.268  1.00  0.00    -0.308 C  
HETATM   19  O   UNL     1     -10.817   9.370  69.094  1.00  0.00    -0.297 OA 
HETATM   20  H   UNL     1     -10.361   8.567  69.318  1.00  0.00     0.000 HD 
ENDBRANCH  17  18
ENDBRANCH  16  17
ENDBRANCH  15  16
ENDBRANCH  11  15
TORSDOF 4
ENDMDL
MODEL      102
REMARK 921   NORMALIZED FREE ENERGY PREDICTED BY IDOCK:   -4.21 KCAL/MOL
REMARK 922        TOTAL FREE ENERGY PREDICTED BY IDOCK:   -5.42 KCAL/MOL
REMARK 923 INTER-LIGAND FREE ENERGY PREDICTED BY IDOCK:   -5.19 KCAL/MOL
REMARK 924 INTRA-LIGAND FREE ENERGY PREDICTED BY IDOCK:   -0.23 KCAL/MOL
REMARK 927      BINDING AFFINITY PREDICTED BY RF-SCORE:    0.00 PKD
ROOT
HETATM    1  N   UNL     1      -9.534   8.690  65.411  1.00  0.00    -0.436 NA 
HETATM    2  H2  UNL     1      -9.101   8.548  64.498  1.00  0.00     0.000 HD 
HETATM    3  H1  UNL     1      -9.567   7.922  66.081  1.00  0.00     0.000 HD 
HETATM    4  C   UNL     1     -10.060   9.899  65.728  1.00  0.00    -0.247 C  
HETATM    5  N   UNL     1     -10.017  10.877  64.875  1.00  0.00    -0.278 N  
HETATM    6  C   UNL     1     -10.530  12.135  65.223  1.00  0.00    -0.276 C  
HETATM    7  H   UNL     1      -9.609  10.731  63.951  1.00  0.00     0.000 HD 
HETATM    8  C   UNL     1     -11.042  12.241  66.598  1.00  0.00    -0.297 A  
HETATM    9  O   UNL     1     -10.548  13.078  64.439  1.00  0.00    -0.367 OA 
HETATM   10  C   UNL     1     -11.042  11.135  67.404  1.00  0.00    -0.307 A  
HETATM   11  N   UNL     1     -11.527  11.520  68.612  1.00  0.00    -0.264 NA 
HETATM   12  N   UNL     1     -10.595   9.938  66.993  1.00  0.00    -0.227 NA 
HETATM   13  C   UNL     1     -11.823  12.857  68.493  1.00  0.00    -0.313 A  
HETATM   14  N   UNL     1     -11.549  13.322  67.289  1.00  0.00    -0.338 NA 
ENDROOT
BRANCH  11  15
HETATM   15  C   UNL     1     -11.786  10.700  69.776  1.00  0.00    -0.304 C  
BRANCH  15  16
HETATM   16  O   UNL     1     -10.553  10.463  70.454  1.00  0.00    -0.233 OA 
BRANCH  16  17
HETATM   17  C   UNL     1     -10.618   9.258  71.226  1.00  0.00    -0.347 C  
BRANCH  17  18
HETATM   18  C   UNL     1     -11.971   9.190  71.925  1.00  0.00    -0.373 C  
HETATM   19  O   UNL     1     -11.955   8.174  72.925  1.00  0.00    -0.581 OA 
HETATM   20  H   UNL     1     -12.798   8.132  73.361  1.00  0.00     0.000 HD 
ENDBRANCH  17  18
ENDBRANCH  16  17
ENDBRANCH  15  16
ENDBRANCH  11  15
TORSDOF 4
ENDMDL
MODEL      103
REMARK 921   NORMALIZED FREE ENERGY PREDICTED BY IDOCK:   -4.21 KCAL/MOL
REMARK 922        TOTAL FREE ENERGY PREDICTED BY IDOCK:   -5.42 KCAL/MOL
REMARK 923 INTER-LIGAND FREE ENERGY PREDICTED BY IDOCK:   -4.82 KCAL/MOL
REMARK 924 INTRA-LIGAND FREE ENERGY PREDICTED BY IDOCK:   -0.59 KCAL/MOL
REMARK 927      BINDING AFFINITY PREDICTED BY RF-SCORE:    0.00 PKD
ROOT
HETATM    1  N   UNL     1     -13.278  11.532  72.143  1.00  0.00    -0.559 NA 
HETATM    2  H2  UNL     1     -13.878  12.347  72.276  1.00  0.00     0.000 HD 
HETATM    3  H1  UNL     1     -13.312  10.764  72.813  1.00  0.00     0.000 HD 
HETATM    4  C   UNL     1     -12.441  11.477  71.078  1.00  0.00    -0.356 C  
HETATM    5  N   UNL     1     -12.399  12.455  70.225  1.00  0.00    -0.239 N  
HETATM    6  C   UNL     1     -11.557  12.375  69.107  1.00  0.00    -0.314 C  
HETATM    7  H   UNL     1     -12.978  13.283  70.369  1.00  0.00     0.000 HD 
HETATM    8  C   UNL     1     -10.812  11.114  68.975  1.00  0.00    -0.231 A  
HETATM    9  O   UNL     1     -11.454  13.289  68.295  1.00  0.00    -0.275 OA 
HETATM   10  C   UNL     1     -10.933  10.156  69.946  1.00  0.00    -0.293 A  
HETATM   11  N   UNL     1     -10.177   9.096  69.559  1.00  0.00    -0.196 NA 
HETATM   12  N   UNL     1     -11.707  10.316  71.030  1.00  0.00    -0.369 NA 
HETATM   13  C   UNL     1      -9.604   9.457  68.362  1.00  0.00    -0.146 A  
HETATM   14  N   UNL     1      -9.961  10.670  67.986  1.00  0.00    -0.157 NA 
ENDROOT
BRANCH  11  15
HETATM   15  C   UNL     1      -9.924   7.867  70.279  1.00  0.00    -0.189 C  
BRANCH  15  16
HETATM   16  O   UNL     1     -10.840   6.872  69.823  1.00  0.00    -0.234 OA 
BRANCH  16  17
HETATM   17  C   UNL     1     -11.881   6.659  70.784  1.00  0.00    -0.383 C  
BRANCH  17  18
HETATM   18  C   UNL     1     -11.325   6.909  72.182  1.00  0.00    -0.265 C  
HETATM   19  O   UNL     1     -12.132   7.864  72.865  1.00  0.00    -0.617 OA 
HETATM   20  H   UNL     1     -11.786   8.020  73.736  1.00  0.00     0.000 HD 
ENDBRANCH  17  18
ENDBRANCH  16  17
ENDBRANCH  15  16
ENDBRANCH  11  15
TORSDOF 4
ENDMDL
MODEL      104
REMARK 921   NORMALIZED FREE ENERGY PREDICTED BY IDOCK:   -4.21 KCAL/MOL
REMARK 922        TOTAL FREE ENERGY PREDICTED BY IDOCK:   -5.41 KCAL/MOL
REMARK 923 INTER-LIGAND FREE ENERGY PREDICTED BY IDOCK:   -5.18 KCAL/MOL
REMARK 924 INTRA-LIGAND FREE ENERGY PREDICTED BY IDOCK:   -0.23 KCAL/MOL
REMARK 927      BINDING AFFINITY PREDICTED BY RF-SCORE:    0.00 PKD
ROOT
HETATM    1  N   UNL     1     -10.011   9.023  66.871  1.00  0.00    -0.222 NA 
HETATM    2  H2  UNL     1      -9.601   8.191  66.446  1.00  0.00     0.000 HD 
HETATM    3  H1  UNL     1     -10.255   9.018  67.862  1.00  0.00     0.000 HD 
HETATM    4  C   UNL     1     -10.227  10.129  66.118  1.00  0.00    -0.215 C  
HETATM    5  N   UNL     1      -9.915  10.136  64.857  1.00  0.00    -0.329 N  
HETATM    6  C   UNL     1     -10.108  11.295  64.093  1.00  0.00    -0.320 C  
HETATM    7  H   UNL     1      -9.529   9.297  64.423  1.00  0.00     0.000 HD 
HETATM    8  C   UNL     1     -10.617  12.456  64.838  1.00  0.00    -0.294 A  
HETATM    9  O   UNL     1      -9.865  11.339  62.891  1.00  0.00    -0.322 OA 
HETATM   10  C   UNL     1     -10.918  12.325  66.167  1.00  0.00    -0.293 A  
HETATM   11  N   UNL     1     -11.327  13.542  66.607  1.00  0.00    -0.313 NA 
HETATM   12  N   UNL     1     -10.773  11.169  66.833  1.00  0.00    -0.262 NA 
HETATM   13  C   UNL     1     -11.275  14.377  65.516  1.00  0.00    -0.330 A  
HETATM   14  N   UNL     1     -10.858  13.752  64.431  1.00  0.00    -0.380 NA 
ENDROOT
BRANCH  11  15
HETATM   15  C   UNL     1     -11.818  13.901  67.920  1.00  0.00    -0.378 C  
BRANCH  15  16
HETATM   16  O   UNL     1     -11.739  15.318  68.068  1.00  0.00    -0.342 OA 
BRANCH  16  17
HETATM   17  C   UNL     1     -11.669  15.685  69.451  1.00  0.00    -0.383 C  
BRANCH  17  18
HETATM   18  C   UNL     1     -12.458  14.670  70.272  1.00  0.00    -0.346 C  
HETATM   19  O   UNL     1     -11.775  14.391  71.491  1.00  0.00    -0.456 OA 
HETATM   20  H   UNL     1     -12.266  13.759  72.003  1.00  0.00     0.000 HD 
ENDBRANCH  17  18
ENDBRANCH  16  17
ENDBRANCH  15  16
ENDBRANCH  11  15
TORSDOF 4
ENDMDL
MODEL      105
REMARK 921   NORMALIZED FREE ENERGY PREDICTED BY IDOCK:   -4.21 KCAL/MOL
REMARK 922        TOTAL FREE ENERGY PREDICTED BY IDOCK:   -5.41 KCAL/MOL
REMARK 923 INTER-LIGAND FREE ENERGY PREDICTED BY IDOCK:   -5.24 KCAL/MOL
REMARK 924 INTRA-LIGAND FREE ENERGY PREDICTED BY IDOCK:   -0.18 KCAL/MOL
REMARK 927      BINDING AFFINITY PREDICTED BY RF-SCORE:    0.00 PKD
ROOT
HETATM    1  N   UNL     1      -5.988  15.479  69.956  1.00  0.00    -0.144 NA 
HETATM    2  H2  UNL     1      -5.121  15.573  70.486  1.00  0.00     0.000 HD 
HETATM    3  H1  UNL     1      -6.391  14.555  69.802  1.00  0.00     0.000 HD 
HETATM    4  C   UNL     1      -6.598  16.583  69.460  1.00  0.00    -0.217 C  
HETATM    5  N   UNL     1      -6.086  17.760  69.656  1.00  0.00    -0.250 N  
HETATM    6  C   UNL     1      -6.741  18.901  69.171  1.00  0.00    -0.297 C  
HETATM    7  H   UNL     1      -5.206  17.855  70.164  1.00  0.00     0.000 HD 
HETATM    8  C   UNL     1      -8.027  18.646  68.505  1.00  0.00    -0.337 A  
HETATM    9  O   UNL     1      -6.278  20.030  69.298  1.00  0.00    -0.287 OA 
HETATM   10  C   UNL     1      -8.461  17.356  68.349  1.00  0.00    -0.263 A  
HETATM   11  N   UNL     1      -9.675  17.413  67.744  1.00  0.00    -0.262 NA 
HETATM   12  N   UNL     1      -7.758  16.297  68.779  1.00  0.00    -0.189 NA 
HETATM   13  C   UNL     1      -9.933  18.747  67.536  1.00  0.00    -0.338 A  
HETATM   14  N   UNL     1      -8.956  19.517  67.976  1.00  0.00    -0.320 NA 
ENDROOT
BRANCH  11  15
HETATM   15  C   UNL     1     -10.508  16.315  67.304  1.00  0.00    -0.300 C  
BRANCH  15  16
HETATM   16  O   UNL     1      -9.755  15.497  66.410  1.00  0.00    -0.247 OA 
BRANCH  16  17
HETATM   17  C   UNL     1     -10.553  15.095  65.290  1.00  0.00    -0.411 C  
BRANCH  17  18
HETATM   18  C   UNL     1     -11.523  16.220  64.944  1.00  0.00    -0.033 C  
HETATM   19  O   UNL     1     -12.007  16.056  63.614  1.00  0.00    -1.344 OA 
HETATM   20  H   UNL     1     -12.612  16.757  63.398  1.00  0.00     0.000 HD 
ENDBRANCH  17  18
ENDBRANCH  16  17
ENDBRANCH  15  16
ENDBRANCH  11  15
TORSDOF 4
ENDMDL
MODEL      106
REMARK 921   NORMALIZED FREE ENERGY PREDICTED BY IDOCK:   -4.20 KCAL/MOL
REMARK 922        TOTAL FREE ENERGY PREDICTED BY IDOCK:   -5.41 KCAL/MOL
REMARK 923 INTER-LIGAND FREE ENERGY PREDICTED BY IDOCK:   -5.24 KCAL/MOL
REMARK 924 INTRA-LIGAND FREE ENERGY PREDICTED BY IDOCK:   -0.16 KCAL/MOL
REMARK 927      BINDING AFFINITY PREDICTED BY RF-SCORE:    0.00 PKD
ROOT
HETATM    1  N   UNL     1      -9.307   7.736  69.032  1.00  0.00    -0.150 NA 
HETATM    2  H2  UNL     1      -9.014   6.764  68.935  1.00  0.00     0.000 HD 
HETATM    3  H1  UNL     1      -8.853   8.461  68.475  1.00  0.00     0.000 HD 
HETATM    4  C   UNL     1     -10.297   8.059  69.899  1.00  0.00    -0.221 C  
HETATM    5  N   UNL     1     -10.875   7.137  70.608  1.00  0.00    -0.239 N  
HETATM    6  C   UNL     1     -11.923   7.474  71.476  1.00  0.00    -0.307 C  
HETATM    7  H   UNL     1     -10.567   6.168  70.533  1.00  0.00     0.000 HD 
HETATM    8  C   UNL     1     -12.317   8.890  71.460  1.00  0.00    -0.324 A  
HETATM    9  O   UNL     1     -12.474   6.645  72.194  1.00  0.00    -0.277 OA 
HETATM   10  C   UNL     1     -11.625   9.773  70.675  1.00  0.00    -0.313 A  
HETATM   11  N   UNL     1     -12.214  10.987  70.822  1.00  0.00    -0.358 NA 
HETATM   12  N   UNL     1     -10.586   9.403  69.910  1.00  0.00    -0.222 NA 
HETATM   13  C   UNL     1     -13.246  10.803  71.712  1.00  0.00    -0.418 A  
HETATM   14  N   UNL     1     -13.330   9.551  72.122  1.00  0.00    -0.443 NA 
ENDROOT
BRANCH  11  15
HETATM   15  C   UNL     1     -11.809  12.254  70.253  1.00  0.00    -0.240 C  
BRANCH  15  16
HETATM   16  O   UNL     1     -12.595  13.292  70.837  1.00  0.00    -0.345 OA 
BRANCH  16  17
HETATM   17  C   UNL     1     -11.932  14.558  70.727  1.00  0.00    -0.322 C  
BRANCH  17  18
HETATM   18  C   UNL     1     -12.015  15.278  72.069  1.00  0.00    -0.411 C  
HETATM   19  O   UNL     1     -11.843  16.680  71.883  1.00  0.00    -0.654 OA 
HETATM   20  H   UNL     1     -11.895  17.129  72.719  1.00  0.00     0.000 HD 
ENDBRANCH  17  18
ENDBRANCH  16  17
ENDBRANCH  15  16
ENDBRANCH  11  15
TORSDOF 4
ENDMDL
MODEL      107
REMARK 921   NORMALIZED FREE ENERGY PREDICTED BY IDOCK:   -4.17 KCAL/MOL
REMARK 922        TOTAL FREE ENERGY PREDICTED BY IDOCK:   -5.37 KCAL/MOL
REMARK 923 INTER-LIGAND FREE ENERGY PREDICTED BY IDOCK:   -5.09 KCAL/MOL
REMARK 924 INTRA-LIGAND FREE ENERGY PREDICTED BY IDOCK:   -0.27 KCAL/MOL
REMARK 927      BINDING AFFINITY PREDICTED BY RF-SCORE:    0.00 PKD
ROOT
HETATM    1  N   UNL     1     -13.807  13.910  72.323  1.00  0.00    -0.530 NA 
HETATM    2  H2  UNL     1     -14.361  13.805  73.174  1.00  0.00     0.000 HD 
HETATM    3  H1  UNL     1     -13.678  14.835  71.913  1.00  0.00     0.000 HD 
HETATM    4  C   UNL     1     -13.246  12.820  71.744  1.00  0.00    -0.374 C  
HETATM    5  N   UNL     1     -13.409  11.643  72.267  1.00  0.00    -0.546 N  
HETATM    6  C   UNL     1     -12.796  10.525  71.683  1.00  0.00    -0.475 C  
HETATM    7  H   UNL     1     -13.984  11.531  73.102  1.00  0.00     0.000 HD 
HETATM    8  C   UNL     1     -11.949  10.815  70.517  1.00  0.00    -0.361 A  
HETATM    9  O   UNL     1     -12.952   9.388  72.117  1.00  0.00    -0.390 OA 
HETATM   10  C   UNL     1     -11.861  12.100  70.051  1.00  0.00    -0.306 A  
HETATM   11  N   UNL     1     -10.996  12.089  69.005  1.00  0.00    -0.226 NA 
HETATM   12  N   UNL     1     -12.524  13.123  70.614  1.00  0.00    -0.321 NA 
HETATM   13  C   UNL     1     -10.596  10.781  68.858  1.00  0.00    -0.216 A  
HETATM   14  N   UNL     1     -11.158   9.987  69.749  1.00  0.00    -0.261 NA 
ENDROOT
BRANCH  11  15
HETATM   15  C   UNL     1     -10.625  13.186  68.138  1.00  0.00    -0.245 C  
BRANCH  15  16
HETATM   16  O   UNL     1      -9.204  13.217  68.022  1.00  0.00    -0.202 OA 
BRANCH  16  17
HETATM   17  C   UNL     1      -8.690  14.506  68.382  1.00  0.00    -0.175 C  
BRANCH  17  18
HETATM   18  C   UNL     1      -9.849  15.491  68.481  1.00  0.00    -0.202 C  
HETATM   19  O   UNL     1      -9.393  16.730  69.018  1.00  0.00    -0.262 OA 
HETATM   20  H   UNL     1     -10.116  17.344  69.080  1.00  0.00     0.000 HD 
ENDBRANCH  17  18
ENDBRANCH  16  17
ENDBRANCH  15  16
ENDBRANCH  11  15
TORSDOF 4
ENDMDL
MODEL      108
REMARK 921   NORMALIZED FREE ENERGY PREDICTED BY IDOCK:   -4.16 KCAL/MOL
REMARK 922        TOTAL FREE ENERGY PREDICTED BY IDOCK:   -5.36 KCAL/MOL
REMARK 923 INTER-LIGAND FREE ENERGY PREDICTED BY IDOCK:   -5.07 KCAL/MOL
REMARK 924 INTRA-LIGAND FREE ENERGY PREDICTED BY IDOCK:   -0.29 KCAL/MOL
REMARK 927      BINDING AFFINITY PREDICTED BY RF-SCORE:    0.00 PKD
ROOT
HETATM    1  N   UNL     1      -6.639  18.346  69.348  1.00  0.00    -0.245 NA 
HETATM    2  H2  UNL     1      -6.263  19.103  69.920  1.00  0.00     0.000 HD 
HETATM    3  H1  UNL     1      -6.290  17.395  69.473  1.00  0.00     0.000 HD 
HETATM    4  C   UNL     1      -7.600  18.608  68.428  1.00  0.00    -0.297 C  
HETATM    5  N   UNL     1      -8.045  19.818  68.270  1.00  0.00    -0.313 N  
HETATM    6  C   UNL     1      -9.064  20.075  67.343  1.00  0.00    -0.357 C  
HETATM    7  H   UNL     1      -7.652  20.581  68.821  1.00  0.00     0.000 HD 
HETATM    8  C   UNL     1      -9.589  18.890  66.647  1.00  0.00    -0.336 A  
HETATM    9  O   UNL     1      -9.489  21.206  67.130  1.00  0.00    -0.256 OA 
HETATM   10  C   UNL     1      -9.032  17.663  66.892  1.00  0.00    -0.246 A  
HETATM   11  N   UNL     1      -9.722  16.756  66.155  1.00  0.00    -0.363 NA 
HETATM   12  N   UNL     1      -8.012  17.488  67.747  1.00  0.00    -0.205 NA 
HETATM   13  C   UNL     1     -10.674  17.471  65.468  1.00  0.00    -0.062 A  
HETATM   14  N   UNL     1     -10.616  18.762  65.736  1.00  0.00    -0.572 NA 
ENDROOT
BRANCH  11  15
HETATM   15  C   UNL     1      -9.473  15.337  66.019  1.00  0.00    -0.337 C  
BRANCH  15  16
HETATM   16  O   UNL     1     -10.669  14.703  65.569  1.00  0.00    -0.309 OA 
BRANCH  16  17
HETATM   17  C   UNL     1     -10.878  13.462  66.254  1.00  0.00    -0.289 C  
BRANCH  17  18
HETATM   18  C   UNL     1     -11.145  13.748  67.728  1.00  0.00    -0.268 C  
HETATM   19  O   UNL     1     -12.405  14.396  67.879  1.00  0.00    -0.615 OA 
HETATM   20  H   UNL     1     -12.571  14.574  68.798  1.00  0.00     0.000 HD 
ENDBRANCH  17  18
ENDBRANCH  16  17
ENDBRANCH  15  16
ENDBRANCH  11  15
TORSDOF 4
ENDMDL
MODEL      109
REMARK 921   NORMALIZED FREE ENERGY PREDICTED BY IDOCK:   -4.15 KCAL/MOL
REMARK 922        TOTAL FREE ENERGY PREDICTED BY IDOCK:   -5.34 KCAL/MOL
REMARK 923 INTER-LIGAND FREE ENERGY PREDICTED BY IDOCK:   -5.19 KCAL/MOL
REMARK 924 INTRA-LIGAND FREE ENERGY PREDICTED BY IDOCK:   -0.15 KCAL/MOL
REMARK 927      BINDING AFFINITY PREDICTED BY RF-SCORE:    0.00 PKD
ROOT
HETATM    1  N   UNL     1     -12.067  15.699  68.783  1.00  0.00    -0.571 NA 
HETATM    2  H2  UNL     1     -12.413  16.640  68.971  1.00  0.00     0.000 HD 
HETATM    3  H1  UNL     1     -11.481  15.528  67.966  1.00  0.00     0.000 HD 
HETATM    4  C   UNL     1     -12.388  14.681  69.620  1.00  0.00    -0.230 C  
HETATM    5  N   UNL     1     -13.134  14.899  70.661  1.00  0.00    -0.571 N  
HETATM    6  C   UNL     1     -13.432  13.849  71.541  1.00  0.00    -0.309 C  
HETATM    7  H   UNL     1     -13.503  15.833  70.837  1.00  0.00     0.000 HD 
HETATM    8  C   UNL     1     -12.800  12.562  71.215  1.00  0.00    -0.241 A  
HETATM    9  O   UNL     1     -14.163  13.996  72.516  1.00  0.00    -0.637 OA 
HETATM   10  C   UNL     1     -12.039  12.453  70.082  1.00  0.00    -0.290 A  
HETATM   11  N   UNL     1     -11.555  11.185  70.046  1.00  0.00    -0.321 NA 
HETATM   12  N   UNL     1     -11.840  13.479  69.240  1.00  0.00    -0.323 NA 
HETATM   13  C   UNL     1     -12.056  10.556  71.160  1.00  0.00    -0.370 A  
HETATM   14  N   UNL     1     -12.818  11.355  71.883  1.00  0.00    -0.357 NA 
ENDROOT
BRANCH  11  15
HETATM   15  C   UNL     1     -10.756  10.561  69.013  1.00  0.00    -0.225 C  
BRANCH  15  16
HETATM   16  O   UNL     1     -11.464   9.432  68.505  1.00  0.00     0.209 OA 
BRANCH  16  17
HETATM   17  C   UNL     1     -10.741   8.816  67.432  1.00  0.00    -0.146 C  
BRANCH  17  18
HETATM   18  C   UNL     1     -10.689   7.310  67.671  1.00  0.00    -0.224 C  
HETATM   19  O   UNL     1     -11.161   6.616  66.520  1.00  0.00    -0.584 OA 
HETATM   20  H   UNL     1     -11.129   5.678  66.669  1.00  0.00     0.000 HD 
ENDBRANCH  17  18
ENDBRANCH  16  17
ENDBRANCH  15  16
ENDBRANCH  11  15
TORSDOF 4
ENDMDL
MODEL      110
REMARK 921   NORMALIZED FREE ENERGY PREDICTED BY IDOCK:   -4.13 KCAL/MOL
REMARK 922        TOTAL FREE ENERGY PREDICTED BY IDOCK:   -5.31 KCAL/MOL
REMARK 923 INTER-LIGAND FREE ENERGY PREDICTED BY IDOCK:   -5.06 KCAL/MOL
REMARK 924 INTRA-LIGAND FREE ENERGY PREDICTED BY IDOCK:   -0.25 KCAL/MOL
REMARK 927      BINDING AFFINITY PREDICTED BY RF-SCORE:    0.00 PKD
ROOT
HETATM    1  N   UNL     1     -13.028  14.490  70.660  1.00  0.00    -0.443 NA 
HETATM    2  H2  UNL     1     -13.289  15.213  71.331  1.00  0.00     0.000 HD 
HETATM    3  H1  UNL     1     -13.320  13.525  70.815  1.00  0.00     0.000 HD 
HETATM    4  C   UNL     1     -12.295  14.816  69.567  1.00  0.00    -0.179 C  
HETATM    5  N   UNL     1     -11.923  16.045  69.369  1.00  0.00    -0.310 N  
HETATM    6  C   UNL     1     -11.197  16.381  68.218  1.00  0.00    -0.300 C  
HETATM    7  H   UNL     1     -12.160  16.766  70.051  1.00  0.00     0.000 HD 
HETATM    8  C   UNL     1     -10.962  15.271  67.282  1.00  0.00    -0.327 A  
HETATM    9  O   UNL     1     -10.790  17.519  68.006  1.00  0.00    -0.378 OA 
HETATM   10  C   UNL     1     -11.396  14.014  67.605  1.00  0.00    -0.312 A  
HETATM   11  N   UNL     1     -11.084  13.202  66.563  1.00  0.00    -0.289 NA 
HETATM   12  N   UNL     1     -12.032  13.739  68.755  1.00  0.00    -0.361 NA 
HETATM   13  C   UNL     1     -10.451  13.999  65.638  1.00  0.00    -0.318 A  
HETATM   14  N   UNL     1     -10.354  15.251  66.044  1.00  0.00    -0.293 NA 
ENDROOT
BRANCH  11  15
HETATM   15  C   UNL     1     -11.275  11.772  66.453  1.00  0.00    -0.323 C  
BRANCH  15  16
HETATM   16  O   UNL     1     -11.114  11.392  65.087  1.00  0.00    -0.232 OA 
BRANCH  16  17
HETATM   17  C   UNL     1     -10.131  10.357  64.957  1.00  0.00    -0.309 C  
BRANCH  17  18
HETATM   18  C   UNL     1      -9.936   9.686  66.312  1.00  0.00    -0.264 C  
HETATM   19  O   UNL     1      -9.874   8.271  66.153  1.00  0.00    -0.427 OA 
HETATM   20  H   UNL     1      -9.752   7.853  66.998  1.00  0.00     0.000 HD 
ENDBRANCH  17  18
ENDBRANCH  16  17
ENDBRANCH  15  16
ENDBRANCH  11  15
TORSDOF 4
ENDMDL
MODEL      111
REMARK 921   NORMALIZED FREE ENERGY PREDICTED BY IDOCK:   -4.12 KCAL/MOL
REMARK 922        TOTAL FREE ENERGY PREDICTED BY IDOCK:   -5.30 KCAL/MOL
REMARK 923 INTER-LIGAND FREE ENERGY PREDICTED BY IDOCK:   -4.79 KCAL/MOL
REMARK 924 INTRA-LIGAND FREE ENERGY PREDICTED BY IDOCK:   -0.52 KCAL/MOL
REMARK 927      BINDING AFFINITY PREDICTED BY RF-SCORE:    0.00 PKD
ROOT
HETATM    1  N   UNL     1     -12.624  12.056  70.954  1.00  0.00    -0.311 NA 
HETATM    2  H2  UNL     1     -12.459  11.778  71.922  1.00  0.00     0.000 HD 
HETATM    3  H1  UNL     1     -13.350  12.740  70.740  1.00  0.00     0.000 HD 
HETATM    4  C   UNL     1     -11.876  11.518  69.960  1.00  0.00    -0.355 C  
HETATM    5  N   UNL     1     -10.951  10.648  70.232  1.00  0.00    -0.448 N  
HETATM    6  C   UNL     1     -10.158  10.122  69.202  1.00  0.00    -0.213 C  
HETATM    7  H   UNL     1     -10.801  10.347  71.195  1.00  0.00     0.000 HD 
HETATM    8  C   UNL     1     -10.428  10.669  67.865  1.00  0.00    -0.208 A  
HETATM    9  O   UNL     1      -9.298   9.270  69.404  1.00  0.00    -0.153 OA 
HETATM   10  C   UNL     1     -11.438  11.579  67.700  1.00  0.00    -0.285 A  
HETATM   11  N   UNL     1     -11.444  11.940  66.391  1.00  0.00    -0.435 NA 
HETATM   12  N   UNL     1     -12.209  11.999  68.716  1.00  0.00    -0.230 NA 
HETATM   13  C   UNL     1     -10.436  11.218  65.796  1.00  0.00    -0.254 A  
HETATM   14  N   UNL     1      -9.809  10.437  66.654  1.00  0.00    -0.194 NA 
ENDROOT
BRANCH  11  15
HETATM   15  C   UNL     1     -12.365  12.822  65.709  1.00  0.00    -0.323 C  
BRANCH  15  16
HETATM   16  O   UNL     1     -12.363  14.087  66.369  1.00  0.00    -0.460 OA 
BRANCH  16  17
HETATM   17  C   UNL     1     -11.185  14.833  66.038  1.00  0.00    -0.341 C  
BRANCH  17  18
HETATM   18  C   UNL     1     -10.685  15.549  67.288  1.00  0.00    -0.308 C  
HETATM   19  O   UNL     1     -11.217  14.926  68.454  1.00  0.00    -0.266 OA 
HETATM   20  H   UNL     1     -10.904  15.372  69.233  1.00  0.00     0.000 HD 
ENDBRANCH  17  18
ENDBRANCH  16  17
ENDBRANCH  15  16
ENDBRANCH  11  15
TORSDOF 4
ENDMDL
MODEL      112
REMARK 921   NORMALIZED FREE ENERGY PREDICTED BY IDOCK:   -4.11 KCAL/MOL
REMARK 922        TOTAL FREE ENERGY PREDICTED BY IDOCK:   -5.30 KCAL/MOL
REMARK 923 INTER-LIGAND FREE ENERGY PREDICTED BY IDOCK:   -5.14 KCAL/MOL
REMARK 924 INTRA-LIGAND FREE ENERGY PREDICTED BY IDOCK:   -0.16 KCAL/MOL
REMARK 927      BINDING AFFINITY PREDICTED BY RF-SCORE:    0.00 PKD
ROOT
HETATM    1  N   UNL     1     -13.038  14.656  71.437  1.00  0.00    -0.328 NA 
HETATM    2  H2  UNL     1     -13.593  14.913  72.253  1.00  0.00     0.000 HD 
HETATM    3  H1  UNL     1     -12.647  15.385  70.840  1.00  0.00     0.000 HD 
HETATM    4  C   UNL     1     -12.822  13.349  71.151  1.00  0.00    -0.291 C  
HETATM    5  N   UNL     1     -13.319  12.420  71.911  1.00  0.00    -0.435 N  
HETATM    6  C   UNL     1     -13.062  11.071  71.629  1.00  0.00    -0.438 C  
HETATM    7  H   UNL     1     -13.897  12.672  72.713  1.00  0.00     0.000 HD 
HETATM    8  C   UNL     1     -12.173  10.831  70.483  1.00  0.00    -0.366 A  
HETATM    9  O   UNL     1     -13.540  10.157  72.294  1.00  0.00    -0.355 OA 
HETATM   10  C   UNL     1     -11.716  11.894  69.750  1.00  0.00    -0.331 A  
HETATM   11  N   UNL     1     -10.898  11.395  68.788  1.00  0.00    -0.197 NA 
HETATM   12  N   UNL     1     -12.049  13.164  70.029  1.00  0.00    -0.326 NA 
HETATM   13  C   UNL     1     -10.897  10.031  68.961  1.00  0.00    -0.222 A  
HETATM   14  N   UNL     1     -11.662   9.657  69.969  1.00  0.00    -0.098 NA 
ENDROOT
BRANCH  11  15
HETATM   15  C   UNL     1     -10.228  12.110  67.724  1.00  0.00    -0.201 C  
BRANCH  15  16
HETATM   16  O   UNL     1      -9.895  11.186  66.689  1.00  0.00    -0.191 OA 
BRANCH  16  17
HETATM   17  C   UNL     1     -10.769  11.343  65.564  1.00  0.00    -0.253 C  
BRANCH  17  18
HETATM   18  C   UNL     1     -10.028  10.922  64.299  1.00  0.00    -0.333 C  
HETATM   19  O   UNL     1     -10.878  11.063  63.165  1.00  0.00    -0.772 OA 
HETATM   20  H   UNL     1     -10.416  10.801  62.377  1.00  0.00     0.000 HD 
ENDBRANCH  17  18
ENDBRANCH  16  17
ENDBRANCH  15  16
ENDBRANCH  11  15
TORSDOF 4
ENDMDL
MODEL      113
REMARK 921   NORMALIZED FREE ENERGY PREDICTED BY IDOCK:   -4.10 KCAL/MOL
REMARK 922        TOTAL FREE ENERGY PREDICTED BY IDOCK:   -5.29 KCAL/MOL
REMARK 923 INTER-LIGAND FREE ENERGY PREDICTED BY IDOCK:   -4.96 KCAL/MOL
REMARK 924 INTRA-LIGAND FREE ENERGY PREDICTED BY IDOCK:   -0.32 KCAL/MOL
REMARK 927      BINDING AFFINITY PREDICTED BY RF-SCORE:    0.00 PKD
ROOT
HETATM    1  N   UNL     1     -12.283  10.963  68.880  1.00  0.00    -0.764 NA 
HETATM    2  H2  UNL     1     -13.151  11.447  68.651  1.00  0.00     0.000 HD 
HETATM    3  H1  UNL     1     -11.460  11.092  68.292  1.00  0.00     0.000 HD 
HETATM    4  C   UNL     1     -12.228  10.152  69.965  1.00  0.00    -0.051 C  
HETATM    5  N   UNL     1     -13.275   9.988  70.715  1.00  0.00    -0.591 N  
HETATM    6  C   UNL     1     -13.201   9.177  71.856  1.00  0.00    -0.416 C  
HETATM    7  H   UNL     1     -14.153  10.449  70.474  1.00  0.00     0.000 HD 
HETATM    8  C   UNL     1     -11.873   8.609  72.133  1.00  0.00    -0.377 A  
HETATM    9  O   UNL     1     -14.173   8.960  72.573  1.00  0.00    -0.527 OA 
HETATM   10  C   UNL     1     -10.844   8.847  71.262  1.00  0.00    -0.290 A  
HETATM   11  N   UNL     1      -9.740   8.244  71.773  1.00  0.00    -0.191 NA 
HETATM   12  N   UNL     1     -10.991   9.581  70.149  1.00  0.00    -0.249 NA 
HETATM   13  C   UNL     1     -10.143   7.641  72.941  1.00  0.00    -0.286 A  
HETATM   14  N   UNL     1     -11.426   7.835  73.183  1.00  0.00    -0.264 NA 
ENDROOT
BRANCH  11  15
HETATM   15  C   UNL     1      -8.420   8.150  71.188  1.00  0.00    -0.128 C  
BRANCH  15  16
HETATM   16  O   UNL     1      -7.538   9.013  71.906  1.00  0.00    -0.334 OA 
BRANCH  16  17
HETATM   17  C   UNL     1      -6.577   9.609  71.026  1.00  0.00    -0.031 C  
BRANCH  17  18
HETATM   18  C   UNL     1      -7.258   9.944  69.704  1.00  0.00    -0.108 C  
HETATM   19  O   UNL     1      -7.521  11.343  69.631  1.00  0.00    -0.359 OA 
HETATM   20  H   UNL     1      -7.945  11.552  68.806  1.00  0.00     0.000 HD 
ENDBRANCH  17  18
ENDBRANCH  16  17
ENDBRANCH  15  16
ENDBRANCH  11  15
TORSDOF 4
ENDMDL
MODEL      114
REMARK 921   NORMALIZED FREE ENERGY PREDICTED BY IDOCK:   -4.08 KCAL/MOL
REMARK 922        TOTAL FREE ENERGY PREDICTED BY IDOCK:   -5.26 KCAL/MOL
REMARK 923 INTER-LIGAND FREE ENERGY PREDICTED BY IDOCK:   -5.29 KCAL/MOL
REMARK 924 INTRA-LIGAND FREE ENERGY PREDICTED BY IDOCK:    0.03 KCAL/MOL
REMARK 927      BINDING AFFINITY PREDICTED BY RF-SCORE:    0.00 PKD
ROOT
HETATM    1  N   UNL     1      -6.410  14.702  68.413  1.00  0.00    -0.092 NA 
HETATM    2  H2  UNL     1      -5.882  14.899  69.263  1.00  0.00     0.000 HD 
HETATM    3  H1  UNL     1      -5.918  14.443  67.558  1.00  0.00     0.000 HD 
HETATM    4  C   UNL     1      -7.764  14.786  68.425  1.00  0.00    -0.122 C  
HETATM    5  N   UNL     1      -8.391  15.116  69.513  1.00  0.00    -0.388 N  
HETATM    6  C   UNL     1      -9.792  15.165  69.528  1.00  0.00    -0.184 C  
HETATM    7  H   UNL     1      -7.864  15.339  70.358  1.00  0.00     0.000 HD 
HETATM    8  C   UNL     1     -10.444  14.772  68.269  1.00  0.00    -0.241 A  
HETATM    9  O   UNL     1     -10.428  15.509  70.519  1.00  0.00    -0.302 OA 
HETATM   10  C   UNL     1      -9.674  14.451  67.183  1.00  0.00    -0.248 A  
HETATM   11  N   UNL     1     -10.520  14.096  66.183  1.00  0.00    -0.289 NA 
HETATM   12  N   UNL     1      -8.332  14.484  67.211  1.00  0.00    -0.203 NA 
HETATM   13  C   UNL     1     -11.789  14.229  66.696  1.00  0.00    -0.421 A  
HETATM   14  N   UNL     1     -11.779  14.642  67.949  1.00  0.00    -0.352 NA 
ENDROOT
BRANCH  11  15
HETATM   15  C   UNL     1     -10.195  13.741  64.819  1.00  0.00    -0.335 C  
BRANCH  15  16
HETATM   16  O   UNL     1     -10.214  12.320  64.698  1.00  0.00    -0.282 OA 
BRANCH  16  17
HETATM   17  C   UNL     1     -10.742  11.922  63.427  1.00  0.00    -0.413 C  
BRANCH  17  18
HETATM   18  C   UNL     1     -12.233  12.242  63.388  1.00  0.00    -0.527 C  
HETATM   19  O   UNL     1     -12.438  13.552  62.866  1.00  0.00    -0.891 OA 
HETATM   20  H   UNL     1     -13.367  13.751  62.842  1.00  0.00     0.000 HD 
ENDBRANCH  17  18
ENDBRANCH  16  17
ENDBRANCH  15  16
ENDBRANCH  11  15
TORSDOF 4
ENDMDL
MODEL      115
REMARK 921   NORMALIZED FREE ENERGY PREDICTED BY IDOCK:   -4.08 KCAL/MOL
REMARK 922        TOTAL FREE ENERGY PREDICTED BY IDOCK:   -5.26 KCAL/MOL
REMARK 923 INTER-LIGAND FREE ENERGY PREDICTED BY IDOCK:   -5.02 KCAL/MOL
REMARK 924 INTRA-LIGAND FREE ENERGY PREDICTED BY IDOCK:   -0.24 KCAL/MOL
REMARK 927      BINDING AFFINITY PREDICTED BY RF-SCORE:    0.00 PKD
ROOT
HETATM    1  N   UNL     1     -10.972   8.147  69.358  1.00  0.00    -0.431 NA 
HETATM    2  H2  UNL     1     -10.702   7.460  70.062  1.00  0.00     0.000 HD 
HETATM    3  H1  UNL     1     -11.864   8.054  68.873  1.00  0.00     0.000 HD 
HETATM    4  C   UNL     1     -10.143   9.182  69.073  1.00  0.00    -0.191 C  
HETATM    5  N   UNL     1      -9.007   9.301  69.691  1.00  0.00    -0.149 N  
HETATM    6  C   UNL     1      -8.170  10.393  69.416  1.00  0.00    -0.151 C  
HETATM    7  H   UNL     1      -8.722   8.601  70.376  1.00  0.00     0.000 HD 
HETATM    8  C   UNL     1      -8.708  11.364  68.453  1.00  0.00    -0.157 A  
HETATM    9  O   UNL     1      -7.072  10.529  69.945  1.00  0.00    -0.140 OA 
HETATM   10  C   UNL     1      -9.918  11.125  67.858  1.00  0.00    -0.173 A  
HETATM   11  N   UNL     1     -10.186  12.185  67.053  1.00  0.00    -0.207 NA 
HETATM   12  N   UNL     1     -10.647  10.027  68.114  1.00  0.00    -0.212 NA 
HETATM   13  C   UNL     1      -9.112  13.034  67.175  1.00  0.00    -0.225 A  
HETATM   14  N   UNL     1      -8.199  12.566  68.005  1.00  0.00    -0.156 NA 
ENDROOT
BRANCH  11  15
HETATM   15  C   UNL     1     -11.311  12.371  66.163  1.00  0.00    -0.352 C  
BRANCH  15  16
HETATM   16  O   UNL     1     -11.975  13.585  66.511  1.00  0.00    -0.378 OA 
BRANCH  16  17
HETATM   17  C   UNL     1     -12.423  14.277  65.338  1.00  0.00    -0.425 C  
BRANCH  17  18
HETATM   18  C   UNL     1     -11.240  15.008  64.713  1.00  0.00    -0.386 C  
HETATM   19  O   UNL     1     -11.704  16.002  63.805  1.00  0.00    -1.288 OA 
HETATM   20  H   UNL     1     -10.967  16.458  63.415  1.00  0.00     0.000 HD 
ENDBRANCH  17  18
ENDBRANCH  16  17
ENDBRANCH  15  16
ENDBRANCH  11  15
TORSDOF 4
ENDMDL
MODEL      116
REMARK 921   NORMALIZED FREE ENERGY PREDICTED BY IDOCK:   -4.05 KCAL/MOL
REMARK 922        TOTAL FREE ENERGY PREDICTED BY IDOCK:   -5.22 KCAL/MOL
REMARK 923 INTER-LIGAND FREE ENERGY PREDICTED BY IDOCK:   -4.98 KCAL/MOL
REMARK 924 INTRA-LIGAND FREE ENERGY PREDICTED BY IDOCK:   -0.23 KCAL/MOL
REMARK 927      BINDING AFFINITY PREDICTED BY RF-SCORE:    0.00 PKD
ROOT
HETATM    1  N   UNL     1      -6.865  10.085  67.761  1.00  0.00    -0.075 NA 
HETATM    2  H2  UNL     1      -6.206  10.321  67.019  1.00  0.00     0.000 HD 
HETATM    3  H1  UNL     1      -6.549   9.546  68.568  1.00  0.00     0.000 HD 
HETATM    4  C   UNL     1      -8.156  10.489  67.672  1.00  0.00    -0.107 C  
HETATM    5  N   UNL     1      -8.559  11.176  66.645  1.00  0.00    -0.160 N  
HETATM    6  C   UNL     1      -9.886  11.622  66.577  1.00  0.00    -0.204 C  
HETATM    7  H   UNL     1      -7.909  11.391  65.889  1.00  0.00     0.000 HD 
HETATM    8  C   UNL     1     -10.715  11.299  67.748  1.00  0.00    -0.220 A  
HETATM    9  O   UNL     1     -10.324  12.239  65.611  1.00  0.00    -0.245 OA 
HETATM   10  C   UNL     1     -10.179  10.560  68.769  1.00  0.00    -0.190 A  
HETATM   11  N   UNL     1     -11.137  10.443  69.724  1.00  0.00    -0.275 NA 
HETATM   12  N   UNL     1      -8.917  10.105  68.750  1.00  0.00    -0.139 NA 
HETATM   13  C   UNL     1     -12.238  11.108  69.239  1.00  0.00    -0.226 A  
HETATM   14  N   UNL     1     -12.020  11.630  68.047  1.00  0.00    -0.609 NA 
ENDROOT
BRANCH  11  15
HETATM   15  C   UNL     1     -11.080   9.697  70.962  1.00  0.00    -0.368 C  
BRANCH  15  16
HETATM   16  O   UNL     1     -11.526   8.364  70.715  1.00  0.00    -0.273 OA 
BRANCH  16  17
HETATM   17  C   UNL     1     -12.676   8.054  71.513  1.00  0.00    -0.307 C  
BRANCH  17  18
HETATM   18  C   UNL     1     -13.029   9.268  72.365  1.00  0.00    -0.377 C  
HETATM   19  O   UNL     1     -14.073   8.938  73.277  1.00  0.00    -1.211 OA 
HETATM   20  H   UNL     1     -14.293   9.695  73.808  1.00  0.00     0.000 HD 
ENDBRANCH  17  18
ENDBRANCH  16  17
ENDBRANCH  15  16
ENDBRANCH  11  15
TORSDOF 4
ENDMDL
MODEL      117
REMARK 921   NORMALIZED FREE ENERGY PREDICTED BY IDOCK:   -4.05 KCAL/MOL
REMARK 922        TOTAL FREE ENERGY PREDICTED BY IDOCK:   -5.22 KCAL/MOL
REMARK 923 INTER-LIGAND FREE ENERGY PREDICTED BY IDOCK:   -4.97 KCAL/MOL
REMARK 924 INTRA-LIGAND FREE ENERGY PREDICTED BY IDOCK:   -0.25 KCAL/MOL
REMARK 927      BINDING AFFINITY PREDICTED BY RF-SCORE:    0.00 PKD
ROOT
HETATM    1  N   UNL     1     -11.809  12.028  70.403  1.00  0.00    -0.519 NA 
HETATM    2  H2  UNL     1     -12.438  12.791  70.656  1.00  0.00     0.000 HD 
HETATM    3  H1  UNL     1     -10.976  12.220  69.846  1.00  0.00     0.000 HD 
HETATM    4  C   UNL     1     -12.084  10.764  70.809  1.00  0.00    -0.372 C  
HETATM    5  N   UNL     1     -13.144  10.518  71.518  1.00  0.00    -0.423 N  
HETATM    6  C   UNL     1     -13.402   9.215  71.965  1.00  0.00    -0.445 C  
HETATM    7  H   UNL     1     -13.789  11.274  71.750  1.00  0.00     0.000 HD 
HETATM    8  C   UNL     1     -12.377   8.220  71.617  1.00  0.00    -0.315 A  
HETATM    9  O   UNL     1     -14.409   8.926  72.604  1.00  0.00    -0.613 OA 
HETATM   10  C   UNL     1     -11.303   8.598  70.855  1.00  0.00    -0.272 A  
HETATM   11  N   UNL     1     -10.506   7.508  70.717  1.00  0.00    -0.211 NA 
HETATM   12  N   UNL     1     -11.141   9.851  70.401  1.00  0.00    -0.294 NA 
HETATM   13  C   UNL     1     -11.137   6.490  71.393  1.00  0.00    -0.268 A  
HETATM   14  N   UNL     1     -12.271   6.884  71.941  1.00  0.00    -0.334 NA 
ENDROOT
BRANCH  11  15
HETATM   15  C   UNL     1      -9.290   7.380  69.944  1.00  0.00    -0.154 C  
BRANCH  15  16
HETATM   16  O   UNL     1      -9.101   6.005  69.611  1.00  0.00    -0.133 OA 
BRANCH  16  17
HETATM   17  C   UNL     1      -8.708   5.861  68.241  1.00  0.00    -0.112 C  
BRANCH  17  18
HETATM   18  C   UNL     1      -9.412   6.927  67.408  1.00  0.00    -0.132 C  
HETATM   19  O   UNL     1      -9.960   6.343  66.230  1.00  0.00    -0.371 OA 
HETATM   20  H   UNL     1     -10.400   7.007  65.711  1.00  0.00     0.000 HD 
ENDBRANCH  17  18
ENDBRANCH  16  17
ENDBRANCH  15  16
ENDBRANCH  11  15
TORSDOF 4
ENDMDL
MODEL      118
REMARK 921   NORMALIZED FREE ENERGY PREDICTED BY IDOCK:   -4.03 KCAL/MOL
REMARK 922        TOTAL FREE ENERGY PREDICTED BY IDOCK:   -5.19 KCAL/MOL
REMARK 923 INTER-LIGAND FREE ENERGY PREDICTED BY IDOCK:   -4.73 KCAL/MOL
REMARK 924 INTRA-LIGAND FREE ENERGY PREDICTED BY IDOCK:   -0.47 KCAL/MOL
REMARK 927      BINDING AFFINITY PREDICTED BY RF-SCORE:    0.00 PKD
ROOT
HETATM    1  N   UNL     1     -11.099  13.996  68.353  1.00  0.00    -0.243 NA 
HETATM    2  H2  UNL     1     -11.454  14.519  69.155  1.00  0.00     0.000 HD 
HETATM    3  H1  UNL     1     -10.744  14.496  67.538  1.00  0.00     0.000 HD 
HETATM    4  C   UNL     1     -11.102  12.641  68.378  1.00  0.00    -0.265 C  
HETATM    5  N   UNL     1     -11.553  12.004  69.416  1.00  0.00    -0.310 N  
HETATM    6  C   UNL     1     -11.520  10.603  69.449  1.00  0.00    -0.286 C  
HETATM    7  H   UNL     1     -11.933  12.524  70.208  1.00  0.00     0.000 HD 
HETATM    8  C   UNL     1     -10.902   9.965  68.277  1.00  0.00    -0.230 A  
HETATM    9  O   UNL     1     -11.970   9.956  70.390  1.00  0.00    -0.256 OA 
HETATM   10  C   UNL     1     -10.468  10.744  67.237  1.00  0.00    -0.237 A  
HETATM   11  N   UNL     1      -9.915   9.912  66.318  1.00  0.00    -0.243 NA 
HETATM   12  N   UNL     1     -10.585  12.081  67.234  1.00  0.00    -0.217 NA 
HETATM   13  C   UNL     1     -10.047   8.642  66.828  1.00  0.00    -0.296 A  
HETATM   14  N   UNL     1     -10.644   8.638  68.005  1.00  0.00    -0.187 NA 
ENDROOT
BRANCH  11  15
HETATM   15  C   UNL     1      -9.379  10.246  65.016  1.00  0.00    -0.237 C  
BRANCH  15  16
HETATM   16  O   UNL     1     -10.455  10.622  64.159  1.00  0.00    -0.336 OA 
BRANCH  16  17
HETATM   17  C   UNL     1     -10.121  11.792  63.402  1.00  0.00    -0.446 C  
BRANCH  17  18
HETATM   18  C   UNL     1     -11.111  12.901  63.742  1.00  0.00    -0.379 C  
HETATM   19  O   UNL     1     -10.444  13.958  64.428  1.00  0.00    -0.563 OA 
HETATM   20  H   UNL     1     -11.061  14.649  64.640  1.00  0.00     0.000 HD 
ENDBRANCH  17  18
ENDBRANCH  16  17
ENDBRANCH  15  16
ENDBRANCH  11  15
TORSDOF 4
ENDMDL
MODEL      119
REMARK 921   NORMALIZED FREE ENERGY PREDICTED BY IDOCK:   -3.99 KCAL/MOL
REMARK 922        TOTAL FREE ENERGY PREDICTED BY IDOCK:   -5.15 KCAL/MOL
REMARK 923 INTER-LIGAND FREE ENERGY PREDICTED BY IDOCK:   -4.90 KCAL/MOL
REMARK 924 INTRA-LIGAND FREE ENERGY PREDICTED BY IDOCK:   -0.25 KCAL/MOL
REMARK 927      BINDING AFFINITY PREDICTED BY RF-SCORE:    0.00 PKD
ROOT
HETATM    1  N   UNL     1     -10.850   6.518  73.550  1.00  0.00    -0.464 NA 
HETATM    2  H2  UNL     1     -11.590   6.096  74.113  1.00  0.00     0.000 HD 
HETATM    3  H1  UNL     1      -9.911   6.120  73.567  1.00  0.00     0.000 HD 
HETATM    4  C   UNL     1     -11.121   7.604  72.785  1.00  0.00    -0.383 C  
HETATM    5  N   UNL     1     -12.316   8.110  72.763  1.00  0.00    -0.613 N  
HETATM    6  C   UNL     1     -12.597   9.211  71.942  1.00  0.00    -0.388 C  
HETATM    7  H   UNL     1     -13.052   7.707  73.345  1.00  0.00     0.000 HD 
HETATM    8  C   UNL     1     -11.476   9.672  71.110  1.00  0.00    -0.384 A  
HETATM    9  O   UNL     1     -13.700   9.749  71.916  1.00  0.00    -0.336 OA 
HETATM   10  C   UNL     1     -10.255   9.061  71.226  1.00  0.00    -0.314 A  
HETATM   11  N   UNL     1      -9.425   9.652  70.329  1.00  0.00    -0.256 NA 
HETATM   12  N   UNL     1     -10.029   8.050  72.079  1.00  0.00    -0.196 NA 
HETATM   13  C   UNL     1     -10.172  10.622  69.703  1.00  0.00    -0.116 A  
HETATM   14  N   UNL     1     -11.411  10.665  70.155  1.00  0.00    -0.308 NA 
ENDROOT
BRANCH  11  15
HETATM   15  C   UNL     1      -8.015   9.406  70.118  1.00  0.00    -0.150 C  
BRANCH  15  16
HETATM   16  O   UNL     1      -7.280  10.016  71.177  1.00  0.00    -0.250 OA 
BRANCH  16  17
HETATM   17  C   UNL     1      -5.909  10.206  70.805  1.00  0.00    -0.094 C  
BRANCH  17  18
HETATM   18  C   UNL     1      -5.796  11.468  69.956  1.00  0.00    -0.134 C  
HETATM   19  O   UNL     1      -6.297  12.589  70.679  1.00  0.00    -0.510 OA 
HETATM   20  H   UNL     1      -6.227  13.375  70.150  1.00  0.00     0.000 HD 
ENDBRANCH  17  18
ENDBRANCH  16  17
ENDBRANCH  15  16
ENDBRANCH  11  15
TORSDOF 4
ENDMDL
MODEL      120
REMARK 921   NORMALIZED FREE ENERGY PREDICTED BY IDOCK:   -3.98 KCAL/MOL
REMARK 922        TOTAL FREE ENERGY PREDICTED BY IDOCK:   -5.13 KCAL/MOL
REMARK 923 INTER-LIGAND FREE ENERGY PREDICTED BY IDOCK:   -4.96 KCAL/MOL
REMARK 924 INTRA-LIGAND FREE ENERGY PREDICTED BY IDOCK:   -0.16 KCAL/MOL
REMARK 927      BINDING AFFINITY PREDICTED BY RF-SCORE:    0.00 PKD
ROOT
HETATM    1  N   UNL     1      -6.248  14.959  69.862  1.00  0.00    -0.138 NA 
HETATM    2  H2  UNL     1      -5.558  15.489  70.394  1.00  0.00     0.000 HD 
HETATM    3  H1  UNL     1      -6.201  13.940  69.843  1.00  0.00     0.000 HD 
HETATM    4  C   UNL     1      -7.224  15.612  69.185  1.00  0.00    -0.178 C  
HETATM    5  N   UNL     1      -7.285  16.909  69.209  1.00  0.00    -0.216 N  
HETATM    6  C   UNL     1      -8.318  17.576  68.536  1.00  0.00    -0.274 C  
HETATM    7  H   UNL     1      -6.580  17.443  69.719  1.00  0.00     0.000 HD 
HETATM    8  C   UNL     1      -9.304  16.702  67.883  1.00  0.00    -0.221 A  
HETATM    9  O   UNL     1      -8.395  18.799  68.497  1.00  0.00    -0.329 OA 
HETATM   10  C   UNL     1      -9.129  15.344  67.918  1.00  0.00    -0.178 A  
HETATM   11  N   UNL     1     -10.189  14.786  67.280  1.00  0.00    -0.240 NA 
HETATM   12  N   UNL     1      -8.082  14.763  68.526  1.00  0.00    -0.139 NA 
HETATM   13  C   UNL     1     -10.972  15.835  66.860  1.00  0.00    -0.207 A  
HETATM   14  N   UNL     1     -10.463  17.004  67.200  1.00  0.00    -0.313 NA 
ENDROOT
BRANCH  11  15
HETATM   15  C   UNL     1     -10.428  13.388  66.994  1.00  0.00    -0.257 C  
BRANCH  15  16
HETATM   16  O   UNL     1     -10.482  13.212  65.579  1.00  0.00    -0.278 OA 
BRANCH  16  17
HETATM   17  C   UNL     1     -11.755  12.692  65.177  1.00  0.00    -0.367 C  
BRANCH  17  18
HETATM   18  C   UNL     1     -11.806  12.629  63.654  1.00  0.00    -0.530 C  
HETATM   19  O   UNL     1     -12.405  13.814  63.136  1.00  0.00    -1.099 OA 
HETATM   20  H   UNL     1     -12.436  13.775  62.187  1.00  0.00     0.000 HD 
ENDBRANCH  17  18
ENDBRANCH  16  17
ENDBRANCH  15  16
ENDBRANCH  11  15
TORSDOF 4
ENDMDL
MODEL      121
REMARK 921   NORMALIZED FREE ENERGY PREDICTED BY IDOCK:   -3.96 KCAL/MOL
REMARK 922        TOTAL FREE ENERGY PREDICTED BY IDOCK:   -5.11 KCAL/MOL
REMARK 923 INTER-LIGAND FREE ENERGY PREDICTED BY IDOCK:   -5.05 KCAL/MOL
REMARK 924 INTRA-LIGAND FREE ENERGY PREDICTED BY IDOCK:   -0.06 KCAL/MOL
REMARK 927      BINDING AFFINITY PREDICTED BY RF-SCORE:    0.00 PKD
ROOT
HETATM    1  N   UNL     1     -11.108  14.600  69.283  1.00  0.00    -0.259 NA 
HETATM    2  H2  UNL     1     -11.275  15.604  69.355  1.00  0.00     0.000 HD 
HETATM    3  H1  UNL     1     -10.416  14.247  68.621  1.00  0.00     0.000 HD 
HETATM    4  C   UNL     1     -11.805  13.741  70.067  1.00  0.00    -0.307 C  
HETATM    5  N   UNL     1     -12.685  14.190  70.910  1.00  0.00    -0.348 N  
HETATM    6  C   UNL     1     -13.377  13.300  71.743  1.00  0.00    -0.393 C  
HETATM    7  H   UNL     1     -12.874  15.191  70.966  1.00  0.00     0.000 HD 
HETATM    8  C   UNL     1     -12.983  11.889  71.613  1.00  0.00    -0.342 A  
HETATM    9  O   UNL     1     -14.244  13.671  72.527  1.00  0.00    -0.724 OA 
HETATM   10  C   UNL     1     -12.045  11.535  70.680  1.00  0.00    -0.353 A  
HETATM   11  N   UNL     1     -11.848  10.197  70.798  1.00  0.00    -0.324 NA 
HETATM   12  N   UNL     1     -11.462  12.426  69.863  1.00  0.00    -0.166 NA 
HETATM   13  C   UNL     1     -12.692   9.777  71.799  1.00  0.00    -0.426 A  
HETATM   14  N   UNL     1     -13.396  10.771  72.306  1.00  0.00    -0.253 NA 
ENDROOT
BRANCH  11  15
HETATM   15  C   UNL     1     -11.005   9.341  69.991  1.00  0.00    -0.229 C  
BRANCH  15  16
HETATM   16  O   UNL     1     -10.627   8.206  70.768  1.00  0.00    -0.208 OA 
BRANCH  16  17
HETATM   17  C   UNL     1      -9.610   8.552  71.717  1.00  0.00    -0.267 C  
BRANCH  17  18
HETATM   18  C   UNL     1      -8.426   9.161  70.973  1.00  0.00    -0.165 C  
HETATM   19  O   UNL     1      -7.244   9.047  71.761  1.00  0.00    -0.286 OA 
HETATM   20  H   UNL     1      -6.506   9.427  71.297  1.00  0.00     0.000 HD 
ENDBRANCH  17  18
ENDBRANCH  16  17
ENDBRANCH  15  16
ENDBRANCH  11  15
TORSDOF 4
ENDMDL
MODEL      122
REMARK 921   NORMALIZED FREE ENERGY PREDICTED BY IDOCK:   -3.95 KCAL/MOL
REMARK 922        TOTAL FREE ENERGY PREDICTED BY IDOCK:   -5.09 KCAL/MOL
REMARK 923 INTER-LIGAND FREE ENERGY PREDICTED BY IDOCK:   -4.84 KCAL/MOL
REMARK 924 INTRA-LIGAND FREE ENERGY PREDICTED BY IDOCK:   -0.25 KCAL/MOL
REMARK 927      BINDING AFFINITY PREDICTED BY RF-SCORE:    0.00 PKD
ROOT
HETATM    1  N   UNL     1      -7.536   8.571  74.407  1.00  0.00    -0.368 NA 
HETATM    2  H2  UNL     1      -7.031   8.104  75.161  1.00  0.00     0.000 HD 
HETATM    3  H1  UNL     1      -7.165   9.432  74.004  1.00  0.00     0.000 HD 
HETATM    4  C   UNL     1      -8.698   8.045  73.946  1.00  0.00    -0.244 C  
HETATM    5  N   UNL     1      -9.171   6.949  74.458  1.00  0.00    -0.301 N  
HETATM    6  C   UNL     1     -10.353   6.392  73.952  1.00  0.00    -0.322 C  
HETATM    7  H   UNL     1      -8.682   6.494  75.230  1.00  0.00     0.000 HD 
HETATM    8  C   UNL     1     -10.939   7.104  72.807  1.00  0.00    -0.307 A  
HETATM    9  O   UNL     1     -10.860   5.381  74.428  1.00  0.00    -0.255 OA 
HETATM   10  C   UNL     1     -10.352   8.257  72.359  1.00  0.00    -0.332 A  
HETATM   11  N   UNL     1     -11.067   8.680  71.285  1.00  0.00    -0.255 NA 
HETATM   12  N   UNL     1      -9.254   8.780  72.926  1.00  0.00    -0.214 NA 
HETATM   13  C   UNL     1     -12.084   7.768  71.124  1.00  0.00    -0.286 A  
HETATM   14  N   UNL     1     -12.040   6.809  72.030  1.00  0.00    -0.319 NA 
ENDROOT
BRANCH  11  15
HETATM   15  C   UNL     1     -10.886   9.886  70.507  1.00  0.00    -0.326 C  
BRANCH  15  16
HETATM   16  O   UNL     1     -10.106   9.575  69.354  1.00  0.00    -0.179 OA 
BRANCH  16  17
HETATM   17  C   UNL     1     -10.810   9.915  68.153  1.00  0.00    -0.234 C  
BRANCH  17  18
HETATM   18  C   UNL     1     -11.638  11.172  68.404  1.00  0.00    -0.306 C  
HETATM   19  O   UNL     1     -12.054  11.738  67.164  1.00  0.00    -0.592 OA 
HETATM   20  H   UNL     1     -12.570  12.521  67.320  1.00  0.00     0.000 HD 
ENDBRANCH  17  18
ENDBRANCH  16  17
ENDBRANCH  15  16
ENDBRANCH  11  15
TORSDOF 4
ENDMDL
MODEL      123
REMARK 921   NORMALIZED FREE ENERGY PREDICTED BY IDOCK:   -3.94 KCAL/MOL
REMARK 922        TOTAL FREE ENERGY PREDICTED BY IDOCK:   -5.08 KCAL/MOL
REMARK 923 INTER-LIGAND FREE ENERGY PREDICTED BY IDOCK:   -4.61 KCAL/MOL
REMARK 924 INTRA-LIGAND FREE ENERGY PREDICTED BY IDOCK:   -0.47 KCAL/MOL
REMARK 927      BINDING AFFINITY PREDICTED BY RF-SCORE:    0.00 PKD
ROOT
HETATM    1  N   UNL     1     -11.557  11.837  70.140  1.00  0.00    -0.508 NA 
HETATM    2  H2  UNL     1     -12.113  12.635  70.450  1.00  0.00     0.000 HD 
HETATM    3  H1  UNL     1     -10.766  11.982  69.513  1.00  0.00     0.000 HD 
HETATM    4  C   UNL     1     -11.874  10.589  70.565  1.00  0.00    -0.347 C  
HETATM    5  N   UNL     1     -12.881  10.404  71.364  1.00  0.00    -0.414 N  
HETATM    6  C   UNL     1     -13.180   9.115  71.828  1.00  0.00    -0.396 C  
HETATM    7  H   UNL     1     -13.454  11.196  71.654  1.00  0.00     0.000 HD 
HETATM    8  C   UNL     1     -12.253   8.062  71.388  1.00  0.00    -0.309 A  
HETATM    9  O   UNL     1     -14.143   8.884  72.552  1.00  0.00    -0.472 OA 
HETATM   10  C   UNL     1     -11.229   8.379  70.536  1.00  0.00    -0.238 A  
HETATM   11  N   UNL     1     -10.517   7.242  70.325  1.00  0.00    -0.215 NA 
HETATM   12  N   UNL     1     -11.030   9.623  70.073  1.00  0.00    -0.247 NA 
HETATM   13  C   UNL     1     -11.148   6.260  71.050  1.00  0.00    -0.298 A  
HETATM   14  N   UNL     1     -12.203   6.719  71.697  1.00  0.00    -0.352 NA 
ENDROOT
BRANCH  11  15
HETATM   15  C   UNL     1      -9.384   7.046  69.447  1.00  0.00    -0.146 C  
BRANCH  15  16
HETATM   16  O   UNL     1      -8.254   7.718  70.001  1.00  0.00    -0.117 OA 
BRANCH  16  17
HETATM   17  C   UNL     1      -7.585   6.889  70.960  1.00  0.00    -0.087 C  
BRANCH  17  18
HETATM   18  C   UNL     1      -7.688   7.541  72.334  1.00  0.00    -0.094 C  
HETATM   19  O   UNL     1      -8.302   8.822  72.223  1.00  0.00    -0.367 OA 
HETATM   20  H   UNL     1      -8.366   9.228  73.080  1.00  0.00     0.000 HD 
ENDBRANCH  17  18
ENDBRANCH  16  17
ENDBRANCH  15  16
ENDBRANCH  11  15
TORSDOF 4
ENDMDL
MODEL      124
REMARK 921   NORMALIZED FREE ENERGY PREDICTED BY IDOCK:   -3.91 KCAL/MOL
REMARK 922        TOTAL FREE ENERGY PREDICTED BY IDOCK:   -5.04 KCAL/MOL
REMARK 923 INTER-LIGAND FREE ENERGY PREDICTED BY IDOCK:   -4.75 KCAL/MOL
REMARK 924 INTRA-LIGAND FREE ENERGY PREDICTED BY IDOCK:   -0.29 KCAL/MOL
REMARK 927      BINDING AFFINITY PREDICTED BY RF-SCORE:    0.00 PKD
ROOT
HETATM    1  N   UNL     1      -9.477  10.205  70.034  1.00  0.00    -0.401 NA 
HETATM    2  H2  UNL     1      -8.899   9.368  69.955  1.00  0.00     0.000 HD 
HETATM    3  H1  UNL     1      -9.635  10.628  70.949  1.00  0.00     0.000 HD 
HETATM    4  C   UNL     1     -10.031  10.749  68.923  1.00  0.00    -0.202 C  
HETATM    5  N   UNL     1      -9.830  10.211  67.758  1.00  0.00    -0.159 N  
HETATM    6  C   UNL     1     -10.376  10.800  66.609  1.00  0.00    -0.241 C  
HETATM    7  H   UNL     1      -9.274   9.359  67.679  1.00  0.00     0.000 HD 
HETATM    8  C   UNL     1     -11.111  12.053  66.839  1.00  0.00    -0.302 A  
HETATM    9  O   UNL     1     -10.246  10.309  65.493  1.00  0.00    -0.284 OA 
HETATM   10  C   UNL     1     -11.265  12.519  68.118  1.00  0.00    -0.267 A  
HETATM   11  N   UNL     1     -11.941  13.693  68.037  1.00  0.00    -0.366 NA 
HETATM   12  N   UNL     1     -10.772  11.876  69.188  1.00  0.00    -0.152 NA 
HETATM   13  C   UNL     1     -12.192  13.895  66.701  1.00  0.00    -0.424 A  
HETATM   14  N   UNL     1     -11.712  12.921  65.952  1.00  0.00    -0.377 NA 
ENDROOT
BRANCH  11  15
HETATM   15  C   UNL     1     -12.406  14.534  69.119  1.00  0.00    -0.117 C  
BRANCH  15  16
HETATM   16  O   UNL     1     -11.274  15.059  69.810  1.00  0.00    -0.252 OA 
BRANCH  16  17
HETATM   17  C   UNL     1     -11.544  15.187  71.212  1.00  0.00    -0.358 C  
BRANCH  17  18
HETATM   18  C   UNL     1     -12.689  14.249  71.582  1.00  0.00    -0.352 C  
HETATM   19  O   UNL     1     -12.960  14.337  72.978  1.00  0.00    -0.494 OA 
HETATM   20  H   UNL     1     -13.674  13.753  73.208  1.00  0.00     0.000 HD 
ENDBRANCH  17  18
ENDBRANCH  16  17
ENDBRANCH  15  16
ENDBRANCH  11  15
TORSDOF 4
ENDMDL
MODEL      125
REMARK 921   NORMALIZED FREE ENERGY PREDICTED BY IDOCK:   -3.90 KCAL/MOL
REMARK 922        TOTAL FREE ENERGY PREDICTED BY IDOCK:   -5.04 KCAL/MOL
REMARK 923 INTER-LIGAND FREE ENERGY PREDICTED BY IDOCK:   -4.78 KCAL/MOL
REMARK 924 INTRA-LIGAND FREE ENERGY PREDICTED BY IDOCK:   -0.26 KCAL/MOL
REMARK 927      BINDING AFFINITY PREDICTED BY RF-SCORE:    0.00 PKD
ROOT
HETATM    1  N   UNL     1     -12.459  14.293  67.236  1.00  0.00    -0.536 NA 
HETATM    2  H2  UNL     1     -12.708  15.116  66.686  1.00  0.00     0.000 HD 
HETATM    3  H1  UNL     1     -12.725  14.241  68.219  1.00  0.00     0.000 HD 
HETATM    4  C   UNL     1     -11.780  13.274  66.655  1.00  0.00    -0.377 C  
HETATM    5  N   UNL     1     -11.442  13.340  65.403  1.00  0.00    -0.300 N  
HETATM    6  C   UNL     1     -10.771  12.267  64.800  1.00  0.00    -0.300 C  
HETATM    7  H   UNL     1     -11.666  14.172  64.857  1.00  0.00     0.000 HD 
HETATM    8  C   UNL     1     -10.551  11.100  65.668  1.00  0.00    -0.223 A  
HETATM    9  O   UNL     1     -10.397  12.297  63.632  1.00  0.00    -0.412 OA 
HETATM   10  C   UNL     1     -10.946  11.152  66.978  1.00  0.00    -0.289 A  
HETATM   11  N   UNL     1     -10.660   9.945  67.531  1.00  0.00    -0.259 NA 
HETATM   12  N   UNL     1     -11.528  12.234  67.518  1.00  0.00    -0.324 NA 
HETATM   13  C   UNL     1     -10.082   9.199  66.531  1.00  0.00    -0.287 A  
HETATM   14  N   UNL     1      -9.995   9.868  65.397  1.00  0.00    -0.316 NA 
ENDROOT
BRANCH  11  15
HETATM   15  C   UNL     1     -10.825   9.529  68.906  1.00  0.00    -0.150 C  
BRANCH  15  16
HETATM   16  O   UNL     1     -10.583   8.125  68.992  1.00  0.00    -0.215 OA 
BRANCH  16  17
HETATM   17  C   UNL     1      -9.659   7.829  70.047  1.00  0.00    -0.161 C  
BRANCH  17  18
HETATM   18  C   UNL     1      -9.250   9.131  70.727  1.00  0.00    -0.262 C  
HETATM   19  O   UNL     1      -9.086   8.922  72.127  1.00  0.00    -0.375 OA 
HETATM   20  H   UNL     1      -8.831   9.733  72.550  1.00  0.00     0.000 HD 
ENDBRANCH  17  18
ENDBRANCH  16  17
ENDBRANCH  15  16
ENDBRANCH  11  15
TORSDOF 4
ENDMDL
MODEL      126
REMARK 921   NORMALIZED FREE ENERGY PREDICTED BY IDOCK:   -3.88 KCAL/MOL
REMARK 922        TOTAL FREE ENERGY PREDICTED BY IDOCK:   -5.01 KCAL/MOL
REMARK 923 INTER-LIGAND FREE ENERGY PREDICTED BY IDOCK:   -4.78 KCAL/MOL
REMARK 924 INTRA-LIGAND FREE ENERGY PREDICTED BY IDOCK:   -0.23 KCAL/MOL
REMARK 927      BINDING AFFINITY PREDICTED BY RF-SCORE:    0.00 PKD
ROOT
HETATM    1  N   UNL     1      -9.753   9.936  70.198  1.00  0.00    -0.350 NA 
HETATM    2  H2  UNL     1      -9.303   9.204  70.747  1.00  0.00     0.000 HD 
HETATM    3  H1  UNL     1     -10.166  10.742  70.669  1.00  0.00     0.000 HD 
HETATM    4  C   UNL     1      -9.801   9.835  68.847  1.00  0.00    -0.173 C  
HETATM    5  N   UNL     1      -9.276   8.809  68.247  1.00  0.00    -0.140 N  
HETATM    6  C   UNL     1      -9.297   8.729  66.848  1.00  0.00    -0.167 C  
HETATM    7  H   UNL     1      -8.848   8.062  68.795  1.00  0.00     0.000 HD 
HETATM    8  C   UNL     1      -9.890   9.888  66.164  1.00  0.00    -0.260 A  
HETATM    9  O   UNL     1      -8.849   7.763  66.238  1.00  0.00    -0.146 OA 
HETATM   10  C   UNL     1     -10.420  10.909  66.907  1.00  0.00    -0.249 A  
HETATM   11  N   UNL     1     -10.860  11.852  66.035  1.00  0.00    -0.288 NA 
HETATM   12  N   UNL     1     -10.429  10.901  68.249  1.00  0.00    -0.170 NA 
HETATM   13  C   UNL     1     -10.594  11.360  64.779  1.00  0.00    -0.316 A  
HETATM   14  N   UNL     1     -10.016  10.174  64.821  1.00  0.00    -0.321 NA 
ENDROOT
BRANCH  11  15
HETATM   15  C   UNL     1     -11.559  13.084  66.326  1.00  0.00    -0.360 C  
BRANCH  15  16
HETATM   16  O   UNL     1     -12.619  13.245  65.385  1.00  0.00    -0.478 OA 
BRANCH  16  17
HETATM   17  C   UNL     1     -12.461  14.458  64.639  1.00  0.00    -0.345 C  
BRANCH  17  18
HETATM   18  C   UNL     1     -11.502  15.378  65.387  1.00  0.00    -0.115 C  
HETATM   19  O   UNL     1     -11.010  16.388  64.510  1.00  0.00    -0.901 OA 
HETATM   20  H   UNL     1     -10.413  16.961  64.977  1.00  0.00     0.000 HD 
ENDBRANCH  17  18
ENDBRANCH  16  17
ENDBRANCH  15  16
ENDBRANCH  11  15
TORSDOF 4
ENDMDL
MODEL      127
REMARK 921   NORMALIZED FREE ENERGY PREDICTED BY IDOCK:   -3.87 KCAL/MOL
REMARK 922        TOTAL FREE ENERGY PREDICTED BY IDOCK:   -5.00 KCAL/MOL
REMARK 923 INTER-LIGAND FREE ENERGY PREDICTED BY IDOCK:   -4.72 KCAL/MOL
REMARK 924 INTRA-LIGAND FREE ENERGY PREDICTED BY IDOCK:   -0.28 KCAL/MOL
REMARK 927      BINDING AFFINITY PREDICTED BY RF-SCORE:    0.00 PKD
ROOT
HETATM    1  N   UNL     1     -13.531  12.234  72.242  1.00  0.00    -0.564 NA 
HETATM    2  H2  UNL     1     -13.751  13.213  72.057  1.00  0.00     0.000 HD 
HETATM    3  H1  UNL     1     -13.944  11.764  73.048  1.00  0.00     0.000 HD 
HETATM    4  C   UNL     1     -12.693  11.562  71.414  1.00  0.00    -0.364 C  
HETATM    5  N   UNL     1     -12.168  12.159  70.387  1.00  0.00    -0.330 N  
HETATM    6  C   UNL     1     -11.331  11.449  69.515  1.00  0.00    -0.289 C  
HETATM    7  H   UNL     1     -12.364  13.145  70.215  1.00  0.00     0.000 HD 
HETATM    8  C   UNL     1     -11.164  10.023  69.833  1.00  0.00    -0.275 A  
HETATM    9  O   UNL     1     -10.781  11.978  68.555  1.00  0.00    -0.217 OA 
HETATM   10  C   UNL     1     -11.763   9.508  70.951  1.00  0.00    -0.317 A  
HETATM   11  N   UNL     1     -11.478   8.181  70.983  1.00  0.00    -0.277 NA 
HETATM   12  N   UNL     1     -12.503  10.253  71.787  1.00  0.00    -0.382 NA 
HETATM   13  C   UNL     1     -10.694   7.935  69.880  1.00  0.00    -0.244 A  
HETATM   14  N   UNL     1     -10.480   9.026  69.169  1.00  0.00    -0.226 NA 
ENDROOT
BRANCH  11  15
HETATM   15  C   UNL     1     -11.826   7.214  72.001  1.00  0.00    -0.295 C  
BRANCH  15  16
HETATM   16  O   UNL     1     -11.104   7.523  73.193  1.00  0.00    -0.383 OA 
BRANCH  16  17
HETATM   17  C   UNL     1     -10.459   6.356  73.717  1.00  0.00    -0.303 C  
BRANCH  17  18
HETATM   18  C   UNL     1      -9.072   6.234  73.094  1.00  0.00    -0.129 C  
HETATM   19  O   UNL     1      -8.865   4.908  72.617  1.00  0.00    -0.121 OA 
HETATM   20  H   UNL     1      -8.001   4.832  72.228  1.00  0.00     0.000 HD 
ENDBRANCH  17  18
ENDBRANCH  16  17
ENDBRANCH  15  16
ENDBRANCH  11  15
TORSDOF 4
ENDMDL
MODEL      128
REMARK 921   NORMALIZED FREE ENERGY PREDICTED BY IDOCK:   -3.86 KCAL/MOL
REMARK 922        TOTAL FREE ENERGY PREDICTED BY IDOCK:   -4.99 KCAL/MOL
REMARK 923 INTER-LIGAND FREE ENERGY PREDICTED BY IDOCK:   -4.74 KCAL/MOL
REMARK 924 INTRA-LIGAND FREE ENERGY PREDICTED BY IDOCK:   -0.25 KCAL/MOL
REMARK 927      BINDING AFFINITY PREDICTED BY RF-SCORE:    0.00 PKD
ROOT
HETATM    1  N   UNL     1     -12.783  14.324  72.265  1.00  0.00    -0.319 NA 
HETATM    2  H2  UNL     1     -12.973  15.183  72.782  1.00  0.00     0.000 HD 
HETATM    3  H1  UNL     1     -12.959  13.419  72.702  1.00  0.00     0.000 HD 
HETATM    4  C   UNL     1     -12.298  14.391  71.001  1.00  0.00    -0.357 C  
HETATM    5  N   UNL     1     -12.074  15.543  70.444  1.00  0.00    -0.366 N  
HETATM    6  C   UNL     1     -11.607  15.605  69.124  1.00  0.00    -0.383 C  
HETATM    7  H   UNL     1     -12.238  16.403  70.968  1.00  0.00     0.000 HD 
HETATM    8  C   UNL     1     -11.460  14.305  68.452  1.00  0.00    -0.301 A  
HETATM    9  O   UNL     1     -11.344  16.666  68.568  1.00  0.00    -0.317 OA 
HETATM   10  C   UNL     1     -11.719  13.154  69.147  1.00  0.00    -0.325 A  
HETATM   11  N   UNL     1     -11.542  12.118  68.287  1.00  0.00    -0.305 NA 
HETATM   12  N   UNL     1     -12.103  13.154  70.433  1.00  0.00    -0.350 NA 
HETATM   13  C   UNL     1     -11.162  12.679  67.091  1.00  0.00    -0.300 A  
HETATM   14  N   UNL     1     -11.095  13.996  67.158  1.00  0.00    -0.296 NA 
ENDROOT
BRANCH  11  15
HETATM   15  C   UNL     1     -11.629  10.701  68.563  1.00  0.00    -0.207 C  
BRANCH  15  16
HETATM   16  O   UNL     1     -11.155   9.982  67.425  1.00  0.00    -0.257 OA 
BRANCH  16  17
HETATM   17  C   UNL     1     -10.311   8.895  67.823  1.00  0.00    -0.242 C  
BRANCH  17  18
HETATM   18  C   UNL     1     -10.595   8.556  69.283  1.00  0.00    -0.181 C  
HETATM   19  O   UNL     1     -10.740   7.146  69.438  1.00  0.00    -0.231 OA 
HETATM   20  H   UNL     1     -10.916   6.935  70.348  1.00  0.00     0.000 HD 
ENDBRANCH  17  18
ENDBRANCH  16  17
ENDBRANCH  15  16
ENDBRANCH  11  15
TORSDOF 4
ENDMDL
MODEL      129
REMARK 921   NORMALIZED FREE ENERGY PREDICTED BY IDOCK:   -3.86 KCAL/MOL
REMARK 922        TOTAL FREE ENERGY PREDICTED BY IDOCK:   -4.99 KCAL/MOL
REMARK 923 INTER-LIGAND FREE ENERGY PREDICTED BY IDOCK:   -4.81 KCAL/MOL
REMARK 924 INTRA-LIGAND FREE ENERGY PREDICTED BY IDOCK:   -0.17 KCAL/MOL
REMARK 927      BINDING AFFINITY PREDICTED BY RF-SCORE:    0.00 PKD
ROOT
HETATM    1  N   UNL     1     -10.020   7.399  71.704  1.00  0.00    -0.176 NA 
HETATM    2  H2  UNL     1      -9.394   6.615  71.517  1.00  0.00     0.000 HD 
HETATM    3  H1  UNL     1     -10.473   7.482  72.614  1.00  0.00     0.000 HD 
HETATM    4  C   UNL     1     -10.244   8.327  70.741  1.00  0.00    -0.192 C  
HETATM    5  N   UNL     1      -9.666   8.223  69.582  1.00  0.00    -0.172 N  
HETATM    6  C   UNL     1      -9.874   9.206  68.604  1.00  0.00    -0.164 C  
HETATM    7  H   UNL     1      -9.061   7.426  69.384  1.00  0.00     0.000 HD 
HETATM    8  C   UNL     1     -10.721  10.333  69.021  1.00  0.00    -0.227 A  
HETATM    9  O   UNL     1      -9.383   9.132  67.482  1.00  0.00    -0.133 OA 
HETATM   10  C   UNL     1     -11.282  10.328  70.270  1.00  0.00    -0.323 A  
HETATM   11  N   UNL     1     -11.974  11.488  70.404  1.00  0.00    -0.367 NA 
HETATM   12  N   UNL     1     -11.099   9.325  71.144  1.00  0.00    -0.310 NA 
HETATM   13  C   UNL     1     -11.821  12.159  69.213  1.00  0.00    -0.313 A  
HETATM   14  N   UNL     1     -11.077  11.487  68.356  1.00  0.00    -0.215 NA 
ENDROOT
BRANCH  11  15
HETATM   15  C   UNL     1     -12.795  11.919  71.514  1.00  0.00    -0.316 C  
BRANCH  15  16
HETATM   16  O   UNL     1     -13.407  13.162  71.177  1.00  0.00    -0.123 OA 
BRANCH  16  17
HETATM   17  C   UNL     1     -14.019  13.760  72.327  1.00  0.00    -0.573 C  
BRANCH  17  18
HETATM   18  C   UNL     1     -12.998  14.656  73.021  1.00  0.00    -0.510 C  
HETATM   19  O   UNL     1     -13.595  15.905  73.360  1.00  0.00    -0.696 OA 
HETATM   20  H   UNL     1     -12.959  16.463  73.793  1.00  0.00     0.000 HD 
ENDBRANCH  17  18
ENDBRANCH  16  17
ENDBRANCH  15  16
ENDBRANCH  11  15
TORSDOF 4
ENDMDL
MODEL      130
REMARK 921   NORMALIZED FREE ENERGY PREDICTED BY IDOCK:   -3.86 KCAL/MOL
REMARK 922        TOTAL FREE ENERGY PREDICTED BY IDOCK:   -4.98 KCAL/MOL
REMARK 923 INTER-LIGAND FREE ENERGY PREDICTED BY IDOCK:   -4.78 KCAL/MOL
REMARK 924 INTRA-LIGAND FREE ENERGY PREDICTED BY IDOCK:   -0.20 KCAL/MOL
REMARK 927      BINDING AFFINITY PREDICTED BY RF-SCORE:    0.00 PKD
ROOT
HETATM    1  N   UNL     1     -10.093  11.891  65.463  1.00  0.00    -0.239 NA 
HETATM    2  H2  UNL     1     -10.333  10.977  65.077  1.00  0.00     0.000 HD 
HETATM    3  H1  UNL     1      -9.475  12.515  64.944  1.00  0.00     0.000 HD 
HETATM    4  C   UNL     1     -10.597  12.270  66.663  1.00  0.00    -0.229 C  
HETATM    5  N   UNL     1     -11.383  11.476  67.325  1.00  0.00    -0.299 N  
HETATM    6  C   UNL     1     -11.929  11.890  68.548  1.00  0.00    -0.212 C  
HETATM    7  H   UNL     1     -11.604  10.552  66.955  1.00  0.00     0.000 HD 
HETATM    8  C   UNL     1     -11.585  13.260  68.955  1.00  0.00    -0.314 A  
HETATM    9  O   UNL     1     -12.646  11.162  69.228  1.00  0.00    -0.336 OA 
HETATM   10  C   UNL     1     -10.736  14.001  68.176  1.00  0.00    -0.246 A  
HETATM   11  N   UNL     1     -10.622  15.222  68.757  1.00  0.00    -0.233 NA 
HETATM   12  N   UNL     1     -10.192  13.527  67.044  1.00  0.00    -0.247 NA 
HETATM   13  C   UNL     1     -11.400  15.177  69.890  1.00  0.00    -0.284 A  
HETATM   14  N   UNL     1     -11.988  14.006  70.042  1.00  0.00    -0.318 NA 
ENDROOT
BRANCH  11  15
HETATM   15  C   UNL     1      -9.786  16.332  68.352  1.00  0.00    -0.229 C  
BRANCH  15  16
HETATM   16  O   UNL     1     -10.360  16.939  67.196  1.00  0.00    -0.299 OA 
BRANCH  16  17
HETATM   17  C   UNL     1     -10.479  18.357  67.369  1.00  0.00    -0.415 C  
BRANCH  17  18
HETATM   18  C   UNL     1      -9.429  19.050  66.507  1.00  0.00    -0.345 C  
HETATM   19  O   UNL     1     -10.025  20.122  65.780  1.00  0.00    -0.540 OA 
HETATM   20  H   UNL     1      -9.370  20.554  65.242  1.00  0.00     0.000 HD 
ENDBRANCH  17  18
ENDBRANCH  16  17
ENDBRANCH  15  16
ENDBRANCH  11  15
TORSDOF 4
ENDMDL
MODEL      131
REMARK 921   NORMALIZED FREE ENERGY PREDICTED BY IDOCK:   -3.83 KCAL/MOL
REMARK 922        TOTAL FREE ENERGY PREDICTED BY IDOCK:   -4.95 KCAL/MOL
REMARK 923 INTER-LIGAND FREE ENERGY PREDICTED BY IDOCK:   -4.71 KCAL/MOL
REMARK 924 INTRA-LIGAND FREE ENERGY PREDICTED BY IDOCK:   -0.24 KCAL/MOL
REMARK 927      BINDING AFFINITY PREDICTED BY RF-SCORE:    0.00 PKD
ROOT
HETATM    1  N   UNL     1     -10.762  11.195  62.827  1.00  0.00    -0.718 NA 
HETATM    2  H2  UNL     1     -10.834  10.521  62.064  1.00  0.00     0.000 HD 
HETATM    3  H1  UNL     1     -11.128  12.139  62.706  1.00  0.00     0.000 HD 
HETATM    4  C   UNL     1     -10.179  10.830  63.996  1.00  0.00    -0.322 C  
HETATM    5  N   UNL     1      -9.714   9.628  64.150  1.00  0.00    -0.413 N  
HETATM    6  C   UNL     1      -9.145   9.247  65.374  1.00  0.00    -0.222 C  
HETATM    7  H   UNL     1      -9.761   8.960  63.380  1.00  0.00     0.000 HD 
HETATM    8  C   UNL     1      -9.182  10.274  66.425  1.00  0.00    -0.158 A  
HETATM    9  O   UNL     1      -8.657   8.136  65.555  1.00  0.00    -0.158 OA 
HETATM   10  C   UNL     1      -9.692  11.513  66.140  1.00  0.00    -0.223 A  
HETATM   11  N   UNL     1      -9.638  12.241  67.284  1.00  0.00    -0.184 NA 
HETATM   12  N   UNL     1     -10.165  11.840  64.928  1.00  0.00    -0.263 NA 
HETATM   13  C   UNL     1      -9.076  11.418  68.232  1.00  0.00    -0.179 A  
HETATM   14  N   UNL     1      -8.782  10.228  67.744  1.00  0.00    -0.122 NA 
ENDROOT
BRANCH  11  15
HETATM   15  C   UNL     1      -9.996  13.629  67.480  1.00  0.00    -0.230 C  
BRANCH  15  16
HETATM   16  O   UNL     1     -11.411  13.760  67.357  1.00  0.00    -0.311 OA 
BRANCH  16  17
HETATM   17  C   UNL     1     -12.055  13.553  68.620  1.00  0.00    -0.268 C  
BRANCH  17  18
HETATM   18  C   UNL     1     -11.701  14.707  69.551  1.00  0.00    -0.324 C  
HETATM   19  O   UNL     1     -12.832  15.556  69.729  1.00  0.00    -0.616 OA 
HETATM   20  H   UNL     1     -12.611  16.275  70.310  1.00  0.00     0.000 HD 
ENDBRANCH  17  18
ENDBRANCH  16  17
ENDBRANCH  15  16
ENDBRANCH  11  15
TORSDOF 4
ENDMDL
MODEL      132
REMARK 921   NORMALIZED FREE ENERGY PREDICTED BY IDOCK:   -3.83 KCAL/MOL
REMARK 922        TOTAL FREE ENERGY PREDICTED BY IDOCK:   -4.95 KCAL/MOL
REMARK 923 INTER-LIGAND FREE ENERGY PREDICTED BY IDOCK:   -4.74 KCAL/MOL
REMARK 924 INTRA-LIGAND FREE ENERGY PREDICTED BY IDOCK:   -0.21 KCAL/MOL
REMARK 927      BINDING AFFINITY PREDICTED BY RF-SCORE:    0.00 PKD
ROOT
HETATM    1  N   UNL     1      -6.617  14.267  69.973  1.00  0.00    -0.299 NA 
HETATM    2  H2  UNL     1      -5.627  14.304  70.216  1.00  0.00     0.000 HD 
HETATM    3  H1  UNL     1      -7.149  13.413  70.139  1.00  0.00     0.000 HD 
HETATM    4  C   UNL     1      -7.220  15.355  69.432  1.00  0.00    -0.203 C  
HETATM    5  N   UNL     1      -6.544  16.443  69.221  1.00  0.00    -0.195 N  
HETATM    6  C   UNL     1      -7.182  17.575  68.695  1.00  0.00    -0.246 C  
HETATM    7  H   UNL     1      -5.548  16.475  69.438  1.00  0.00     0.000 HD 
HETATM    8  C   UNL     1      -8.629  17.429  68.472  1.00  0.00    -0.270 A  
HETATM    9  O   UNL     1      -6.579  18.612  68.442  1.00  0.00    -0.221 OA 
HETATM   10  C   UNL     1      -9.231  16.225  68.725  1.00  0.00    -0.240 A  
HETATM   11  N   UNL     1     -10.556  16.380  68.473  1.00  0.00    -0.286 NA 
HETATM   12  N   UNL     1      -8.554  15.155  69.169  1.00  0.00    -0.214 NA 
HETATM   13  C   UNL     1     -10.713  17.681  68.056  1.00  0.00    -0.328 A  
HETATM   14  N   UNL     1      -9.569  18.338  68.037  1.00  0.00    -0.293 NA 
ENDROOT
BRANCH  11  15
HETATM   15  C   UNL     1     -11.600  15.379  68.525  1.00  0.00    -0.359 C  
BRANCH  15  16
HETATM   16  O   UNL     1     -11.712  14.904  69.866  1.00  0.00    -0.269 OA 
BRANCH  16  17
HETATM   17  C   UNL     1     -12.618  15.716  70.622  1.00  0.00    -0.414 C  
BRANCH  17  18
HETATM   18  C   UNL     1     -12.333  15.526  72.108  1.00  0.00    -0.393 C  
HETATM   19  O   UNL     1     -11.852  16.742  72.673  1.00  0.00    -0.510 OA 
HETATM   20  H   UNL     1     -11.674  16.623  73.599  1.00  0.00     0.000 HD 
ENDBRANCH  17  18
ENDBRANCH  16  17
ENDBRANCH  15  16
ENDBRANCH  11  15
TORSDOF 4
ENDMDL
MODEL      133
REMARK 921   NORMALIZED FREE ENERGY PREDICTED BY IDOCK:   -3.80 KCAL/MOL
REMARK 922        TOTAL FREE ENERGY PREDICTED BY IDOCK:   -4.91 KCAL/MOL
REMARK 923 INTER-LIGAND FREE ENERGY PREDICTED BY IDOCK:   -4.69 KCAL/MOL
REMARK 924 INTRA-LIGAND FREE ENERGY PREDICTED BY IDOCK:   -0.22 KCAL/MOL
REMARK 927      BINDING AFFINITY PREDICTED BY RF-SCORE:    0.00 PKD
ROOT
HETATM    1  N   UNL     1      -7.672  11.346  68.533  1.00  0.00    -0.126 NA 
HETATM    2  H2  UNL     1      -7.572  10.464  69.038  1.00  0.00     0.000 HD 
HETATM    3  H1  UNL     1      -6.842  11.884  68.283  1.00  0.00     0.000 HD 
HETATM    4  C   UNL     1      -8.906  11.795  68.199  1.00  0.00    -0.169 C  
HETATM    5  N   UNL     1      -9.963  11.110  68.517  1.00  0.00    -0.193 N  
HETATM    6  C   UNL     1     -11.234  11.562  68.136  1.00  0.00    -0.271 C  
HETATM    7  H   UNL     1      -9.868  10.242  69.044  1.00  0.00     0.000 HD 
HETATM    8  C   UNL     1     -11.243  12.795  67.334  1.00  0.00    -0.294 A  
HETATM    9  O   UNL     1     -12.263  10.971  68.446  1.00  0.00    -0.586 OA 
HETATM   10  C   UNL     1     -10.062  13.435  67.068  1.00  0.00    -0.247 A  
HETATM   11  N   UNL     1     -10.354  14.508  66.290  1.00  0.00    -0.285 NA 
HETATM   12  N   UNL     1      -8.878  12.987  67.515  1.00  0.00    -0.184 NA 
HETATM   13  C   UNL     1     -11.718  14.493  66.120  1.00  0.00    -0.350 A  
HETATM   14  N   UNL     1     -12.286  13.477  66.743  1.00  0.00    -0.374 NA 
ENDROOT
BRANCH  11  15
HETATM   15  C   UNL     1      -9.456  15.532  65.804  1.00  0.00    -0.299 C  
BRANCH  15  16
HETATM   16  O   UNL     1      -8.913  16.234  66.922  1.00  0.00    -0.195 OA 
BRANCH  16  17
HETATM   17  C   UNL     1      -8.956  17.650  66.705  1.00  0.00    -0.257 C  
BRANCH  17  18
HETATM   18  C   UNL     1     -10.385  18.055  66.358  1.00  0.00    -0.379 C  
HETATM   19  O   UNL     1     -10.824  19.093  67.230  1.00  0.00    -0.476 OA 
HETATM   20  H   UNL     1     -11.715  19.346  67.013  1.00  0.00     0.000 HD 
ENDBRANCH  17  18
ENDBRANCH  16  17
ENDBRANCH  15  16
ENDBRANCH  11  15
TORSDOF 4
ENDMDL
MODEL      134
REMARK 921   NORMALIZED FREE ENERGY PREDICTED BY IDOCK:   -3.80 KCAL/MOL
REMARK 922        TOTAL FREE ENERGY PREDICTED BY IDOCK:   -4.91 KCAL/MOL
REMARK 923 INTER-LIGAND FREE ENERGY PREDICTED BY IDOCK:   -4.67 KCAL/MOL
REMARK 924 INTRA-LIGAND FREE ENERGY PREDICTED BY IDOCK:   -0.24 KCAL/MOL
REMARK 927      BINDING AFFINITY PREDICTED BY RF-SCORE:    0.00 PKD
ROOT
HETATM    1  N   UNL     1     -10.728   9.039  71.785  1.00  0.00    -0.361 NA 
HETATM    2  H2  UNL     1     -11.163   9.408  72.631  1.00  0.00     0.000 HD 
HETATM    3  H1  UNL     1     -10.224   8.153  71.819  1.00  0.00     0.000 HD 
HETATM    4  C   UNL     1     -10.825   9.728  70.621  1.00  0.00    -0.329 C  
HETATM    5  N   UNL     1     -11.467  10.856  70.577  1.00  0.00    -0.433 N  
HETATM    6  C   UNL     1     -11.594  11.545  69.363  1.00  0.00    -0.321 C  
HETATM    7  H   UNL     1     -11.880  11.241  71.427  1.00  0.00     0.000 HD 
HETATM    8  C   UNL     1     -11.006  10.868  68.197  1.00  0.00    -0.249 A  
HETATM    9  O   UNL     1     -12.157  12.631  69.278  1.00  0.00    -0.259 OA 
HETATM   10  C   UNL     1     -10.344   9.681  68.369  1.00  0.00    -0.204 A  
HETATM   11  N   UNL     1      -9.941   9.265  67.142  1.00  0.00    -0.200 NA 
HETATM   12  N   UNL     1     -10.200   9.100  69.570  1.00  0.00    -0.196 NA 
HETATM   13  C   UNL     1     -10.363  10.230  66.258  1.00  0.00    -0.186 A  
HETATM   14  N   UNL     1     -11.001  11.214  66.862  1.00  0.00    -0.285 NA 
ENDROOT
BRANCH  11  15
HETATM   15  C   UNL     1      -9.146   8.104  66.806  1.00  0.00    -0.157 C  
BRANCH  15  16
HETATM   16  O   UNL     1      -9.951   7.199  66.053  1.00  0.00     0.137 OA 
BRANCH  16  17
HETATM   17  C   UNL     1     -10.366   6.090  66.860  1.00  0.00    -0.244 C  
BRANCH  17  18
HETATM   18  C   UNL     1     -10.345   4.824  66.010  1.00  0.00    -0.293 C  
HETATM   19  O   UNL     1     -11.575   4.691  65.302  1.00  0.00    -1.093 OA 
HETATM   20  H   UNL     1     -11.562   3.902  64.773  1.00  0.00     0.000 HD 
ENDBRANCH  17  18
ENDBRANCH  16  17
ENDBRANCH  15  16
ENDBRANCH  11  15
TORSDOF 4
ENDMDL
MODEL      135
REMARK 921   NORMALIZED FREE ENERGY PREDICTED BY IDOCK:   -3.78 KCAL/MOL
REMARK 922        TOTAL FREE ENERGY PREDICTED BY IDOCK:   -4.89 KCAL/MOL
REMARK 923 INTER-LIGAND FREE ENERGY PREDICTED BY IDOCK:   -4.72 KCAL/MOL
REMARK 924 INTRA-LIGAND FREE ENERGY PREDICTED BY IDOCK:   -0.17 KCAL/MOL
REMARK 927      BINDING AFFINITY PREDICTED BY RF-SCORE:    0.00 PKD
ROOT
HETATM    1  N   UNL     1      -8.500  11.714  66.138  1.00  0.00    -0.367 NA 
HETATM    2  H2  UNL     1      -7.896  11.125  65.564  1.00  0.00     0.000 HD 
HETATM    3  H1  UNL     1      -8.598  12.705  65.920  1.00  0.00     0.000 HD 
HETATM    4  C   UNL     1      -9.170  11.174  67.186  1.00  0.00    -0.158 C  
HETATM    5  N   UNL     1      -9.046   9.911  67.464  1.00  0.00    -0.134 N  
HETATM    6  C   UNL     1      -9.770   9.353  68.527  1.00  0.00    -0.149 C  
HETATM    7  H   UNL     1      -8.423   9.326  66.909  1.00  0.00     0.000 HD 
HETATM    8  C   UNL     1     -10.677  10.280  69.221  1.00  0.00    -0.234 A  
HETATM    9  O   UNL     1      -9.657   8.175  68.853  1.00  0.00    -0.151 OA 
HETATM   10  C   UNL     1     -10.715  11.595  68.842  1.00  0.00    -0.207 A  
HETATM   11  N   UNL     1     -11.650  12.207  69.612  1.00  0.00    -0.303 NA 
HETATM   12  N   UNL     1      -9.949  12.088  67.855  1.00  0.00    -0.192 NA 
HETATM   13  C   UNL     1     -12.143  11.237  70.452  1.00  0.00    -0.384 A  
HETATM   14  N   UNL     1     -11.572  10.065  70.248  1.00  0.00    -0.275 NA 
ENDROOT
BRANCH  11  15
HETATM   15  C   UNL     1     -12.010  13.608  69.640  1.00  0.00    -0.343 C  
BRANCH  15  16
HETATM   16  O   UNL     1     -12.708  13.878  70.854  1.00  0.00    -0.333 OA 
BRANCH  16  17
HETATM   17  C   UNL     1     -13.065  15.263  70.941  1.00  0.00    -0.464 C  
BRANCH  17  18
HETATM   18  C   UNL     1     -12.948  15.714  72.393  1.00  0.00    -0.448 C  
HETATM   19  O   UNL     1     -13.279  14.638  73.267  1.00  0.00    -0.576 OA 
HETATM   20  H   UNL     1     -13.206  14.919  74.172  1.00  0.00     0.000 HD 
ENDBRANCH  17  18
ENDBRANCH  16  17
ENDBRANCH  15  16
ENDBRANCH  11  15
TORSDOF 4
ENDMDL
MODEL      136
REMARK 921   NORMALIZED FREE ENERGY PREDICTED BY IDOCK:   -3.78 KCAL/MOL
REMARK 922        TOTAL FREE ENERGY PREDICTED BY IDOCK:   -4.89 KCAL/MOL
REMARK 923 INTER-LIGAND FREE ENERGY PREDICTED BY IDOCK:   -4.86 KCAL/MOL
REMARK 924 INTRA-LIGAND FREE ENERGY PREDICTED BY IDOCK:   -0.03 KCAL/MOL
REMARK 927      BINDING AFFINITY PREDICTED BY RF-SCORE:    0.00 PKD
ROOT
HETATM    1  N   UNL     1     -13.110   9.122  72.713  1.00  0.00    -0.585 NA 
HETATM    2  H2  UNL     1     -13.718   9.075  73.531  1.00  0.00     0.000 HD 
HETATM    3  H1  UNL     1     -12.650   8.278  72.373  1.00  0.00     0.000 HD 
HETATM    4  C   UNL     1     -12.917  10.308  72.083  1.00  0.00    -0.311 C  
HETATM    5  N   UNL     1     -13.502  11.383  72.516  1.00  0.00    -0.282 N  
HETATM    6  C   UNL     1     -13.327  12.598  71.839  1.00  0.00    -0.387 C  
HETATM    7  H   UNL     1     -14.090  11.344  73.349  1.00  0.00     0.000 HD 
HETATM    8  C   UNL     1     -12.504  12.522  70.623  1.00  0.00    -0.238 A  
HETATM    9  O   UNL     1     -13.827  13.648  72.230  1.00  0.00    -0.515 OA 
HETATM   10  C   UNL     1     -11.930  11.329  70.271  1.00  0.00    -0.379 A  
HETATM   11  N   UNL     1     -11.265  11.532  69.105  1.00  0.00    -0.254 NA 
HETATM   12  N   UNL     1     -12.082  10.210  70.996  1.00  0.00    -0.345 NA 
HETATM   13  C   UNL     1     -11.446  12.859  68.793  1.00  0.00    -0.303 A  
HETATM   14  N   UNL     1     -12.181  13.486  69.691  1.00  0.00    -0.285 NA 
ENDROOT
BRANCH  11  15
HETATM   15  C   UNL     1     -10.444  10.597  68.368  1.00  0.00    -0.188 C  
BRANCH  15  16
HETATM   16  O   UNL     1      -9.201  10.441  69.050  1.00  0.00    -0.169 OA 
BRANCH  16  17
HETATM   17  C   UNL     1      -8.133  11.048  68.312  1.00  0.00    -0.128 C  
BRANCH  17  18
HETATM   18  C   UNL     1      -8.706  11.700  67.058  1.00  0.00    -0.173 C  
HETATM   19  O   UNL     1      -7.684  12.415  66.369  1.00  0.00    -0.316 OA 
HETATM   20  H   UNL     1      -8.041  12.822  65.588  1.00  0.00     0.000 HD 
ENDBRANCH  17  18
ENDBRANCH  16  17
ENDBRANCH  15  16
ENDBRANCH  11  15
TORSDOF 4
ENDMDL
MODEL      137
REMARK 921   NORMALIZED FREE ENERGY PREDICTED BY IDOCK:   -3.78 KCAL/MOL
REMARK 922        TOTAL FREE ENERGY PREDICTED BY IDOCK:   -4.89 KCAL/MOL
REMARK 923 INTER-LIGAND FREE ENERGY PREDICTED BY IDOCK:   -4.67 KCAL/MOL
REMARK 924 INTRA-LIGAND FREE ENERGY PREDICTED BY IDOCK:   -0.22 KCAL/MOL
REMARK 927      BINDING AFFINITY PREDICTED BY RF-SCORE:    0.00 PKD
ROOT
HETATM    1  N   UNL     1     -12.880  10.640  71.589  1.00  0.00    -0.448 NA 
HETATM    2  H2  UNL     1     -12.842  10.030  72.407  1.00  0.00     0.000 HD 
HETATM    3  H1  UNL     1     -13.421  11.504  71.625  1.00  0.00     0.000 HD 
HETATM    4  C   UNL     1     -12.210  10.298  70.461  1.00  0.00    -0.301 C  
HETATM    5  N   UNL     1     -11.520   9.199  70.416  1.00  0.00    -0.385 N  
HETATM    6  C   UNL     1     -10.801   8.870  69.258  1.00  0.00    -0.096 C  
HETATM    7  H   UNL     1     -11.502   8.574  71.222  1.00  0.00     0.000 HD 
HETATM    8  C   UNL     1     -10.857   9.870  68.182  1.00  0.00    -0.234 A  
HETATM    9  O   UNL     1     -10.167   7.825  69.153  1.00  0.00    -0.198 OA 
HETATM   10  C   UNL     1     -11.628  10.991  68.344  1.00  0.00    -0.302 A  
HETATM   11  N   UNL     1     -11.470  11.750  67.230  1.00  0.00    -0.449 NA 
HETATM   12  N   UNL     1     -12.348  11.222  69.453  1.00  0.00    -0.302 NA 
HETATM   13  C   UNL     1     -10.613  11.050  66.413  1.00  0.00    -0.251 A  
HETATM   14  N   UNL     1     -10.231   9.909  66.954  1.00  0.00    -0.230 NA 
ENDROOT
BRANCH  11  15
HETATM   15  C   UNL     1     -12.128  12.994  66.893  1.00  0.00    -0.285 C  
BRANCH  15  16
HETATM   16  O   UNL     1     -11.173  14.051  66.965  1.00  0.00    -0.297 OA 
BRANCH  16  17
HETATM   17  C   UNL     1     -11.294  14.927  65.837  1.00  0.00    -0.306 C  
BRANCH  17  18
HETATM   18  C   UNL     1     -10.484  16.191  66.103  1.00  0.00    -0.325 C  
HETATM   19  O   UNL     1     -10.258  16.342  67.502  1.00  0.00    -0.260 OA 
HETATM   20  H   UNL     1      -9.753  17.130  67.667  1.00  0.00     0.000 HD 
ENDBRANCH  17  18
ENDBRANCH  16  17
ENDBRANCH  15  16
ENDBRANCH  11  15
TORSDOF 4
ENDMDL
MODEL      138
REMARK 921   NORMALIZED FREE ENERGY PREDICTED BY IDOCK:   -3.77 KCAL/MOL
REMARK 922        TOTAL FREE ENERGY PREDICTED BY IDOCK:   -4.87 KCAL/MOL
REMARK 923 INTER-LIGAND FREE ENERGY PREDICTED BY IDOCK:   -4.63 KCAL/MOL
REMARK 924 INTRA-LIGAND FREE ENERGY PREDICTED BY IDOCK:   -0.25 KCAL/MOL
REMARK 927      BINDING AFFINITY PREDICTED BY RF-SCORE:    0.00 PKD
ROOT
HETATM    1  N   UNL     1     -12.528  14.060  68.295  1.00  0.00    -0.414 NA 
HETATM    2  H2  UNL     1     -12.701  13.112  68.632  1.00  0.00     0.000 HD 
HETATM    3  H1  UNL     1     -13.279  14.750  68.313  1.00  0.00     0.000 HD 
HETATM    4  C   UNL     1     -11.301  14.395  67.825  1.00  0.00    -0.312 C  
HETATM    5  N   UNL     1     -10.345  13.517  67.801  1.00  0.00    -0.237 N  
HETATM    6  C   UNL     1      -9.069  13.881  67.347  1.00  0.00    -0.217 C  
HETATM    7  H   UNL     1     -10.522  12.562  68.113  1.00  0.00     0.000 HD 
HETATM    8  C   UNL     1      -8.919  15.296  66.976  1.00  0.00    -0.233 A  
HETATM    9  O   UNL     1      -8.145  13.079  67.270  1.00  0.00    -0.181 OA 
HETATM   10  C   UNL     1     -10.006  16.127  67.035  1.00  0.00    -0.258 A  
HETATM   11  N   UNL     1      -9.582  17.366  66.678  1.00  0.00    -0.263 NA 
HETATM   12  N   UNL     1     -11.221  15.705  67.417  1.00  0.00    -0.271 NA 
HETATM   13  C   UNL     1      -8.242  17.242  66.397  1.00  0.00    -0.282 A  
HETATM   14  N   UNL     1      -7.812  16.005  66.559  1.00  0.00    -0.239 NA 
ENDROOT
BRANCH  11  15
HETATM   15  C   UNL     1     -10.369  18.570  66.520  1.00  0.00    -0.414 C  
BRANCH  15  16
HETATM   16  O   UNL     1      -9.510  19.626  66.091  1.00  0.00    -0.380 OA 
BRANCH  16  17
HETATM   17  C   UNL     1      -9.261  20.549  67.158  1.00  0.00    -0.351 C  
BRANCH  17  18
HETATM   18  C   UNL     1      -7.763  20.819  67.241  1.00  0.00    -0.278 C  
HETATM   19  O   UNL     1      -7.185  20.050  68.292  1.00  0.00    -0.295 OA 
HETATM   20  H   UNL     1      -6.251  20.218  68.344  1.00  0.00     0.000 HD 
ENDBRANCH  17  18
ENDBRANCH  16  17
ENDBRANCH  15  16
ENDBRANCH  11  15
TORSDOF 4
ENDMDL
MODEL      139
REMARK 921   NORMALIZED FREE ENERGY PREDICTED BY IDOCK:   -3.77 KCAL/MOL
REMARK 922        TOTAL FREE ENERGY PREDICTED BY IDOCK:   -4.87 KCAL/MOL
REMARK 923 INTER-LIGAND FREE ENERGY PREDICTED BY IDOCK:   -4.58 KCAL/MOL
REMARK 924 INTRA-LIGAND FREE ENERGY PREDICTED BY IDOCK:   -0.30 KCAL/MOL
REMARK 927      BINDING AFFINITY PREDICTED BY RF-SCORE:    0.00 PKD
ROOT
HETATM    1  N   UNL     1     -11.139   5.766  66.400  1.00  0.00    -0.767 NA 
HETATM    2  H2  UNL     1     -11.224   5.769  65.384  1.00  0.00     0.000 HD 
HETATM    3  H1  UNL     1     -11.291   4.902  66.920  1.00  0.00     0.000 HD 
HETATM    4  C   UNL     1     -10.822   6.911  67.054  1.00  0.00    -0.366 C  
HETATM    5  N   UNL     1     -10.627   8.012  66.392  1.00  0.00    -0.236 N  
HETATM    6  C   UNL     1     -10.264   9.184  67.071  1.00  0.00    -0.263 C  
HETATM    7  H   UNL     1     -10.738   8.024  65.378  1.00  0.00     0.000 HD 
HETATM    8  C   UNL     1     -10.081   9.033  68.522  1.00  0.00    -0.190 A  
HETATM    9  O   UNL     1     -10.107  10.255  66.495  1.00  0.00    -0.213 OA 
HETATM   10  C   UNL     1     -10.325   7.821  69.110  1.00  0.00    -0.215 A  
HETATM   11  N   UNL     1     -10.046   7.953  70.432  1.00  0.00    -0.193 NA 
HETATM   12  N   UNL     1     -10.733   6.747  68.415  1.00  0.00    -0.228 NA 
HETATM   13  C   UNL     1      -9.653   9.259  70.607  1.00  0.00    -0.273 A  
HETATM   14  N   UNL     1      -9.671   9.940  69.477  1.00  0.00    -0.208 NA 
ENDROOT
BRANCH  11  15
HETATM   15  C   UNL     1     -10.211   6.974  71.484  1.00  0.00    -0.198 C  
BRANCH  15  16
HETATM   16  O   UNL     1     -11.196   7.448  72.401  1.00  0.00    -0.260 OA 
BRANCH  16  17
HETATM   17  C   UNL     1     -12.449   6.783  72.194  1.00  0.00    -0.159 C  
BRANCH  17  18
HETATM   18  C   UNL     1     -13.367   7.695  71.388  1.00  0.00    -0.288 C  
HETATM   19  O   UNL     1     -14.199   8.450  72.265  1.00  0.00    -0.519 OA 
HETATM   20  H   UNL     1     -14.770   9.019  71.763  1.00  0.00     0.000 HD 
ENDBRANCH  17  18
ENDBRANCH  16  17
ENDBRANCH  15  16
ENDBRANCH  11  15
TORSDOF 4
ENDMDL
MODEL      140
REMARK 921   NORMALIZED FREE ENERGY PREDICTED BY IDOCK:   -3.76 KCAL/MOL
REMARK 922        TOTAL FREE ENERGY PREDICTED BY IDOCK:   -4.86 KCAL/MOL
REMARK 923 INTER-LIGAND FREE ENERGY PREDICTED BY IDOCK:   -4.67 KCAL/MOL
REMARK 924 INTRA-LIGAND FREE ENERGY PREDICTED BY IDOCK:   -0.19 KCAL/MOL
REMARK 927      BINDING AFFINITY PREDICTED BY RF-SCORE:    0.00 PKD
ROOT
HETATM    1  N   UNL     1      -9.693   5.796  68.516  1.00  0.00    -0.125 NA 
HETATM    2  H2  UNL     1      -9.550   4.786  68.528  1.00  0.00     0.000 HD 
HETATM    3  H1  UNL     1      -9.386   6.342  67.710  1.00  0.00     0.000 HD 
HETATM    4  C   UNL     1     -10.288   6.407  69.570  1.00  0.00    -0.208 C  
HETATM    5  N   UNL     1     -10.679   5.713  70.595  1.00  0.00    -0.275 N  
HETATM    6  C   UNL     1     -11.326   6.346  71.665  1.00  0.00    -0.289 C  
HETATM    7  H   UNL     1     -10.514   4.706  70.623  1.00  0.00     0.000 HD 
HETATM    8  C   UNL     1     -11.557   7.788  71.491  1.00  0.00    -0.270 A  
HETATM    9  O   UNL     1     -11.679   5.740  72.672  1.00  0.00    -0.293 OA 
HETATM   10  C   UNL     1     -11.090   8.413  70.366  1.00  0.00    -0.231 A  
HETATM   11  N   UNL     1     -11.468   9.714  70.445  1.00  0.00    -0.265 NA 
HETATM   12  N   UNL     1     -10.418   7.765  69.401  1.00  0.00    -0.220 NA 
HETATM   13  C   UNL     1     -12.145   9.841  71.635  1.00  0.00    -0.394 A  
HETATM   14  N   UNL     1     -12.210   8.699  72.294  1.00  0.00    -0.379 NA 
ENDROOT
BRANCH  11  15
HETATM   15  C   UNL     1     -11.156  10.794  69.534  1.00  0.00    -0.278 C  
BRANCH  15  16
HETATM   16  O   UNL     1     -11.946  11.930  69.882  1.00  0.00    -0.316 OA 
BRANCH  16  17
HETATM   17  C   UNL     1     -11.899  12.922  68.849  1.00  0.00    -0.309 C  
BRANCH  17  18
HETATM   18  C   UNL     1     -11.751  14.298  69.489  1.00  0.00    -0.316 C  
HETATM   19  O   UNL     1     -11.361  14.163  70.853  1.00  0.00    -0.506 OA 
HETATM   20  H   UNL     1     -11.268  15.020  71.252  1.00  0.00     0.000 HD 
ENDBRANCH  17  18
ENDBRANCH  16  17
ENDBRANCH  15  16
ENDBRANCH  11  15
TORSDOF 4
ENDMDL
MODEL      141
REMARK 921   NORMALIZED FREE ENERGY PREDICTED BY IDOCK:   -3.76 KCAL/MOL
REMARK 922        TOTAL FREE ENERGY PREDICTED BY IDOCK:   -4.86 KCAL/MOL
REMARK 923 INTER-LIGAND FREE ENERGY PREDICTED BY IDOCK:   -4.70 KCAL/MOL
REMARK 924 INTRA-LIGAND FREE ENERGY PREDICTED BY IDOCK:   -0.16 KCAL/MOL
REMARK 927      BINDING AFFINITY PREDICTED BY RF-SCORE:    0.00 PKD
ROOT
HETATM    1  N   UNL     1      -7.496  16.523  66.738  1.00  0.00    -0.223 NA 
HETATM    2  H2  UNL     1      -6.670  16.379  66.157  1.00  0.00     0.000 HD 
HETATM    3  H1  UNL     1      -7.807  17.471  66.951  1.00  0.00     0.000 HD 
HETATM    4  C   UNL     1      -8.176  15.455  67.221  1.00  0.00    -0.196 C  
HETATM    5  N   UNL     1      -7.781  14.248  66.949  1.00  0.00    -0.279 N  
HETATM    6  C   UNL     1      -8.509  13.148  67.423  1.00  0.00    -0.201 C  
HETATM    7  H   UNL     1      -6.940  14.100  66.391  1.00  0.00     0.000 HD 
HETATM    8  C   UNL     1      -9.731  13.482  68.169  1.00  0.00    -0.233 A  
HETATM    9  O   UNL     1      -8.155  11.990  67.226  1.00  0.00    -0.158 OA 
HETATM   10  C   UNL     1     -10.041  14.796  68.400  1.00  0.00    -0.225 A  
HETATM   11  N   UNL     1     -11.222  14.818  69.069  1.00  0.00    -0.255 NA 
HETATM   12  N   UNL     1      -9.269  15.809  67.976  1.00  0.00    -0.188 NA 
HETATM   13  C   UNL     1     -11.586  13.503  69.237  1.00  0.00    -0.316 A  
HETATM   14  N   UNL     1     -10.705  12.672  68.713  1.00  0.00    -0.230 NA 
ENDROOT
BRANCH  11  15
HETATM   15  C   UNL     1     -11.931  15.963  69.598  1.00  0.00    -0.260 C  
BRANCH  15  16
HETATM   16  O   UNL     1     -12.829  15.517  70.613  1.00  0.00    -0.458 OA 
BRANCH  16  17
HETATM   17  C   UNL     1     -12.329  15.839  71.916  1.00  0.00    -0.459 C  
BRANCH  17  18
HETATM   18  C   UNL     1     -13.505  16.001  72.873  1.00  0.00    -0.453 C  
HETATM   19  O   UNL     1     -13.177  15.456  74.148  1.00  0.00    -0.570 OA 
HETATM   20  H   UNL     1     -13.911  15.557  74.744  1.00  0.00     0.000 HD 
ENDBRANCH  17  18
ENDBRANCH  16  17
ENDBRANCH  15  16
ENDBRANCH  11  15
TORSDOF 4
ENDMDL
MODEL      142
REMARK 921   NORMALIZED FREE ENERGY PREDICTED BY IDOCK:   -3.76 KCAL/MOL
REMARK 922        TOTAL FREE ENERGY PREDICTED BY IDOCK:   -4.86 KCAL/MOL
REMARK 923 INTER-LIGAND FREE ENERGY PREDICTED BY IDOCK:   -4.58 KCAL/MOL
REMARK 924 INTRA-LIGAND FREE ENERGY PREDICTED BY IDOCK:   -0.28 KCAL/MOL
REMARK 927      BINDING AFFINITY PREDICTED BY RF-SCORE:    0.00 PKD
ROOT
HETATM    1  N   UNL     1      -6.726  13.424  67.135  1.00  0.00    -0.447 NA 
HETATM    2  H2  UNL     1      -6.324  14.209  66.621  1.00  0.00     0.000 HD 
HETATM    3  H1  UNL     1      -6.117  12.799  67.664  1.00  0.00     0.000 HD 
HETATM    4  C   UNL     1      -8.066  13.217  67.112  1.00  0.00    -0.088 C  
HETATM    5  N   UNL     1      -8.841  14.013  66.439  1.00  0.00    -0.468 N  
HETATM    6  C   UNL     1     -10.229  13.814  66.449  1.00  0.00    -0.292 C  
HETATM    7  H   UNL     1      -8.440  14.782  65.903  1.00  0.00     0.000 HD 
HETATM    8  C   UNL     1     -10.695  12.709  67.299  1.00  0.00    -0.237 A  
HETATM    9  O   UNL     1     -10.998  14.514  65.799  1.00  0.00    -0.302 OA 
HETATM   10  C   UNL     1      -9.779  11.932  67.957  1.00  0.00    -0.191 A  
HETATM   11  N   UNL     1     -10.475  11.023  68.687  1.00  0.00    -0.183 NA 
HETATM   12  N   UNL     1      -8.455  12.131  67.858  1.00  0.00    -0.153 NA 
HETATM   13  C   UNL     1     -11.803  11.271  68.433  1.00  0.00    -0.261 A  
HETATM   14  N   UNL     1     -11.971  12.276  67.595  1.00  0.00    -0.512 NA 
ENDROOT
BRANCH  11  15
HETATM   15  C   UNL     1      -9.959   9.941  69.496  1.00  0.00    -0.222 C  
BRANCH  15  16
HETATM   16  O   UNL     1     -10.640   8.738  69.142  1.00  0.00    -0.224 OA 
BRANCH  16  17
HETATM   17  C   UNL     1      -9.811   7.902  68.325  1.00  0.00    -0.169 C  
BRANCH  17  18
HETATM   18  C   UNL     1     -10.279   8.003  66.878  1.00  0.00    -0.315 C  
HETATM   19  O   UNL     1     -10.922   6.793  66.487  1.00  0.00    -0.513 OA 
HETATM   20  H   UNL     1     -11.215   6.856  65.585  1.00  0.00     0.000 HD 
ENDBRANCH  17  18
ENDBRANCH  16  17
ENDBRANCH  15  16
ENDBRANCH  11  15
TORSDOF 4
ENDMDL
MODEL      143
REMARK 921   NORMALIZED FREE ENERGY PREDICTED BY IDOCK:   -3.75 KCAL/MOL
REMARK 922        TOTAL FREE ENERGY PREDICTED BY IDOCK:   -4.85 KCAL/MOL
REMARK 923 INTER-LIGAND FREE ENERGY PREDICTED BY IDOCK:   -4.79 KCAL/MOL
REMARK 924 INTRA-LIGAND FREE ENERGY PREDICTED BY IDOCK:   -0.06 KCAL/MOL
REMARK 927      BINDING AFFINITY PREDICTED BY RF-SCORE:    0.00 PKD
ROOT
HETATM    1  N   UNL     1      -8.006   9.321  63.990  1.00  0.00    -0.129 NA 
HETATM    2  H2  UNL     1      -7.729   8.355  63.817  1.00  0.00     0.000 HD 
HETATM    3  H1  UNL     1      -7.620  10.071  63.417  1.00  0.00     0.000 HD 
HETATM    4  C   UNL     1      -8.887   9.603  64.982  1.00  0.00    -0.186 C  
HETATM    5  N   UNL     1      -9.380   8.649  65.712  1.00  0.00    -0.388 N  
HETATM    6  C   UNL     1     -10.317   8.943  66.712  1.00  0.00    -0.247 C  
HETATM    7  H   UNL     1      -9.084   7.684  65.559  1.00  0.00     0.000 HD 
HETATM    8  C   UNL     1     -10.707  10.358  66.805  1.00  0.00    -0.168 A  
HETATM    9  O   UNL     1     -10.782   8.083  67.453  1.00  0.00    -0.269 OA 
HETATM   10  C   UNL     1     -10.110  11.277  65.983  1.00  0.00    -0.239 A  
HETATM   11  N   UNL     1     -10.676  12.481  66.251  1.00  0.00    -0.256 NA 
HETATM   12  N   UNL     1      -9.169  10.944  65.086  1.00  0.00    -0.210 NA 
HETATM   13  C   UNL     1     -11.595  12.255  67.248  1.00  0.00    -0.357 A  
HETATM   14  N   UNL     1     -11.634  10.986  67.610  1.00  0.00    -0.562 NA 
ENDROOT
BRANCH  11  15
HETATM   15  C   UNL     1     -10.337  13.773  65.695  1.00  0.00    -0.311 C  
BRANCH  15  16
HETATM   16  O   UNL     1     -11.046  14.782  66.413  1.00  0.00    -0.330 OA 
BRANCH  16  17
HETATM   17  C   UNL     1     -10.155  15.545  67.236  1.00  0.00    -0.250 C  
BRANCH  17  18
HETATM   18  C   UNL     1      -9.363  16.502  66.353  1.00  0.00    -0.287 C  
HETATM   19  O   UNL     1     -10.179  16.968  65.282  1.00  0.00    -0.601 OA 
HETATM   20  H   UNL     1      -9.685  17.565  64.731  1.00  0.00     0.000 HD 
ENDBRANCH  17  18
ENDBRANCH  16  17
ENDBRANCH  15  16
ENDBRANCH  11  15
TORSDOF 4
ENDMDL
MODEL      144
REMARK 921   NORMALIZED FREE ENERGY PREDICTED BY IDOCK:   -3.70 KCAL/MOL
REMARK 922        TOTAL FREE ENERGY PREDICTED BY IDOCK:   -4.79 KCAL/MOL
REMARK 923 INTER-LIGAND FREE ENERGY PREDICTED BY IDOCK:   -4.19 KCAL/MOL
REMARK 924 INTRA-LIGAND FREE ENERGY PREDICTED BY IDOCK:   -0.60 KCAL/MOL
REMARK 927      BINDING AFFINITY PREDICTED BY RF-SCORE:    0.00 PKD
ROOT
HETATM    1  N   UNL     1     -11.503   6.590  68.656  1.00  0.00    -0.562 NA 
HETATM    2  H2  UNL     1     -12.255   7.033  69.183  1.00  0.00     0.000 HD 
HETATM    3  H1  UNL     1     -11.319   5.593  68.774  1.00  0.00     0.000 HD 
HETATM    4  C   UNL     1     -10.754   7.327  67.799  1.00  0.00    -0.197 C  
HETATM    5  N   UNL     1     -10.989   8.595  67.648  1.00  0.00    -0.475 N  
HETATM    6  C   UNL     1     -10.234   9.344  66.734  1.00  0.00    -0.250 C  
HETATM    7  H   UNL     1     -11.723   9.047  68.194  1.00  0.00     0.000 HD 
HETATM    8  C   UNL     1      -9.242   8.576  65.966  1.00  0.00    -0.202 A  
HETATM    9  O   UNL     1     -10.391  10.552  66.584  1.00  0.00    -0.228 OA 
HETATM   10  C   UNL     1      -9.079   7.241  66.221  1.00  0.00    -0.149 A  
HETATM   11  N   UNL     1      -8.140   6.779  65.357  1.00  0.00    -0.125 NA 
HETATM   12  N   UNL     1      -9.789   6.590  67.156  1.00  0.00    -0.140 NA 
HETATM   13  C   UNL     1      -7.749   7.864  64.608  1.00  0.00    -0.120 A  
HETATM   14  N   UNL     1      -8.388   8.965  64.955  1.00  0.00    -0.156 NA 
ENDROOT
BRANCH  11  15
HETATM   15  C   UNL     1      -7.572   5.451  65.277  1.00  0.00    -0.079 C  
BRANCH  15  16
HETATM   16  O   UNL     1      -8.258   4.720  64.261  1.00  0.00    -0.104 OA 
BRANCH  16  17
HETATM   17  C   UNL     1      -9.214   3.820  64.837  1.00  0.00    -0.148 C  
BRANCH  17  18
HETATM   18  C   UNL     1     -10.576   4.071  64.199  1.00  0.00    -0.177 C  
HETATM   19  O   UNL     1     -11.460   4.657  65.151  1.00  0.00    -1.082 OA 
HETATM   20  H   UNL     1     -12.309   4.814  64.754  1.00  0.00     0.000 HD 
ENDBRANCH  17  18
ENDBRANCH  16  17
ENDBRANCH  15  16
ENDBRANCH  11  15
TORSDOF 4
ENDMDL
MODEL      145
REMARK 921   NORMALIZED FREE ENERGY PREDICTED BY IDOCK:   -3.67 KCAL/MOL
REMARK 922        TOTAL FREE ENERGY PREDICTED BY IDOCK:   -4.76 KCAL/MOL
REMARK 923 INTER-LIGAND FREE ENERGY PREDICTED BY IDOCK:   -4.47 KCAL/MOL
REMARK 924 INTRA-LIGAND FREE ENERGY PREDICTED BY IDOCK:   -0.29 KCAL/MOL
REMARK 927      BINDING AFFINITY PREDICTED BY RF-SCORE:    0.00 PKD
ROOT
HETATM    1  N   UNL     1      -7.089  15.911  67.212  1.00  0.00    -0.193 NA 
HETATM    2  H2  UNL     1      -6.687  16.565  67.884  1.00  0.00     0.000 HD 
HETATM    3  H1  UNL     1      -6.502  15.511  66.479  1.00  0.00     0.000 HD 
HETATM    4  C   UNL     1      -8.400  15.576  67.297  1.00  0.00    -0.193 C  
HETATM    5  N   UNL     1      -9.147  16.084  68.229  1.00  0.00    -0.188 N  
HETATM    6  C   UNL     1     -10.493  15.706  68.333  1.00  0.00    -0.242 C  
HETATM    7  H   UNL     1      -8.755  16.759  68.887  1.00  0.00     0.000 HD 
HETATM    8  C   UNL     1     -10.932  14.688  67.367  1.00  0.00    -0.308 A  
HETATM    9  O   UNL     1     -11.249  16.186  69.172  1.00  0.00    -0.310 OA 
HETATM   10  C   UNL     1     -10.052  14.232  66.422  1.00  0.00    -0.288 A  
HETATM   11  N   UNL     1     -10.699  13.286  65.695  1.00  0.00    -0.278 NA 
HETATM   12  N   UNL     1      -8.790  14.680  66.331  1.00  0.00    -0.162 NA 
HETATM   13  C   UNL     1     -11.968  13.209  66.218  1.00  0.00    -0.415 A  
HETATM   14  N   UNL     1     -12.144  14.046  67.223  1.00  0.00    -0.407 NA 
ENDROOT
BRANCH  11  15
HETATM   15  C   UNL     1     -10.218  12.560  64.540  1.00  0.00    -0.307 C  
BRANCH  15  16
HETATM   16  O   UNL     1      -9.375  11.498  64.985  1.00  0.00    -0.191 OA 
BRANCH  16  17
HETATM   17  C   UNL     1     -10.056  10.239  64.912  1.00  0.00    -0.276 C  
BRANCH  17  18
HETATM   18  C   UNL     1     -10.150   9.646  66.313  1.00  0.00    -0.252 C  
HETATM   19  O   UNL     1     -10.261   8.227  66.237  1.00  0.00    -0.460 OA 
HETATM   20  H   UNL     1     -10.320   7.857  67.110  1.00  0.00     0.000 HD 
ENDBRANCH  17  18
ENDBRANCH  16  17
ENDBRANCH  15  16
ENDBRANCH  11  15
TORSDOF 4
ENDMDL
MODEL      146
REMARK 921   NORMALIZED FREE ENERGY PREDICTED BY IDOCK:   -3.67 KCAL/MOL
REMARK 922        TOTAL FREE ENERGY PREDICTED BY IDOCK:   -4.76 KCAL/MOL
REMARK 923 INTER-LIGAND FREE ENERGY PREDICTED BY IDOCK:   -4.59 KCAL/MOL
REMARK 924 INTRA-LIGAND FREE ENERGY PREDICTED BY IDOCK:   -0.17 KCAL/MOL
REMARK 927      BINDING AFFINITY PREDICTED BY RF-SCORE:    0.00 PKD
ROOT
HETATM    1  N   UNL     1      -6.465  13.288  67.431  1.00  0.00    -0.370 NA 
HETATM    2  H2  UNL     1      -5.718  13.856  67.032  1.00  0.00     0.000 HD 
HETATM    3  H1  UNL     1      -6.238  12.427  67.928  1.00  0.00     0.000 HD 
HETATM    4  C   UNL     1      -7.756  13.682  67.299  1.00  0.00    -0.074 C  
HETATM    5  N   UNL     1      -8.046  14.779  66.666  1.00  0.00    -0.326 N  
HETATM    6  C   UNL     1      -9.379  15.198  66.564  1.00  0.00    -0.280 C  
HETATM    7  H   UNL     1      -7.302  15.335  66.243  1.00  0.00     0.000 HD 
HETATM    8  C   UNL     1     -10.357  14.346  67.257  1.00  0.00    -0.260 A  
HETATM    9  O   UNL     1      -9.707  16.205  65.944  1.00  0.00    -0.319 OA 
HETATM   10  C   UNL     1      -9.931  13.206  67.886  1.00  0.00    -0.233 A  
HETATM   11  N   UNL     1     -11.019  12.639  68.466  1.00  0.00    -0.249 NA 
HETATM   12  N   UNL     1      -8.645  12.821  67.896  1.00  0.00    -0.170 NA 
HETATM   13  C   UNL     1     -12.082  13.453  68.155  1.00  0.00    -0.232 A  
HETATM   14  N   UNL     1     -11.719  14.487  67.421  1.00  0.00    -0.388 NA 
ENDROOT
BRANCH  11  15
HETATM   15  C   UNL     1     -11.099  11.387  69.186  1.00  0.00    -0.258 C  
BRANCH  15  16
HETATM   16  O   UNL     1     -11.791  11.607  70.414  1.00  0.00    -0.343 OA 
BRANCH  16  17
HETATM   17  C   UNL     1     -12.845  10.651  70.585  1.00  0.00    -0.320 C  
BRANCH  17  18
HETATM   18  C   UNL     1     -12.700   9.993  71.953  1.00  0.00    -0.398 C  
HETATM   19  O   UNL     1     -13.529   8.837  72.030  1.00  0.00    -0.363 OA 
HETATM   20  H   UNL     1     -13.438   8.427  72.883  1.00  0.00     0.000 HD 
ENDBRANCH  17  18
ENDBRANCH  16  17
ENDBRANCH  15  16
ENDBRANCH  11  15
TORSDOF 4
ENDMDL
MODEL      147
REMARK 921   NORMALIZED FREE ENERGY PREDICTED BY IDOCK:   -3.66 KCAL/MOL
REMARK 922        TOTAL FREE ENERGY PREDICTED BY IDOCK:   -4.74 KCAL/MOL
REMARK 923 INTER-LIGAND FREE ENERGY PREDICTED BY IDOCK:   -4.54 KCAL/MOL
REMARK 924 INTRA-LIGAND FREE ENERGY PREDICTED BY IDOCK:   -0.20 KCAL/MOL
REMARK 927      BINDING AFFINITY PREDICTED BY RF-SCORE:    0.00 PKD
ROOT
HETATM    1  N   UNL     1     -11.093   6.169  70.275  1.00  0.00    -0.347 NA 
HETATM    2  H2  UNL     1     -11.487   5.374  70.777  1.00  0.00     0.000 HD 
HETATM    3  H1  UNL     1     -10.406   6.014  69.537  1.00  0.00     0.000 HD 
HETATM    4  C   UNL     1     -11.486   7.428  70.590  1.00  0.00    -0.282 C  
HETATM    5  N   UNL     1     -12.361   7.626  71.529  1.00  0.00    -0.319 N  
HETATM    6  C   UNL     1     -12.790   8.928  71.825  1.00  0.00    -0.365 C  
HETATM    7  H   UNL     1     -12.737   6.835  72.051  1.00  0.00     0.000 HD 
HETATM    8  C   UNL     1     -12.222   9.982  70.971  1.00  0.00    -0.365 A  
HETATM    9  O   UNL     1     -13.585   9.169  72.728  1.00  0.00    -0.430 OA 
HETATM   10  C   UNL     1     -11.298   9.650  70.016  1.00  0.00    -0.195 A  
HETATM   11  N   UNL     1     -10.973  10.793  69.359  1.00  0.00    -0.237 NA 
HETATM   12  N   UNL     1     -10.877   8.391  69.821  1.00  0.00    -0.219 NA 
HETATM   13  C   UNL     1     -11.706  11.793  69.954  1.00  0.00    -0.323 A  
HETATM   14  N   UNL     1     -12.463  11.339  70.934  1.00  0.00    -0.391 NA 
ENDROOT
BRANCH  11  15
HETATM   15  C   UNL     1      -9.992  10.975  68.312  1.00  0.00    -0.179 C  
BRANCH  15  16
HETATM   16  O   UNL     1      -8.743  11.322  68.910  1.00  0.00    -0.138 OA 
BRANCH  16  17
HETATM   17  C   UNL     1      -8.053  12.299  68.122  1.00  0.00    -0.158 C  
BRANCH  17  18
HETATM   18  C   UNL     1      -6.854  11.638  67.452  1.00  0.00    -0.114 C  
HETATM   19  O   UNL     1      -5.985  12.631  66.913  1.00  0.00    -0.481 OA 
HETATM   20  H   UNL     1      -5.238  12.218  66.495  1.00  0.00     0.000 HD 
ENDBRANCH  17  18
ENDBRANCH  16  17
ENDBRANCH  15  16
ENDBRANCH  11  15
TORSDOF 4
ENDMDL
MODEL      148
REMARK 921   NORMALIZED FREE ENERGY PREDICTED BY IDOCK:   -3.65 KCAL/MOL
REMARK 922        TOTAL FREE ENERGY PREDICTED BY IDOCK:   -4.72 KCAL/MOL
REMARK 923 INTER-LIGAND FREE ENERGY PREDICTED BY IDOCK:   -4.52 KCAL/MOL
REMARK 924 INTRA-LIGAND FREE ENERGY PREDICTED BY IDOCK:   -0.20 KCAL/MOL
REMARK 927      BINDING AFFINITY PREDICTED BY RF-SCORE:    0.00 PKD
ROOT
HETATM    1  N   UNL     1      -9.724  12.362  64.381  1.00  0.00    -0.520 NA 
HETATM    2  H2  UNL     1      -9.309  12.836  63.579  1.00  0.00     0.000 HD 
HETATM    3  H1  UNL     1      -9.868  11.353  64.355  1.00  0.00     0.000 HD 
HETATM    4  C   UNL     1     -10.081  13.076  65.477  1.00  0.00    -0.259 C  
HETATM    5  N   UNL     1      -9.898  14.362  65.511  1.00  0.00    -0.510 N  
HETATM    6  C   UNL     1     -10.236  15.089  66.661  1.00  0.00    -0.268 C  
HETATM    7  H   UNL     1      -9.508  14.843  64.700  1.00  0.00     0.000 HD 
HETATM    8  C   UNL     1     -10.737  14.283  67.784  1.00  0.00    -0.251 A  
HETATM    9  O   UNL     1     -10.117  16.308  66.727  1.00  0.00    -0.261 OA 
HETATM   10  C   UNL     1     -10.896  12.932  67.626  1.00  0.00    -0.232 A  
HETATM   11  N   UNL     1     -11.331  12.438  68.813  1.00  0.00    -0.270 NA 
HETATM   12  N   UNL     1     -10.615  12.298  66.476  1.00  0.00    -0.230 NA 
HETATM   13  C   UNL     1     -11.439  13.518  69.656  1.00  0.00    -0.217 A  
HETATM   14  N   UNL     1     -11.096  14.647  69.065  1.00  0.00    -0.247 NA 
ENDROOT
BRANCH  11  15
HETATM   15  C   UNL     1     -11.709  11.078  69.132  1.00  0.00    -0.333 C  
BRANCH  15  16
HETATM   16  O   UNL     1     -10.777  10.553  70.076  1.00  0.00    -0.276 OA 
BRANCH  16  17
HETATM   17  C   UNL     1     -10.420   9.205  69.747  1.00  0.00    -0.223 C  
BRANCH  17  18
HETATM   18  C   UNL     1      -9.112   8.854  70.447  1.00  0.00    -0.190 C  
HETATM   19  O   UNL     1      -8.993   9.591  71.660  1.00  0.00    -0.233 OA 
HETATM   20  H   UNL     1      -8.177   9.372  72.096  1.00  0.00     0.000 HD 
ENDBRANCH  17  18
ENDBRANCH  16  17
ENDBRANCH  15  16
ENDBRANCH  11  15
TORSDOF 4
ENDMDL
MODEL      149
REMARK 921   NORMALIZED FREE ENERGY PREDICTED BY IDOCK:   -3.65 KCAL/MOL
REMARK 922        TOTAL FREE ENERGY PREDICTED BY IDOCK:   -4.72 KCAL/MOL
REMARK 923 INTER-LIGAND FREE ENERGY PREDICTED BY IDOCK:   -4.15 KCAL/MOL
REMARK 924 INTRA-LIGAND FREE ENERGY PREDICTED BY IDOCK:   -0.58 KCAL/MOL
REMARK 927      BINDING AFFINITY PREDICTED BY RF-SCORE:    0.00 PKD
ROOT
HETATM    1  N   UNL     1      -6.284  14.725  67.428  1.00  0.00    -0.322 NA 
HETATM    2  H2  UNL     1      -5.573  14.131  67.002  1.00  0.00     0.000 HD 
HETATM    3  H1  UNL     1      -6.056  15.685  67.686  1.00  0.00     0.000 HD 
HETATM    4  C   UNL     1      -7.529  14.235  67.647  1.00  0.00    -0.179 C  
HETATM    5  N   UNL     1      -7.821  13.013  67.318  1.00  0.00    -0.304 N  
HETATM    6  C   UNL     1      -9.120  12.525  67.515  1.00  0.00    -0.187 C  
HETATM    7  H   UNL     1      -7.104  12.408  66.916  1.00  0.00     0.000 HD 
HETATM    8  C   UNL     1     -10.080  13.502  68.050  1.00  0.00    -0.244 A  
HETATM    9  O   UNL     1      -9.434  11.367  67.257  1.00  0.00    -0.166 OA 
HETATM   10  C   UNL     1      -9.652  14.763  68.367  1.00  0.00    -0.213 A  
HETATM   11  N   UNL     1     -10.736  15.458  68.798  1.00  0.00    -0.232 NA 
HETATM   12  N   UNL     1      -8.377  15.155  68.217  1.00  0.00    -0.145 NA 
HETATM   13  C   UNL     1     -11.794  14.582  68.741  1.00  0.00    -0.315 A  
HETATM   14  N   UNL     1     -11.432  13.392  68.302  1.00  0.00    -0.293 NA 
ENDROOT
BRANCH  11  15
HETATM   15  C   UNL     1     -10.787  16.809  69.311  1.00  0.00    -0.275 C  
BRANCH  15  16
HETATM   16  O   UNL     1     -10.768  17.718  68.211  1.00  0.00    -0.343 OA 
BRANCH  16  17
HETATM   17  C   UNL     1     -10.004  18.889  68.529  1.00  0.00    -0.406 C  
BRANCH  17  18
HETATM   18  C   UNL     1      -9.022  19.162  67.394  1.00  0.00    -0.293 C  
HETATM   19  O   UNL     1      -8.536  17.933  66.862  1.00  0.00    -0.230 OA 
HETATM   20  H   UNL     1      -7.924  18.103  66.155  1.00  0.00     0.000 HD 
ENDBRANCH  17  18
ENDBRANCH  16  17
ENDBRANCH  15  16
ENDBRANCH  11  15
TORSDOF 4
ENDMDL
MODEL      150
REMARK 921   NORMALIZED FREE ENERGY PREDICTED BY IDOCK:   -3.61 KCAL/MOL
REMARK 922        TOTAL FREE ENERGY PREDICTED BY IDOCK:   -4.67 KCAL/MOL
REMARK 923 INTER-LIGAND FREE ENERGY PREDICTED BY IDOCK:   -4.40 KCAL/MOL
REMARK 924 INTRA-LIGAND FREE ENERGY PREDICTED BY IDOCK:   -0.27 KCAL/MOL
REMARK 927      BINDING AFFINITY PREDICTED BY RF-SCORE:    0.00 PKD
ROOT
HETATM    1  N   UNL     1     -12.127  10.659  69.659  1.00  0.00    -0.474 NA 
HETATM    2  H2  UNL     1     -12.195   9.763  70.142  1.00  0.00     0.000 HD 
HETATM    3  H1  UNL     1     -12.471  11.506  70.110  1.00  0.00     0.000 HD 
HETATM    4  C   UNL     1     -11.578  10.718  68.420  1.00  0.00    -0.239 C  
HETATM    5  N   UNL     1     -11.139   9.639  67.845  1.00  0.00    -0.508 N  
HETATM    6  C   UNL     1     -10.540   9.713  66.580  1.00  0.00    -0.072 C  
HETATM    7  H   UNL     1     -11.230   8.738  68.315  1.00  0.00     0.000 HD 
HETATM    8  C   UNL     1     -10.415  11.069  66.026  1.00  0.00    -0.245 A  
HETATM    9  O   UNL     1     -10.146   8.718  65.980  1.00  0.00    -0.228 OA 
HETATM   10  C   UNL     1     -10.925  12.132  66.724  1.00  0.00    -0.280 A  
HETATM   11  N   UNL     1     -10.643  13.252  66.011  1.00  0.00    -0.282 NA 
HETATM   12  N   UNL     1     -11.547  11.992  67.905  1.00  0.00    -0.365 NA 
HETATM   13  C   UNL     1      -9.978  12.827  64.885  1.00  0.00    -0.136 A  
HETATM   14  N   UNL     1      -9.831  11.516  64.860  1.00  0.00    -0.248 NA 
ENDROOT
BRANCH  11  15
HETATM   15  C   UNL     1     -11.032  14.616  66.296  1.00  0.00    -0.327 C  
BRANCH  15  16
HETATM   16  O   UNL     1      -9.854  15.394  66.506  1.00  0.00    -0.248 OA 
BRANCH  16  17
HETATM   17  C   UNL     1      -9.462  15.366  67.884  1.00  0.00    -0.197 C  
BRANCH  17  18
HETATM   18  C   UNL     1     -10.713  15.315  68.754  1.00  0.00    -0.241 C  
HETATM   19  O   UNL     1     -10.731  16.423  69.650  1.00  0.00    -0.311 OA 
HETATM   20  H   UNL     1     -11.511  16.391  70.192  1.00  0.00     0.000 HD 
ENDBRANCH  17  18
ENDBRANCH  16  17
ENDBRANCH  15  16
ENDBRANCH  11  15
TORSDOF 4
ENDMDL
MODEL      151
REMARK 921   NORMALIZED FREE ENERGY PREDICTED BY IDOCK:   -3.60 KCAL/MOL
REMARK 922        TOTAL FREE ENERGY PREDICTED BY IDOCK:   -4.67 KCAL/MOL
REMARK 923 INTER-LIGAND FREE ENERGY PREDICTED BY IDOCK:   -4.62 KCAL/MOL
REMARK 924 INTRA-LIGAND FREE ENERGY PREDICTED BY IDOCK:   -0.05 KCAL/MOL
REMARK 927      BINDING AFFINITY PREDICTED BY RF-SCORE:    0.00 PKD
ROOT
HETATM    1  N   UNL     1      -9.622   6.642  71.719  1.00  0.00    -0.159 NA 
HETATM    2  H2  UNL     1      -8.835   6.021  71.530  1.00  0.00     0.000 HD 
HETATM    3  H1  UNL     1     -10.245   6.447  72.503  1.00  0.00     0.000 HD 
HETATM    4  C   UNL     1      -9.833   7.723  70.928  1.00  0.00    -0.175 C  
HETATM    5  N   UNL     1      -9.040   7.972  69.931  1.00  0.00    -0.145 N  
HETATM    6  C   UNL     1      -9.244   9.111  69.139  1.00  0.00    -0.144 C  
HETATM    7  H   UNL     1      -8.268   7.338  69.723  1.00  0.00     0.000 HD 
HETATM    8  C   UNL     1     -10.352   9.977  69.566  1.00  0.00    -0.235 A  
HETATM    9  O   UNL     1      -8.546   9.367  68.164  1.00  0.00    -0.120 OA 
HETATM   10  C   UNL     1     -11.127   9.605  70.632  1.00  0.00    -0.319 A  
HETATM   11  N   UNL     1     -12.039  10.590  70.829  1.00  0.00    -0.337 NA 
HETATM   12  N   UNL     1     -10.923   8.467  71.314  1.00  0.00    -0.242 NA 
HETATM   13  C   UNL     1     -11.796  11.531  69.856  1.00  0.00    -0.355 A  
HETATM   14  N   UNL     1     -10.790  11.189  69.073  1.00  0.00    -0.218 NA 
ENDROOT
BRANCH  11  15
HETATM   15  C   UNL     1     -13.121  10.631  71.789  1.00  0.00    -0.466 C  
BRANCH  15  16
HETATM   16  O   UNL     1     -13.120   9.413  72.532  1.00  0.00    -0.404 OA 
BRANCH  16  17
HETATM   17  C   UNL     1     -14.369   8.726  72.388  1.00  0.00    -0.332 C  
BRANCH  17  18
HETATM   18  C   UNL     1     -14.130   7.414  71.649  1.00  0.00    -0.421 C  
HETATM   19  O   UNL     1     -12.998   6.743  72.197  1.00  0.00    -0.545 OA 
HETATM   20  H   UNL     1     -12.849   5.925  71.737  1.00  0.00     0.000 HD 
ENDBRANCH  17  18
ENDBRANCH  16  17
ENDBRANCH  15  16
ENDBRANCH  11  15
TORSDOF 4
ENDMDL
MODEL      152
REMARK 921   NORMALIZED FREE ENERGY PREDICTED BY IDOCK:   -3.56 KCAL/MOL
REMARK 922        TOTAL FREE ENERGY PREDICTED BY IDOCK:   -4.62 KCAL/MOL
REMARK 923 INTER-LIGAND FREE ENERGY PREDICTED BY IDOCK:   -4.72 KCAL/MOL
REMARK 924 INTRA-LIGAND FREE ENERGY PREDICTED BY IDOCK:    0.10 KCAL/MOL
REMARK 927      BINDING AFFINITY PREDICTED BY RF-SCORE:    0.00 PKD
ROOT
HETATM    1  N   UNL     1     -13.203  10.303  72.304  1.00  0.00    -0.570 NA 
HETATM    2  H2  UNL     1     -14.040  10.118  72.858  1.00  0.00     0.000 HD 
HETATM    3  H1  UNL     1     -13.004  11.252  71.988  1.00  0.00     0.000 HD 
HETATM    4  C   UNL     1     -12.361   9.287  71.994  1.00  0.00    -0.363 C  
HETATM    5  N   UNL     1     -12.614   8.079  72.397  1.00  0.00    -0.546 N  
HETATM    6  C   UNL     1     -11.720   7.040  72.103  1.00  0.00    -0.283 C  
HETATM    7  H   UNL     1     -13.463   7.886  72.929  1.00  0.00     0.000 HD 
HETATM    8  C   UNL     1     -10.506   7.446  71.380  1.00  0.00    -0.202 A  
HETATM    9  O   UNL     1     -11.934   5.876  72.428  1.00  0.00    -0.298 OA 
HETATM   10  C   UNL     1     -10.354   8.753  70.999  1.00  0.00    -0.233 A  
HETATM   11  N   UNL     1      -9.145   8.855  70.391  1.00  0.00    -0.173 NA 
HETATM   12  N   UNL     1     -11.276   9.694  71.254  1.00  0.00    -0.370 NA 
HETATM   13  C   UNL     1      -8.603   7.591  70.410  1.00  0.00    -0.143 A  
HETATM   14  N   UNL     1      -9.402   6.717  70.992  1.00  0.00    -0.160 NA 
ENDROOT
BRANCH  11  15
HETATM   15  C   UNL     1      -8.557  10.014  69.756  1.00  0.00    -0.173 C  
BRANCH  15  16
HETATM   16  O   UNL     1      -9.605  10.864  69.293  1.00  0.00    -0.158 OA 
BRANCH  16  17
HETATM   17  C   UNL     1      -9.864  10.644  67.901  1.00  0.00    -0.161 C  
BRANCH  17  18
HETATM   18  C   UNL     1     -10.912  11.646  67.428  1.00  0.00    -0.261 C  
HETATM   19  O   UNL     1     -12.183  11.323  67.987  1.00  0.00    -0.621 OA 
HETATM   20  H   UNL     1     -12.836  11.947  67.692  1.00  0.00     0.000 HD 
ENDBRANCH  17  18
ENDBRANCH  16  17
ENDBRANCH  15  16
ENDBRANCH  11  15
TORSDOF 4
ENDMDL
MODEL      153
REMARK 921   NORMALIZED FREE ENERGY PREDICTED BY IDOCK:   -3.56 KCAL/MOL
REMARK 922        TOTAL FREE ENERGY PREDICTED BY IDOCK:   -4.61 KCAL/MOL
REMARK 923 INTER-LIGAND FREE ENERGY PREDICTED BY IDOCK:   -4.45 KCAL/MOL
REMARK 924 INTRA-LIGAND FREE ENERGY PREDICTED BY IDOCK:   -0.17 KCAL/MOL
REMARK 927      BINDING AFFINITY PREDICTED BY RF-SCORE:    0.00 PKD
ROOT
HETATM    1  N   UNL     1      -9.834  16.305  65.691  1.00  0.00    -0.503 NA 
HETATM    2  H2  UNL     1     -10.315  17.181  65.483  1.00  0.00     0.000 HD 
HETATM    3  H1  UNL     1      -8.998  16.312  66.275  1.00  0.00     0.000 HD 
HETATM    4  C   UNL     1     -10.310  15.138  65.190  1.00  0.00    -0.385 C  
HETATM    5  N   UNL     1     -11.375  15.129  64.447  1.00  0.00    -0.668 N  
HETATM    6  C   UNL     1     -11.881  13.915  63.963  1.00  0.00    -0.337 C  
HETATM    7  H   UNL     1     -11.843  16.005  64.215  1.00  0.00     0.000 HD 
HETATM    8  C   UNL     1     -11.157  12.714  64.406  1.00  0.00    -0.345 A  
HETATM    9  O   UNL     1     -12.861  13.858  63.226  1.00  0.00    -0.561 OA 
HETATM   10  C   UNL     1     -10.039  12.852  65.185  1.00  0.00    -0.223 A  
HETATM   11  N   UNL     1      -9.596  11.602  65.475  1.00  0.00    -0.227 NA 
HETATM   12  N   UNL     1      -9.563  14.048  65.566  1.00  0.00    -0.087 NA 
HETATM   13  C   UNL     1     -10.460  10.738  64.843  1.00  0.00    -0.254 A  
HETATM   14  N   UNL     1     -11.408  11.377  64.184  1.00  0.00    -0.269 NA 
ENDROOT
BRANCH  11  15
HETATM   15  C   UNL     1      -8.410  11.219  66.210  1.00  0.00    -0.142 C  
BRANCH  15  16
HETATM   16  O   UNL     1      -8.773  10.254  67.196  1.00  0.00    -0.129 OA 
BRANCH  16  17
HETATM   17  C   UNL     1      -7.851   9.157  67.200  1.00  0.00    -0.102 C  
BRANCH  17  18
HETATM   18  C   UNL     1      -8.271   8.161  68.276  1.00  0.00    -0.129 C  
HETATM   19  O   UNL     1      -7.171   7.326  68.625  1.00  0.00    -0.085 OA 
HETATM   20  H   UNL     1      -7.433   6.705  69.296  1.00  0.00     0.000 HD 
ENDBRANCH  17  18
ENDBRANCH  16  17
ENDBRANCH  15  16
ENDBRANCH  11  15
TORSDOF 4
ENDMDL
MODEL      154
REMARK 921   NORMALIZED FREE ENERGY PREDICTED BY IDOCK:   -3.55 KCAL/MOL
REMARK 922        TOTAL FREE ENERGY PREDICTED BY IDOCK:   -4.60 KCAL/MOL
REMARK 923 INTER-LIGAND FREE ENERGY PREDICTED BY IDOCK:   -3.85 KCAL/MOL
REMARK 924 INTRA-LIGAND FREE ENERGY PREDICTED BY IDOCK:   -0.75 KCAL/MOL
REMARK 927      BINDING AFFINITY PREDICTED BY RF-SCORE:    0.00 PKD
ROOT
HETATM    1  N   UNL     1     -11.235   6.317  67.979  1.00  0.00    -0.509 NA 
HETATM    2  H2  UNL     1     -11.800   6.994  67.465  1.00  0.00     0.000 HD 
HETATM    3  H1  UNL     1     -10.612   5.688  67.473  1.00  0.00     0.000 HD 
HETATM    4  C   UNL     1     -11.316   6.260  69.331  1.00  0.00    -0.378 C  
HETATM    5  N   UNL     1     -12.110   7.061  69.976  1.00  0.00    -0.606 N  
HETATM    6  C   UNL     1     -12.162   7.021  71.376  1.00  0.00    -0.366 C  
HETATM    7  H   UNL     1     -12.695   7.720  69.463  1.00  0.00     0.000 HD 
HETATM    8  C   UNL     1     -11.234   6.070  72.008  1.00  0.00    -0.288 A  
HETATM    9  O   UNL     1     -12.922   7.730  72.027  1.00  0.00    -0.292 OA 
HETATM   10  C   UNL     1     -10.450   5.270  71.221  1.00  0.00    -0.204 A  
HETATM   11  N   UNL     1      -9.676   4.526  72.052  1.00  0.00    -0.163 NA 
HETATM   12  N   UNL     1     -10.490   5.308  69.880  1.00  0.00    -0.307 NA 
HETATM   13  C   UNL     1     -10.030   4.893  73.329  1.00  0.00    -0.155 A  
HETATM   14  N   UNL     1     -10.973   5.816  73.338  1.00  0.00    -0.259 NA 
ENDROOT
BRANCH  11  15
HETATM   15  C   UNL     1      -8.733   3.485  71.705  1.00  0.00    -0.089 C  
BRANCH  15  16
HETATM   16  O   UNL     1      -7.575   4.088  71.130  1.00  0.00    -0.049 OA 
BRANCH  16  17
HETATM   17  C   UNL     1      -7.302   3.538  69.835  1.00  0.00    -0.041 C  
BRANCH  17  18
HETATM   18  C   UNL     1      -7.060   4.679  68.853  1.00  0.00    -0.052 C  
HETATM   19  O   UNL     1      -8.261   4.980  68.148  1.00  0.00    -0.096 OA 
HETATM   20  H   UNL     1      -8.110   5.692  67.536  1.00  0.00     0.000 HD 
ENDBRANCH  17  18
ENDBRANCH  16  17
ENDBRANCH  15  16
ENDBRANCH  11  15
TORSDOF 4
ENDMDL
MODEL      155
REMARK 921   NORMALIZED FREE ENERGY PREDICTED BY IDOCK:   -3.54 KCAL/MOL
REMARK 922        TOTAL FREE ENERGY PREDICTED BY IDOCK:   -4.60 KCAL/MOL
REMARK 923 INTER-LIGAND FREE ENERGY PREDICTED BY IDOCK:   -4.50 KCAL/MOL
REMARK 924 INTRA-LIGAND FREE ENERGY PREDICTED BY IDOCK:   -0.10 KCAL/MOL
REMARK 927      BINDING AFFINITY PREDICTED BY RF-SCORE:    0.00 PKD
ROOT
HETATM    1  N   UNL     1     -13.620  11.952  72.292  1.00  0.00    -0.492 NA 
HETATM    2  H2  UNL     1     -13.960  11.801  73.242  1.00  0.00     0.000 HD 
HETATM    3  H1  UNL     1     -13.810  12.835  71.819  1.00  0.00     0.000 HD 
HETATM    4  C   UNL     1     -12.915  10.978  71.664  1.00  0.00    -0.456 C  
HETATM    5  N   UNL     1     -12.672   9.853  72.266  1.00  0.00    -0.280 N  
HETATM    6  C   UNL     1     -11.913   8.864  71.625  1.00  0.00    -0.345 C  
HETATM    7  H   UNL     1     -13.033   9.688  73.206  1.00  0.00     0.000 HD 
HETATM    8  C   UNL     1     -11.400   9.234  70.297  1.00  0.00    -0.203 A  
HETATM    9  O   UNL     1     -11.689   7.772  72.136  1.00  0.00    -0.289 OA 
HETATM   10  C   UNL     1     -11.732  10.450  69.761  1.00  0.00    -0.237 A  
HETATM   11  N   UNL     1     -11.103  10.544  68.562  1.00  0.00    -0.259 NA 
HETATM   12  N   UNL     1     -12.518  11.332  70.397  1.00  0.00    -0.290 NA 
HETATM   13  C   UNL     1     -10.416   9.364  68.400  1.00  0.00    -0.218 A  
HETATM   14  N   UNL     1     -10.580   8.549  69.425  1.00  0.00    -0.217 NA 
ENDROOT
BRANCH  11  15
HETATM   15  C   UNL     1     -11.193  11.607  67.585  1.00  0.00    -0.281 C  
BRANCH  15  16
HETATM   16  O   UNL     1      -9.878  12.087  67.307  1.00  0.00    -0.190 OA 
BRANCH  16  17
HETATM   17  C   UNL     1      -9.437  11.649  66.016  1.00  0.00    -0.229 C  
BRANCH  17  18
HETATM   18  C   UNL     1      -8.077  10.974  66.160  1.00  0.00    -0.141 C  
HETATM   19  O   UNL     1      -7.063  11.955  66.356  1.00  0.00    -0.369 OA 
HETATM   20  H   UNL     1      -6.216  11.535  66.446  1.00  0.00     0.000 HD 
ENDBRANCH  17  18
ENDBRANCH  16  17
ENDBRANCH  15  16
ENDBRANCH  11  15
TORSDOF 4
ENDMDL
MODEL      156
REMARK 921   NORMALIZED FREE ENERGY PREDICTED BY IDOCK:   -3.54 KCAL/MOL
REMARK 922        TOTAL FREE ENERGY PREDICTED BY IDOCK:   -4.59 KCAL/MOL
REMARK 923 INTER-LIGAND FREE ENERGY PREDICTED BY IDOCK:   -3.91 KCAL/MOL
REMARK 924 INTRA-LIGAND FREE ENERGY PREDICTED BY IDOCK:   -0.68 KCAL/MOL
REMARK 927      BINDING AFFINITY PREDICTED BY RF-SCORE:    0.00 PKD
ROOT
HETATM    1  N   UNL     1     -10.659   6.844  68.077  1.00  0.00    -0.209 NA 
HETATM    2  H2  UNL     1     -11.459   6.668  67.469  1.00  0.00     0.000 HD 
HETATM    3  H1  UNL     1      -9.729   6.955  67.672  1.00  0.00     0.000 HD 
HETATM    4  C   UNL     1     -10.835   6.932  69.418  1.00  0.00    -0.249 C  
HETATM    5  N   UNL     1     -12.019   6.791  69.934  1.00  0.00    -0.659 N  
HETATM    6  C   UNL     1     -12.200   6.918  71.319  1.00  0.00    -0.380 C  
HETATM    7  H   UNL     1     -12.817   6.588  69.333  1.00  0.00     0.000 HD 
HETATM    8  C   UNL     1     -10.989   7.265  72.078  1.00  0.00    -0.238 A  
HETATM    9  O   UNL     1     -13.290   6.756  71.857  1.00  0.00    -0.271 OA 
HETATM   10  C   UNL     1      -9.792   7.378  71.422  1.00  0.00    -0.185 A  
HETATM   11  N   UNL     1      -8.863   7.737  72.344  1.00  0.00    -0.130 NA 
HETATM   12  N   UNL     1      -9.669   7.182  70.100  1.00  0.00    -0.172 NA 
HETATM   13  C   UNL     1      -9.529   7.814  73.544  1.00  0.00    -0.284 A  
HETATM   14  N   UNL     1     -10.812   7.528  73.420  1.00  0.00    -0.367 NA 
ENDROOT
BRANCH  11  15
HETATM   15  C   UNL     1      -7.439   7.912  72.158  1.00  0.00    -0.084 C  
BRANCH  15  16
HETATM   16  O   UNL     1      -7.187   9.271  71.801  1.00  0.00    -0.328 OA 
BRANCH  16  17
HETATM   17  C   UNL     1      -6.655   9.360  70.473  1.00  0.00    -0.084 C  
BRANCH  17  18
HETATM   18  C   UNL     1      -7.615  10.171  69.609  1.00  0.00    -0.156 C  
HETATM   19  O   UNL     1      -8.232   9.328  68.640  1.00  0.00    -0.110 OA 
HETATM   20  H   UNL     1      -8.830   9.834  68.102  1.00  0.00     0.000 HD 
ENDBRANCH  17  18
ENDBRANCH  16  17
ENDBRANCH  15  16
ENDBRANCH  11  15
TORSDOF 4
ENDMDL
MODEL      157
REMARK 921   NORMALIZED FREE ENERGY PREDICTED BY IDOCK:   -3.51 KCAL/MOL
REMARK 922        TOTAL FREE ENERGY PREDICTED BY IDOCK:   -4.55 KCAL/MOL
REMARK 923 INTER-LIGAND FREE ENERGY PREDICTED BY IDOCK:   -4.38 KCAL/MOL
REMARK 924 INTRA-LIGAND FREE ENERGY PREDICTED BY IDOCK:   -0.17 KCAL/MOL
REMARK 927      BINDING AFFINITY PREDICTED BY RF-SCORE:    0.00 PKD
ROOT
HETATM    1  N   UNL     1     -10.504  13.153  63.742  1.00  0.00    -0.566 NA 
HETATM    2  H2  UNL     1     -10.328  13.636  62.860  1.00  0.00     0.000 HD 
HETATM    3  H1  UNL     1     -11.127  13.571  64.433  1.00  0.00     0.000 HD 
HETATM    4  C   UNL     1      -9.911  11.959  63.988  1.00  0.00    -0.293 C  
HETATM    5  N   UNL     1      -9.119  11.426  63.107  1.00  0.00    -0.509 N  
HETATM    6  C   UNL     1      -8.537  10.175  63.353  1.00  0.00    -0.199 C  
HETATM    7  H   UNL     1      -8.919  11.919  62.237  1.00  0.00     0.000 HD 
HETATM    8  C   UNL     1      -8.940   9.536  64.615  1.00  0.00    -0.221 A  
HETATM    9  O   UNL     1      -7.752   9.649  62.571  1.00  0.00    -0.114 OA 
HETATM   10  C   UNL     1      -9.778  10.202  65.470  1.00  0.00    -0.281 A  
HETATM   11  N   UNL     1     -10.011   9.379  66.524  1.00  0.00    -0.251 NA 
HETATM   12  N   UNL     1     -10.254  11.429  65.209  1.00  0.00    -0.257 NA 
HETATM   13  C   UNL     1      -9.287   8.236  66.280  1.00  0.00    -0.204 A  
HETATM   14  N   UNL     1      -8.624   8.301  65.141  1.00  0.00    -0.144 NA 
ENDROOT
BRANCH  11  15
HETATM   15  C   UNL     1     -10.776   9.653  67.721  1.00  0.00    -0.257 C  
BRANCH  15  16
HETATM   16  O   UNL     1     -10.024   9.221  68.854  1.00  0.00    -0.171 OA 
BRANCH  16  17
HETATM   17  C   UNL     1     -10.884   8.657  69.853  1.00  0.00    -0.208 C  
BRANCH  17  18
HETATM   18  C   UNL     1     -10.792   9.502  71.119  1.00  0.00    -0.355 C  
HETATM   19  O   UNL     1     -11.082   8.702  72.262  1.00  0.00    -0.354 OA 
HETATM   20  H   UNL     1     -11.025   9.228  73.052  1.00  0.00     0.000 HD 
ENDBRANCH  17  18
ENDBRANCH  16  17
ENDBRANCH  15  16
ENDBRANCH  11  15
TORSDOF 4
ENDMDL
MODEL      158
REMARK 921   NORMALIZED FREE ENERGY PREDICTED BY IDOCK:   -3.50 KCAL/MOL
REMARK 922        TOTAL FREE ENERGY PREDICTED BY IDOCK:   -4.54 KCAL/MOL
REMARK 923 INTER-LIGAND FREE ENERGY PREDICTED BY IDOCK:   -4.33 KCAL/MOL
REMARK 924 INTRA-LIGAND FREE ENERGY PREDICTED BY IDOCK:   -0.21 KCAL/MOL
REMARK 927      BINDING AFFINITY PREDICTED BY RF-SCORE:    0.00 PKD
ROOT
HETATM    1  N   UNL     1     -11.659   9.651  70.240  1.00  0.00    -0.380 NA 
HETATM    2  H2  UNL     1     -12.481   9.517  70.831  1.00  0.00     0.000 HD 
HETATM    3  H1  UNL     1     -11.059   8.856  70.018  1.00  0.00     0.000 HD 
HETATM    4  C   UNL     1     -11.371  10.883  69.754  1.00  0.00    -0.301 C  
HETATM    5  N   UNL     1     -12.135  11.895  70.036  1.00  0.00    -0.309 N  
HETATM    6  C   UNL     1     -11.852  13.159  69.501  1.00  0.00    -0.322 C  
HETATM    7  H   UNL     1     -12.942  11.770  70.648  1.00  0.00     0.000 HD 
HETATM    8  C   UNL     1     -10.697  13.207  68.591  1.00  0.00    -0.250 A  
HETATM    9  O   UNL     1     -12.520  14.152  69.769  1.00  0.00    -0.332 OA 
HETATM   10  C   UNL     1      -9.961  12.073  68.376  1.00  0.00    -0.208 A  
HETATM   11  N   UNL     1      -8.992  12.388  67.479  1.00  0.00    -0.174 NA 
HETATM   12  N   UNL     1     -10.243  10.902  68.969  1.00  0.00    -0.204 NA 
HETATM   13  C   UNL     1      -9.165  13.720  67.188  1.00  0.00    -0.243 A  
HETATM   14  N   UNL     1     -10.180  14.246  67.847  1.00  0.00    -0.234 NA 
ENDROOT
BRANCH  11  15
HETATM   15  C   UNL     1      -7.922  11.549  66.985  1.00  0.00    -0.161 C  
BRANCH  15  16
HETATM   16  O   UNL     1      -8.493  10.406  66.349  1.00  0.00    -0.131 OA 
BRANCH  16  17
HETATM   17  C   UNL     1      -8.724  10.657  64.958  1.00  0.00    -0.176 C  
BRANCH  17  18
HETATM   18  C   UNL     1     -10.227  10.728  64.711  1.00  0.00    -0.334 C  
HETATM   19  O   UNL     1     -10.491  10.770  63.311  1.00  0.00    -0.573 OA 
HETATM   20  H   UNL     1     -11.428  10.814  63.157  1.00  0.00     0.000 HD 
ENDBRANCH  17  18
ENDBRANCH  16  17
ENDBRANCH  15  16
ENDBRANCH  11  15
TORSDOF 4
ENDMDL
MODEL      159
REMARK 921   NORMALIZED FREE ENERGY PREDICTED BY IDOCK:   -3.49 KCAL/MOL
REMARK 922        TOTAL FREE ENERGY PREDICTED BY IDOCK:   -4.53 KCAL/MOL
REMARK 923 INTER-LIGAND FREE ENERGY PREDICTED BY IDOCK:   -4.62 KCAL/MOL
REMARK 924 INTRA-LIGAND FREE ENERGY PREDICTED BY IDOCK:    0.09 KCAL/MOL
REMARK 927      BINDING AFFINITY PREDICTED BY RF-SCORE:    0.00 PKD
ROOT
HETATM    1  N   UNL     1     -11.834  13.469  70.209  1.00  0.00    -0.490 NA 
HETATM    2  H2  UNL     1     -12.409  14.252  70.521  1.00  0.00     0.000 HD 
HETATM    3  H1  UNL     1     -11.373  12.873  70.897  1.00  0.00     0.000 HD 
HETATM    4  C   UNL     1     -11.686  13.226  68.884  1.00  0.00    -0.327 C  
HETATM    5  N   UNL     1     -12.273  13.985  68.008  1.00  0.00    -0.528 N  
HETATM    6  C   UNL     1     -12.145  13.706  66.640  1.00  0.00    -0.411 C  
HETATM    7  H   UNL     1     -12.827  14.784  68.316  1.00  0.00     0.000 HD 
HETATM    8  C   UNL     1     -11.368  12.499  66.319  1.00  0.00    -0.338 A  
HETATM    9  O   UNL     1     -12.647  14.415  65.774  1.00  0.00    -0.397 OA 
HETATM   10  C   UNL     1     -10.788  11.782  67.331  1.00  0.00    -0.251 A  
HETATM   11  N   UNL     1     -10.172  10.714  66.763  1.00  0.00    -0.224 NA 
HETATM   12  N   UNL     1     -10.892  12.135  68.622  1.00  0.00    -0.227 NA 
HETATM   13  C   UNL     1     -10.388  10.827  65.410  1.00  0.00    -0.247 A  
HETATM   14  N   UNL     1     -11.099  11.897  65.108  1.00  0.00    -0.311 NA 
ENDROOT
BRANCH  11  15
HETATM   15  C   UNL     1      -9.364   9.700  67.406  1.00  0.00    -0.134 C  
BRANCH  15  16
HETATM   16  O   UNL     1      -9.939   9.392  68.675  1.00  0.00    -0.163 OA 
BRANCH  16  17
HETATM   17  C   UNL     1      -9.050   8.584  69.456  1.00  0.00    -0.150 C  
BRANCH  17  18
HETATM   18  C   UNL     1      -9.321   8.838  70.935  1.00  0.00    -0.214 C  
HETATM   19  O   UNL     1     -10.612   8.349  71.287  1.00  0.00    -0.208 OA 
HETATM   20  H   UNL     1     -10.781   8.508  72.209  1.00  0.00     0.000 HD 
ENDBRANCH  17  18
ENDBRANCH  16  17
ENDBRANCH  15  16
ENDBRANCH  11  15
TORSDOF 4
ENDMDL
MODEL      160
REMARK 921   NORMALIZED FREE ENERGY PREDICTED BY IDOCK:   -3.48 KCAL/MOL
REMARK 922        TOTAL FREE ENERGY PREDICTED BY IDOCK:   -4.52 KCAL/MOL
REMARK 923 INTER-LIGAND FREE ENERGY PREDICTED BY IDOCK:   -4.19 KCAL/MOL
REMARK 924 INTRA-LIGAND FREE ENERGY PREDICTED BY IDOCK:   -0.33 KCAL/MOL
REMARK 927      BINDING AFFINITY PREDICTED BY RF-SCORE:    0.00 PKD
ROOT
HETATM    1  N   UNL     1     -13.608   8.383  72.574  1.00  0.00    -0.606 NA 
HETATM    2  H2  UNL     1     -14.480   8.768  72.938  1.00  0.00     0.000 HD 
HETATM    3  H1  UNL     1     -13.366   7.410  72.761  1.00  0.00     0.000 HD 
HETATM    4  C   UNL     1     -12.778   9.167  71.843  1.00  0.00    -0.389 C  
HETATM    5  N   UNL     1     -13.086  10.406  71.604  1.00  0.00    -0.434 N  
HETATM    6  C   UNL     1     -12.240  11.200  70.817  1.00  0.00    -0.385 C  
HETATM    7  H   UNL     1     -13.944  10.801  71.989  1.00  0.00     0.000 HD 
HETATM    8  C   UNL     1     -11.062  10.508  70.273  1.00  0.00    -0.285 A  
HETATM    9  O   UNL     1     -12.468  12.385  70.596  1.00  0.00    -0.315 OA 
HETATM   10  C   UNL     1     -10.838   9.198  70.603  1.00  0.00    -0.264 A  
HETATM   11  N   UNL     1      -9.719   8.804  69.943  1.00  0.00    -0.174 NA 
HETATM   12  N   UNL     1     -11.651   8.505  71.415  1.00  0.00    -0.276 NA 
HETATM   13  C   UNL     1      -9.287   9.904  69.239  1.00  0.00    -0.206 A  
HETATM   14  N   UNL     1     -10.071  10.950  69.422  1.00  0.00    -0.147 NA 
ENDROOT
BRANCH  11  15
HETATM   15  C   UNL     1      -9.036   7.531  70.018  1.00  0.00    -0.148 C  
BRANCH  15  16
HETATM   16  O   UNL     1      -7.637   7.749  69.839  1.00  0.00    -0.086 OA 
BRANCH  16  17
HETATM   17  C   UNL     1      -6.901   7.311  70.988  1.00  0.00    -0.055 C  
BRANCH  17  18
HETATM   18  C   UNL     1      -6.437   8.533  71.774  1.00  0.00    -0.070 C  
HETATM   19  O   UNL     1      -7.441   8.927  72.705  1.00  0.00    -0.354 OA 
HETATM   20  H   UNL     1      -7.151   9.688  73.194  1.00  0.00     0.000 HD 
ENDBRANCH  17  18
ENDBRANCH  16  17
ENDBRANCH  15  16
ENDBRANCH  11  15
TORSDOF 4
ENDMDL
MODEL      161
REMARK 921   NORMALIZED FREE ENERGY PREDICTED BY IDOCK:   -3.48 KCAL/MOL
REMARK 922        TOTAL FREE ENERGY PREDICTED BY IDOCK:   -4.52 KCAL/MOL
REMARK 923 INTER-LIGAND FREE ENERGY PREDICTED BY IDOCK:   -4.25 KCAL/MOL
REMARK 924 INTRA-LIGAND FREE ENERGY PREDICTED BY IDOCK:   -0.27 KCAL/MOL
REMARK 927      BINDING AFFINITY PREDICTED BY RF-SCORE:    0.00 PKD
ROOT
HETATM    1  N   UNL     1     -12.118  12.450  67.811  1.00  0.00    -0.423 NA 
HETATM    2  H2  UNL     1     -12.310  13.253  67.211  1.00  0.00     0.000 HD 
HETATM    3  H1  UNL     1     -12.501  12.419  68.756  1.00  0.00     0.000 HD 
HETATM    4  C   UNL     1     -11.356  11.429  67.348  1.00  0.00    -0.288 C  
HETATM    5  N   UNL     1     -10.868  11.468  66.145  1.00  0.00    -0.282 N  
HETATM    6  C   UNL     1     -10.110  10.392  65.661  1.00  0.00    -0.269 C  
HETATM    7  H   UNL     1     -11.036  12.281  65.552  1.00  0.00     0.000 HD 
HETATM    8  C   UNL     1      -9.980   9.254  66.583  1.00  0.00    -0.264 A  
HETATM    9  O   UNL     1      -9.596  10.398  64.547  1.00  0.00    -0.257 OA 
HETATM   10  C   UNL     1     -10.534   9.334  67.833  1.00  0.00    -0.236 A  
HETATM   11  N   UNL     1     -10.299   8.148  68.451  1.00  0.00    -0.208 NA 
HETATM   12  N   UNL     1     -11.195  10.418  68.266  1.00  0.00    -0.285 NA 
HETATM   13  C   UNL     1      -9.590   7.386  67.552  1.00  0.00    -0.140 A  
HETATM   14  N   UNL     1      -9.375   8.026  66.419  1.00  0.00    -0.197 NA 
ENDROOT
BRANCH  11  15
HETATM   15  C   UNL     1     -10.625   7.766  69.808  1.00  0.00    -0.241 C  
BRANCH  15  16
HETATM   16  O   UNL     1      -9.466   7.936  70.623  1.00  0.00    -0.161 OA 
BRANCH  16  17
HETATM   17  C   UNL     1      -9.763   8.738  71.773  1.00  0.00    -0.310 C  
BRANCH  17  18
HETATM   18  C   UNL     1     -11.020   8.194  72.444  1.00  0.00    -0.345 C  
HETATM   19  O   UNL     1     -10.671   7.188  73.391  1.00  0.00    -0.347 OA 
HETATM   20  H   UNL     1     -11.455   6.849  73.810  1.00  0.00     0.000 HD 
ENDBRANCH  17  18
ENDBRANCH  16  17
ENDBRANCH  15  16
ENDBRANCH  11  15
TORSDOF 4
ENDMDL
MODEL      162
REMARK 921   NORMALIZED FREE ENERGY PREDICTED BY IDOCK:   -3.48 KCAL/MOL
REMARK 922        TOTAL FREE ENERGY PREDICTED BY IDOCK:   -4.52 KCAL/MOL
REMARK 923 INTER-LIGAND FREE ENERGY PREDICTED BY IDOCK:   -4.35 KCAL/MOL
REMARK 924 INTRA-LIGAND FREE ENERGY PREDICTED BY IDOCK:   -0.17 KCAL/MOL
REMARK 927      BINDING AFFINITY PREDICTED BY RF-SCORE:    0.00 PKD
ROOT
HETATM    1  N   UNL     1      -6.495  12.601  69.953  1.00  0.00    -0.345 NA 
HETATM    2  H2  UNL     1      -5.532  12.503  70.274  1.00  0.00     0.000 HD 
HETATM    3  H1  UNL     1      -7.216  11.975  70.311  1.00  0.00     0.000 HD 
HETATM    4  C   UNL     1      -6.811  13.565  69.053  1.00  0.00    -0.107 C  
HETATM    5  N   UNL     1      -5.893  14.363  68.597  1.00  0.00    -0.082 N  
HETATM    6  C   UNL     1      -6.234  15.379  67.694  1.00  0.00    -0.142 C  
HETATM    7  H   UNL     1      -4.925  14.250  68.896  1.00  0.00     0.000 HD 
HETATM    8  C   UNL     1      -7.666  15.480  67.377  1.00  0.00    -0.194 A  
HETATM    9  O   UNL     1      -5.397  16.133  67.206  1.00  0.00    -0.261 OA 
HETATM   10  C   UNL     1      -8.540  14.573  67.915  1.00  0.00    -0.161 A  
HETATM   11  N   UNL     1      -9.784  14.917  67.493  1.00  0.00    -0.212 NA 
HETATM   12  N   UNL     1      -8.146  13.579  68.726  1.00  0.00    -0.043 NA 
HETATM   13  C   UNL     1      -9.620  16.023  66.693  1.00  0.00    -0.239 A  
HETATM   14  N   UNL     1      -8.355  16.384  66.596  1.00  0.00    -0.239 NA 
ENDROOT
BRANCH  11  15
HETATM   15  C   UNL     1     -11.033  14.228  67.734  1.00  0.00    -0.264 C  
BRANCH  15  16
HETATM   16  O   UNL     1     -11.380  13.486  66.565  1.00  0.00    -0.304 OA 
BRANCH  16  17
HETATM   17  C   UNL     1     -12.432  14.136  65.841  1.00  0.00    -0.453 C  
BRANCH  17  18
HETATM   18  C   UNL     1     -12.000  14.309  64.389  1.00  0.00    -0.456 C  
HETATM   19  O   UNL     1     -12.777  15.329  63.766  1.00  0.00    -0.846 OA 
HETATM   20  H   UNL     1     -12.507  15.436  62.861  1.00  0.00     0.000 HD 
ENDBRANCH  17  18
ENDBRANCH  16  17
ENDBRANCH  15  16
ENDBRANCH  11  15
TORSDOF 4
ENDMDL
MODEL      163
REMARK 921   NORMALIZED FREE ENERGY PREDICTED BY IDOCK:   -3.45 KCAL/MOL
REMARK 922        TOTAL FREE ENERGY PREDICTED BY IDOCK:   -4.48 KCAL/MOL
REMARK 923 INTER-LIGAND FREE ENERGY PREDICTED BY IDOCK:   -4.00 KCAL/MOL
REMARK 924 INTRA-LIGAND FREE ENERGY PREDICTED BY IDOCK:   -0.49 KCAL/MOL
REMARK 927      BINDING AFFINITY PREDICTED BY RF-SCORE:    0.00 PKD
ROOT
HETATM    1  N   UNL     1      -8.207   9.891  70.403  1.00  0.00    -0.369 NA 
HETATM    2  H2  UNL     1      -8.121   8.979  70.852  1.00  0.00     0.000 HD 
HETATM    3  H1  UNL     1      -7.767  10.708  70.825  1.00  0.00     0.000 HD 
HETATM    4  C   UNL     1      -8.905  10.010  69.247  1.00  0.00    -0.178 C  
HETATM    5  N   UNL     1      -9.465   8.969  68.708  1.00  0.00    -0.147 N  
HETATM    6  C   UNL     1     -10.155   9.093  67.494  1.00  0.00    -0.228 C  
HETATM    7  H   UNL     1      -9.404   8.061  69.169  1.00  0.00     0.000 HD 
HETATM    8  C   UNL     1     -10.131  10.437  66.897  1.00  0.00    -0.219 A  
HETATM    9  O   UNL     1     -10.733   8.148  66.966  1.00  0.00    -0.321 OA 
HETATM   10  C   UNL     1      -9.513  11.460  67.565  1.00  0.00    -0.167 A  
HETATM   11  N   UNL     1      -9.608  12.565  66.782  1.00  0.00    -0.225 NA 
HETATM   12  N   UNL     1      -8.923  11.295  68.759  1.00  0.00    -0.150 NA 
HETATM   13  C   UNL     1     -10.301  12.175  65.659  1.00  0.00    -0.257 A  
HETATM   14  N   UNL     1     -10.638  10.900  65.701  1.00  0.00    -0.206 NA 
ENDROOT
BRANCH  11  15
HETATM   15  C   UNL     1      -9.170  13.912  67.076  1.00  0.00    -0.250 C  
BRANCH  15  16
HETATM   16  O   UNL     1      -9.738  14.316  68.321  1.00  0.00    -0.209 OA 
BRANCH  16  17
HETATM   17  C   UNL     1     -11.071  14.809  68.138  1.00  0.00    -0.278 C  
BRANCH  17  18
HETATM   18  C   UNL     1     -12.004  14.086  69.104  1.00  0.00    -0.360 C  
HETATM   19  O   UNL     1     -11.351  12.943  69.650  1.00  0.00    -0.435 OA 
HETATM   20  H   UNL     1     -11.932  12.493  70.252  1.00  0.00     0.000 HD 
ENDBRANCH  17  18
ENDBRANCH  16  17
ENDBRANCH  15  16
ENDBRANCH  11  15
TORSDOF 4
ENDMDL
MODEL      164
REMARK 921   NORMALIZED FREE ENERGY PREDICTED BY IDOCK:   -3.44 KCAL/MOL
REMARK 922        TOTAL FREE ENERGY PREDICTED BY IDOCK:   -4.47 KCAL/MOL
REMARK 923 INTER-LIGAND FREE ENERGY PREDICTED BY IDOCK:   -4.27 KCAL/MOL
REMARK 924 INTRA-LIGAND FREE ENERGY PREDICTED BY IDOCK:   -0.20 KCAL/MOL
REMARK 927      BINDING AFFINITY PREDICTED BY RF-SCORE:    0.00 PKD
ROOT
HETATM    1  N   UNL     1     -11.649  13.367  63.720  1.00  0.00    -0.631 NA 
HETATM    2  H2  UNL     1     -11.663  14.219  63.159  1.00  0.00     0.000 HD 
HETATM    3  H1  UNL     1     -12.219  12.568  63.444  1.00  0.00     0.000 HD 
HETATM    4  C   UNL     1     -10.871  13.302  64.829  1.00  0.00    -0.360 C  
HETATM    5  N   UNL     1     -10.144  14.320  65.181  1.00  0.00    -0.524 N  
HETATM    6  C   UNL     1      -9.315  14.233  66.308  1.00  0.00    -0.208 C  
HETATM    7  H   UNL     1     -10.177  15.182  64.637  1.00  0.00     0.000 HD 
HETATM    8  C   UNL     1      -9.309  12.926  66.980  1.00  0.00    -0.235 A  
HETATM    9  O   UNL     1      -8.640  15.179  66.702  1.00  0.00    -0.263 OA 
HETATM   10  C   UNL     1     -10.127  11.928  66.520  1.00  0.00    -0.203 A  
HETATM   11  N   UNL     1      -9.897  10.834  67.290  1.00  0.00    -0.176 NA 
HETATM   12  N   UNL     1     -10.950  12.090  65.472  1.00  0.00    -0.290 NA 
HETATM   13  C   UNL     1      -8.949  11.212  68.211  1.00  0.00    -0.166 A  
HETATM   14  N   UNL     1      -8.579  12.469  68.057  1.00  0.00    -0.177 NA 
ENDROOT
BRANCH  11  15
HETATM   15  C   UNL     1     -10.563   9.551  67.244  1.00  0.00    -0.248 C  
BRANCH  15  16
HETATM   16  O   UNL     1      -9.756   8.591  67.926  1.00  0.00    -0.152 OA 
BRANCH  16  17
HETATM   17  C   UNL     1     -10.499   7.394  68.190  1.00  0.00    -0.193 C  
BRANCH  17  18
HETATM   18  C   UNL     1     -10.650   6.609  66.891  1.00  0.00    -0.306 C  
HETATM   19  O   UNL     1      -9.469   5.854  66.637  1.00  0.00    -0.142 OA 
HETATM   20  H   UNL     1      -9.563   5.364  65.828  1.00  0.00     0.000 HD 
ENDBRANCH  17  18
ENDBRANCH  16  17
ENDBRANCH  15  16
ENDBRANCH  11  15
TORSDOF 4
ENDMDL
MODEL      165
REMARK 921   NORMALIZED FREE ENERGY PREDICTED BY IDOCK:   -3.43 KCAL/MOL
REMARK 922        TOTAL FREE ENERGY PREDICTED BY IDOCK:   -4.45 KCAL/MOL
REMARK 923 INTER-LIGAND FREE ENERGY PREDICTED BY IDOCK:   -4.21 KCAL/MOL
REMARK 924 INTRA-LIGAND FREE ENERGY PREDICTED BY IDOCK:   -0.24 KCAL/MOL
REMARK 927      BINDING AFFINITY PREDICTED BY RF-SCORE:    0.00 PKD
ROOT
HETATM    1  N   UNL     1     -11.827  13.457  70.225  1.00  0.00    -0.505 NA 
HETATM    2  H2  UNL     1     -12.434  14.220  70.526  1.00  0.00     0.000 HD 
HETATM    3  H1  UNL     1     -11.344  12.890  70.921  1.00  0.00     0.000 HD 
HETATM    4  C   UNL     1     -11.668  13.202  68.903  1.00  0.00    -0.326 C  
HETATM    5  N   UNL     1     -12.283  13.924  68.017  1.00  0.00    -0.489 N  
HETATM    6  C   UNL     1     -12.142  13.632  66.653  1.00  0.00    -0.411 C  
HETATM    7  H   UNL     1     -12.870  14.705  68.313  1.00  0.00     0.000 HD 
HETATM    8  C   UNL     1     -11.317  12.453  66.349  1.00  0.00    -0.342 A  
HETATM    9  O   UNL     1     -12.671  14.308  65.777  1.00  0.00    -0.464 OA 
HETATM   10  C   UNL     1     -10.710  11.774  67.372  1.00  0.00    -0.236 A  
HETATM   11  N   UNL     1     -10.051  10.724  66.820  1.00  0.00    -0.214 NA 
HETATM   12  N   UNL     1     -10.830  12.140  68.658  1.00  0.00    -0.227 NA 
HETATM   13  C   UNL     1     -10.268  10.810  65.465  1.00  0.00    -0.266 A  
HETATM   14  N   UNL     1     -11.021  11.846  65.147  1.00  0.00    -0.306 NA 
ENDROOT
BRANCH  11  15
HETATM   15  C   UNL     1      -9.203   9.753  67.477  1.00  0.00    -0.130 C  
BRANCH  15  16
HETATM   16  O   UNL     1      -7.993  10.395  67.875  1.00  0.00    -0.101 OA 
BRANCH  16  17
HETATM   17  C   UNL     1      -7.032   9.435  68.333  1.00  0.00    -0.067 C  
BRANCH  17  18
HETATM   18  C   UNL     1      -7.104   8.199  67.443  1.00  0.00    -0.083 C  
HETATM   19  O   UNL     1      -5.959   8.139  66.597  1.00  0.00    -0.043 OA 
HETATM   20  H   UNL     1      -6.004   7.368  66.043  1.00  0.00     0.000 HD 
ENDBRANCH  17  18
ENDBRANCH  16  17
ENDBRANCH  15  16
ENDBRANCH  11  15
TORSDOF 4
ENDMDL
MODEL      166
REMARK 921   NORMALIZED FREE ENERGY PREDICTED BY IDOCK:   -3.41 KCAL/MOL
REMARK 922        TOTAL FREE ENERGY PREDICTED BY IDOCK:   -4.43 KCAL/MOL
REMARK 923 INTER-LIGAND FREE ENERGY PREDICTED BY IDOCK:   -4.27 KCAL/MOL
REMARK 924 INTRA-LIGAND FREE ENERGY PREDICTED BY IDOCK:   -0.17 KCAL/MOL
REMARK 927      BINDING AFFINITY PREDICTED BY RF-SCORE:    0.00 PKD
ROOT
HETATM    1  N   UNL     1     -12.678   8.457  72.654  1.00  0.00    -0.609 NA 
HETATM    2  H2  UNL     1     -12.849   8.606  73.649  1.00  0.00     0.000 HD 
HETATM    3  H1  UNL     1     -12.994   9.149  71.975  1.00  0.00     0.000 HD 
HETATM    4  C   UNL     1     -12.030   7.340  72.241  1.00  0.00    -0.221 C  
HETATM    5  N   UNL     1     -11.626   6.458  73.104  1.00  0.00    -0.428 N  
HETATM    6  C   UNL     1     -10.925   5.323  72.673  1.00  0.00    -0.260 C  
HETATM    7  H   UNL     1     -11.820   6.591  74.097  1.00  0.00     0.000 HD 
HETATM    8  C   UNL     1     -10.658   5.266  71.228  1.00  0.00    -0.172 A  
HETATM    9  O   UNL     1     -10.558   4.444  73.445  1.00  0.00    -0.173 OA 
HETATM   10  C   UNL     1     -11.143   6.255  70.414  1.00  0.00    -0.352 A  
HETATM   11  N   UNL     1     -10.725   5.976  69.153  1.00  0.00    -0.296 NA 
HETATM   12  N   UNL     1     -11.865   7.287  70.877  1.00  0.00    -0.318 NA 
HETATM   13  C   UNL     1     -10.005   4.808  69.242  1.00  0.00    -0.184 A  
HETATM   14  N   UNL     1      -9.953   4.349  70.478  1.00  0.00    -0.213 NA 
ENDROOT
BRANCH  11  15
HETATM   15  C   UNL     1     -11.035   6.684  67.930  1.00  0.00    -0.257 C  
BRANCH  15  16
HETATM   16  O   UNL     1     -10.370   7.947  67.950  1.00  0.00    -0.208 OA 
BRANCH  16  17
HETATM   17  C   UNL     1     -10.149   8.429  66.619  1.00  0.00    -0.288 C  
BRANCH  17  18
HETATM   18  C   UNL     1      -8.803   9.146  66.569  1.00  0.00    -0.134 C  
HETATM   19  O   UNL     1      -8.873  10.255  65.678  1.00  0.00    -0.155 OA 
HETATM   20  H   UNL     1      -8.034  10.702  65.647  1.00  0.00     0.000 HD 
ENDBRANCH  17  18
ENDBRANCH  16  17
ENDBRANCH  15  16
ENDBRANCH  11  15
TORSDOF 4
ENDMDL
MODEL      167
REMARK 921   NORMALIZED FREE ENERGY PREDICTED BY IDOCK:   -3.39 KCAL/MOL
REMARK 922        TOTAL FREE ENERGY PREDICTED BY IDOCK:   -4.40 KCAL/MOL
REMARK 923 INTER-LIGAND FREE ENERGY PREDICTED BY IDOCK:   -4.40 KCAL/MOL
REMARK 924 INTRA-LIGAND FREE ENERGY PREDICTED BY IDOCK:   -0.00 KCAL/MOL
REMARK 927      BINDING AFFINITY PREDICTED BY RF-SCORE:    0.00 PKD
ROOT
HETATM    1  N   UNL     1     -10.413  10.803  62.952  1.00  0.00    -0.741 NA 
HETATM    2  H2  UNL     1     -10.085  10.387  62.080  1.00  0.00     0.000 HD 
HETATM    3  H1  UNL     1     -11.371  11.148  63.021  1.00  0.00     0.000 HD 
HETATM    4  C   UNL     1      -9.575  10.893  64.014  1.00  0.00    -0.278 C  
HETATM    5  N   UNL     1      -8.356  10.453  63.927  1.00  0.00    -0.225 N  
HETATM    6  C   UNL     1      -7.506  10.517  65.040  1.00  0.00    -0.011 C  
HETATM    7  H   UNL     1      -8.017  10.061  63.048  1.00  0.00     0.000 HD 
HETATM    8  C   UNL     1      -8.120  11.050  66.265  1.00  0.00    -0.159 A  
HETATM    9  O   UNL     1      -6.336  10.151  64.996  1.00  0.00    -0.109 OA 
HETATM   10  C   UNL     1      -9.416  11.491  66.232  1.00  0.00    -0.217 A  
HETATM   11  N   UNL     1      -9.736  11.891  67.489  1.00  0.00    -0.180 NA 
HETATM   12  N   UNL     1     -10.163  11.464  65.117  1.00  0.00    -0.263 NA 
HETATM   13  C   UNL     1      -8.607  11.691  68.248  1.00  0.00    -0.162 A  
HETATM   14  N   UNL     1      -7.612  11.192  67.539  1.00  0.00    -0.104 NA 
ENDROOT
BRANCH  11  15
HETATM   15  C   UNL     1     -10.965  12.498  67.951  1.00  0.00    -0.227 C  
BRANCH  15  16
HETATM   16  O   UNL     1     -11.936  11.472  68.151  1.00  0.00    -0.571 OA 
BRANCH  16  17
HETATM   17  C   UNL     1     -11.522  10.571  69.185  1.00  0.00    -0.247 C  
BRANCH  17  18
HETATM   18  C   UNL     1     -12.443  10.741  70.388  1.00  0.00    -0.347 C  
HETATM   19  O   UNL     1     -13.499   9.786  70.335  1.00  0.00    -0.560 OA 
HETATM   20  H   UNL     1     -14.072   9.892  71.085  1.00  0.00     0.000 HD 
ENDBRANCH  17  18
ENDBRANCH  16  17
ENDBRANCH  15  16
ENDBRANCH  11  15
TORSDOF 4
ENDMDL
MODEL      168
REMARK 921   NORMALIZED FREE ENERGY PREDICTED BY IDOCK:   -3.38 KCAL/MOL
REMARK 922        TOTAL FREE ENERGY PREDICTED BY IDOCK:   -4.39 KCAL/MOL
REMARK 923 INTER-LIGAND FREE ENERGY PREDICTED BY IDOCK:   -4.11 KCAL/MOL
REMARK 924 INTRA-LIGAND FREE ENERGY PREDICTED BY IDOCK:   -0.28 KCAL/MOL
REMARK 927      BINDING AFFINITY PREDICTED BY RF-SCORE:    0.00 PKD
ROOT
HETATM    1  N   UNL     1     -12.560   8.345  71.926  1.00  0.00    -0.332 NA 
HETATM    2  H2  UNL     1     -12.623   7.524  72.528  1.00  0.00     0.000 HD 
HETATM    3  H1  UNL     1     -13.292   9.054  71.956  1.00  0.00     0.000 HD 
HETATM    4  C   UNL     1     -11.502   8.489  71.089  1.00  0.00    -0.276 C  
HETATM    5  N   UNL     1     -10.569   7.586  71.051  1.00  0.00    -0.219 N  
HETATM    6  C   UNL     1      -9.461   7.759  70.209  1.00  0.00    -0.160 C  
HETATM    7  H   UNL     1     -10.642   6.752  71.632  1.00  0.00     0.000 HD 
HETATM    8  C   UNL     1      -9.437   9.024  69.460  1.00  0.00    -0.164 A  
HETATM    9  O   UNL     1      -8.573   6.918  70.109  1.00  0.00    -0.138 OA 
HETATM   10  C   UNL     1     -10.486   9.897  69.577  1.00  0.00    -0.241 A  
HETATM   11  N   UNL     1     -10.191  10.982  68.818  1.00  0.00    -0.192 NA 
HETATM   12  N   UNL     1     -11.554   9.647  70.351  1.00  0.00    -0.255 NA 
HETATM   13  C   UNL     1      -8.967  10.724  68.247  1.00  0.00    -0.143 A  
HETATM   14  N   UNL     1      -8.488   9.548  68.607  1.00  0.00    -0.117 NA 
ENDROOT
BRANCH  11  15
HETATM   15  C   UNL     1     -11.012  12.145  68.560  1.00  0.00    -0.238 C  
BRANCH  15  16
HETATM   16  O   UNL     1     -11.915  11.841  67.497  1.00  0.00    -0.607 OA 
BRANCH  16  17
HETATM   17  C   UNL     1     -11.859  12.845  66.476  1.00  0.00    -0.407 C  
BRANCH  17  18
HETATM   18  C   UNL     1     -10.771  13.853  66.832  1.00  0.00    -0.284 C  
HETATM   19  O   UNL     1     -11.164  15.160  66.425  1.00  0.00    -0.339 OA 
HETATM   20  H   UNL     1     -10.486  15.788  66.646  1.00  0.00     0.000 HD 
ENDBRANCH  17  18
ENDBRANCH  16  17
ENDBRANCH  15  16
ENDBRANCH  11  15
TORSDOF 4
ENDMDL
MODEL      169
REMARK 921   NORMALIZED FREE ENERGY PREDICTED BY IDOCK:   -3.38 KCAL/MOL
REMARK 922        TOTAL FREE ENERGY PREDICTED BY IDOCK:   -4.39 KCAL/MOL
REMARK 923 INTER-LIGAND FREE ENERGY PREDICTED BY IDOCK:   -4.19 KCAL/MOL
REMARK 924 INTRA-LIGAND FREE ENERGY PREDICTED BY IDOCK:   -0.20 KCAL/MOL
REMARK 927      BINDING AFFINITY PREDICTED BY RF-SCORE:    0.00 PKD
ROOT
HETATM    1  N   UNL     1      -5.494  19.276  67.413  1.00  0.00    -0.163 NA 
HETATM    2  H2  UNL     1      -4.617  19.708  67.706  1.00  0.00     0.000 HD 
HETATM    3  H1  UNL     1      -5.999  19.647  66.608  1.00  0.00     0.000 HD 
HETATM    4  C   UNL     1      -5.983  18.212  68.097  1.00  0.00    -0.173 C  
HETATM    5  N   UNL     1      -5.341  17.739  69.122  1.00  0.00    -0.176 N  
HETATM    6  C   UNL     1      -5.834  16.616  69.801  1.00  0.00    -0.206 C  
HETATM    7  H   UNL     1      -4.478  18.185  69.433  1.00  0.00     0.000 HD 
HETATM    8  C   UNL     1      -7.054  16.027  69.231  1.00  0.00    -0.220 A  
HETATM    9  O   UNL     1      -5.285  16.157  70.797  1.00  0.00    -0.176 OA 
HETATM   10  C   UNL     1      -7.648  16.622  68.149  1.00  0.00    -0.171 A  
HETATM   11  N   UNL     1      -8.719  15.860  67.811  1.00  0.00    -0.169 NA 
HETATM   12  N   UNL     1      -7.164  17.736  67.578  1.00  0.00    -0.188 NA 
HETATM   13  C   UNL     1      -8.751  14.827  68.718  1.00  0.00    -0.178 A  
HETATM   14  N   UNL     1      -7.766  14.902  69.592  1.00  0.00    -0.132 NA 
ENDROOT
BRANCH  11  15
HETATM   15  C   UNL     1      -9.704  16.107  66.780  1.00  0.00    -0.242 C  
BRANCH  15  16
HETATM   16  O   UNL     1     -10.593  14.993  66.719  1.00  0.00    -0.289 OA 
BRANCH  16  17
HETATM   17  C   UNL     1     -10.693  14.492  65.381  1.00  0.00    -0.361 C  
BRANCH  17  18
HETATM   18  C   UNL     1     -11.339  15.556  64.500  1.00  0.00    -0.314 C  
HETATM   19  O   UNL     1     -12.314  14.961  63.648  1.00  0.00    -1.035 OA 
HETATM   20  H   UNL     1     -12.716  15.624  63.100  1.00  0.00     0.000 HD 
ENDBRANCH  17  18
ENDBRANCH  16  17
ENDBRANCH  15  16
ENDBRANCH  11  15
TORSDOF 4
ENDMDL
MODEL      170
REMARK 921   NORMALIZED FREE ENERGY PREDICTED BY IDOCK:   -3.37 KCAL/MOL
REMARK 922        TOTAL FREE ENERGY PREDICTED BY IDOCK:   -4.38 KCAL/MOL
REMARK 923 INTER-LIGAND FREE ENERGY PREDICTED BY IDOCK:   -4.13 KCAL/MOL
REMARK 924 INTRA-LIGAND FREE ENERGY PREDICTED BY IDOCK:   -0.25 KCAL/MOL
REMARK 927      BINDING AFFINITY PREDICTED BY RF-SCORE:    0.00 PKD
ROOT
HETATM    1  N   UNL     1     -10.309  11.693  67.457  1.00  0.00    -0.194 NA 
HETATM    2  H2  UNL     1     -10.068  10.733  67.704  1.00  0.00     0.000 HD 
HETATM    3  H1  UNL     1     -11.288  11.962  67.358  1.00  0.00     0.000 HD 
HETATM    4  C   UNL     1      -9.326  12.607  67.263  1.00  0.00    -0.195 C  
HETATM    5  N   UNL     1      -8.079  12.265  67.389  1.00  0.00    -0.166 N  
HETATM    6  C   UNL     1      -7.069  13.224  67.222  1.00  0.00    -0.001 C  
HETATM    7  H   UNL     1      -7.834  11.300  67.610  1.00  0.00     0.000 HD 
HETATM    8  C   UNL     1      -7.543  14.591  66.960  1.00  0.00     0.149 A  
HETATM    9  O   UNL     1      -5.877  12.942  67.293  1.00  0.00    -0.308 OA 
HETATM   10  C   UNL     1      -8.886  14.827  66.839  1.00  0.00    -0.248 A  
HETATM   11  N   UNL     1      -9.042  16.160  66.639  1.00  0.00    -0.229 NA 
HETATM   12  N   UNL     1      -9.806  13.855  66.946  1.00  0.00    -0.260 NA 
HETATM   13  C   UNL     1      -7.775  16.693  66.629  1.00  0.00    -0.281 A  
HETATM   14  N   UNL     1      -6.847  15.772  66.812  1.00  0.00    -0.184 NA 
ENDROOT
BRANCH  11  15
HETATM   15  C   UNL     1     -10.265  16.891  66.386  1.00  0.00    -0.321 C  
BRANCH  15  16
HETATM   16  O   UNL     1     -10.635  17.591  67.572  1.00  0.00    -0.358 OA 
BRANCH  16  17
HETATM   17  C   UNL     1     -10.605  19.008  67.360  1.00  0.00    -0.474 C  
BRANCH  17  18
HETATM   18  C   UNL     1     -10.422  19.282  65.871  1.00  0.00    -0.451 C  
HETATM   19  O   UNL     1      -9.772  20.536  65.681  1.00  0.00    -0.607 OA 
HETATM   20  H   UNL     1      -9.658  20.706  64.753  1.00  0.00     0.000 HD 
ENDBRANCH  17  18
ENDBRANCH  16  17
ENDBRANCH  15  16
ENDBRANCH  11  15
TORSDOF 4
ENDMDL
MODEL      171
REMARK 921   NORMALIZED FREE ENERGY PREDICTED BY IDOCK:   -3.36 KCAL/MOL
REMARK 922        TOTAL FREE ENERGY PREDICTED BY IDOCK:   -4.37 KCAL/MOL
REMARK 923 INTER-LIGAND FREE ENERGY PREDICTED BY IDOCK:   -4.21 KCAL/MOL
REMARK 924 INTRA-LIGAND FREE ENERGY PREDICTED BY IDOCK:   -0.16 KCAL/MOL
REMARK 927      BINDING AFFINITY PREDICTED BY RF-SCORE:    0.00 PKD
ROOT
HETATM    1  N   UNL     1      -8.965  10.130  63.474  1.00  0.00    -0.222 NA 
HETATM    2  H2  UNL     1      -8.518   9.842  62.604  1.00  0.00     0.000 HD 
HETATM    3  H1  UNL     1      -9.364  11.065  63.555  1.00  0.00     0.000 HD 
HETATM    4  C   UNL     1      -9.028   9.267  64.519  1.00  0.00    -0.136 C  
HETATM    5  N   UNL     1      -8.521   8.076  64.417  1.00  0.00    -0.382 N  
HETATM    6  C   UNL     1      -8.621   7.177  65.488  1.00  0.00    -0.080 C  
HETATM    7  H   UNL     1      -8.049   7.794  63.557  1.00  0.00     0.000 HD 
HETATM    8  C   UNL     1      -9.368   7.675  66.653  1.00  0.00    -0.190 A  
HETATM    9  O   UNL     1      -8.124   6.056  65.454  1.00  0.00    -0.118 OA 
HETATM   10  C   UNL     1      -9.850   8.956  66.647  1.00  0.00    -0.262 A  
HETATM   11  N   UNL     1     -10.521   9.137  67.813  1.00  0.00    -0.246 NA 
HETATM   12  N   UNL     1      -9.668   9.795  65.615  1.00  0.00    -0.271 NA 
HETATM   13  C   UNL     1     -10.409   7.953  68.502  1.00  0.00    -0.200 A  
HETATM   14  N   UNL     1      -9.714   7.052  67.834  1.00  0.00    -0.123 NA 
ENDROOT
BRANCH  11  15
HETATM   15  C   UNL     1     -11.150  10.343  68.306  1.00  0.00    -0.281 C  
BRANCH  15  16
HETATM   16  O   UNL     1     -11.110  10.331  69.732  1.00  0.00    -0.249 OA 
BRANCH  16  17
HETATM   17  C   UNL     1     -12.002  11.312  70.277  1.00  0.00    -0.379 C  
BRANCH  17  18
HETATM   18  C   UNL     1     -12.875  10.651  71.338  1.00  0.00    -0.451 C  
HETATM   19  O   UNL     1     -13.357  11.631  72.254  1.00  0.00    -0.625 OA 
HETATM   20  H   UNL     1     -13.901  11.220  72.915  1.00  0.00     0.000 HD 
ENDBRANCH  17  18
ENDBRANCH  16  17
ENDBRANCH  15  16
ENDBRANCH  11  15
TORSDOF 4
ENDMDL
MODEL      172
REMARK 921   NORMALIZED FREE ENERGY PREDICTED BY IDOCK:   -3.36 KCAL/MOL
REMARK 922        TOTAL FREE ENERGY PREDICTED BY IDOCK:   -4.37 KCAL/MOL
REMARK 923 INTER-LIGAND FREE ENERGY PREDICTED BY IDOCK:   -4.40 KCAL/MOL
REMARK 924 INTRA-LIGAND FREE ENERGY PREDICTED BY IDOCK:    0.03 KCAL/MOL
REMARK 927      BINDING AFFINITY PREDICTED BY RF-SCORE:    0.00 PKD
ROOT
HETATM    1  N   UNL     1     -12.210  12.657  67.196  1.00  0.00    -0.406 NA 
HETATM    2  H2  UNL     1     -11.806  12.666  66.259  1.00  0.00     0.000 HD 
HETATM    3  H1  UNL     1     -12.876  13.381  67.468  1.00  0.00     0.000 HD 
HETATM    4  C   UNL     1     -11.861  11.683  68.072  1.00  0.00    -0.225 C  
HETATM    5  N   UNL     1     -11.015  10.761  67.726  1.00  0.00    -0.275 N  
HETATM    6  C   UNL     1     -10.686   9.737  68.625  1.00  0.00    -0.216 C  
HETATM    7  H   UNL     1     -10.589  10.782  66.799  1.00  0.00     0.000 HD 
HETATM    8  C   UNL     1     -11.402   9.779  69.908  1.00  0.00    -0.192 A  
HETATM    9  O   UNL     1      -9.863   8.867  68.358  1.00  0.00    -0.164 OA 
HETATM   10  C   UNL     1     -12.268  10.809  70.163  1.00  0.00    -0.346 A  
HETATM   11  N   UNL     1     -12.810  10.583  71.387  1.00  0.00    -0.411 NA 
HETATM   12  N   UNL     1     -12.495  11.799  69.286  1.00  0.00    -0.054 NA 
HETATM   13  C   UNL     1     -12.238   9.419  71.846  1.00  0.00    -0.368 A  
HETATM   14  N   UNL     1     -11.379   8.913  70.982  1.00  0.00    -0.276 NA 
ENDROOT
BRANCH  11  15
HETATM   15  C   UNL     1     -13.727  11.420  72.129  1.00  0.00     0.185 C  
BRANCH  15  16
HETATM   16  O   UNL     1     -13.038  12.599  72.544  1.00  0.00    -0.310 OA 
BRANCH  16  17
HETATM   17  C   UNL     1     -13.397  13.717  71.724  1.00  0.00    -0.383 C  
BRANCH  17  18
HETATM   18  C   UNL     1     -12.878  14.995  72.373  1.00  0.00    -0.349 C  
HETATM   19  O   UNL     1     -13.650  15.304  73.530  1.00  0.00    -0.610 OA 
HETATM   20  H   UNL     1     -13.326  16.100  73.935  1.00  0.00     0.000 HD 
ENDBRANCH  17  18
ENDBRANCH  16  17
ENDBRANCH  15  16
ENDBRANCH  11  15
TORSDOF 4
ENDMDL
MODEL      173
REMARK 921   NORMALIZED FREE ENERGY PREDICTED BY IDOCK:   -3.35 KCAL/MOL
REMARK 922        TOTAL FREE ENERGY PREDICTED BY IDOCK:   -4.35 KCAL/MOL
REMARK 923 INTER-LIGAND FREE ENERGY PREDICTED BY IDOCK:   -4.07 KCAL/MOL
REMARK 924 INTRA-LIGAND FREE ENERGY PREDICTED BY IDOCK:   -0.28 KCAL/MOL
REMARK 927      BINDING AFFINITY PREDICTED BY RF-SCORE:    0.00 PKD
ROOT
HETATM    1  N   UNL     1     -10.385   7.025  71.292  1.00  0.00    -0.202 NA 
HETATM    2  H2  UNL     1      -9.994   6.105  71.495  1.00  0.00     0.000 HD 
HETATM    3  H1  UNL     1     -10.816   7.569  72.039  1.00  0.00     0.000 HD 
HETATM    4  C   UNL     1     -10.329   7.519  70.030  1.00  0.00    -0.221 C  
HETATM    5  N   UNL     1      -9.779   6.826  69.079  1.00  0.00    -0.145 N  
HETATM    6  C   UNL     1      -9.692   7.358  67.785  1.00  0.00    -0.143 C  
HETATM    7  H   UNL     1      -9.411   5.895  69.273  1.00  0.00     0.000 HD 
HETATM    8  C   UNL     1     -10.207   8.728  67.637  1.00  0.00    -0.239 A  
HETATM    9  O   UNL     1      -9.218   6.728  66.845  1.00  0.00    -0.133 OA 
HETATM   10  C   UNL     1     -10.773   9.355  68.714  1.00  0.00    -0.171 A  
HETATM   11  N   UNL     1     -11.124  10.603  68.313  1.00  0.00    -0.258 NA 
HETATM   12  N   UNL     1     -10.886   8.770  69.917  1.00  0.00    -0.226 NA 
HETATM   13  C   UNL     1     -10.770  10.688  66.987  1.00  0.00    -0.259 A  
HETATM   14  N   UNL     1     -10.221   9.572  66.546  1.00  0.00    -0.253 NA 
ENDROOT
BRANCH  11  15
HETATM   15  C   UNL     1     -11.818  11.625  69.067  1.00  0.00    -0.328 C  
BRANCH  15  16
HETATM   16  O   UNL     1     -11.096  12.850  68.950  1.00  0.00    -0.246 OA 
BRANCH  16  17
HETATM   17  C   UNL     1     -11.972  13.927  68.593  1.00  0.00    -0.366 C  
BRANCH  17  18
HETATM   18  C   UNL     1     -11.727  14.303  67.136  1.00  0.00    -0.404 C  
HETATM   19  O   UNL     1     -12.899  14.059  66.364  1.00  0.00    -0.474 OA 
HETATM   20  H   UNL     1     -12.746  14.294  65.456  1.00  0.00     0.000 HD 
ENDBRANCH  17  18
ENDBRANCH  16  17
ENDBRANCH  15  16
ENDBRANCH  11  15
TORSDOF 4
ENDMDL
MODEL      174
REMARK 921   NORMALIZED FREE ENERGY PREDICTED BY IDOCK:   -3.34 KCAL/MOL
REMARK 922        TOTAL FREE ENERGY PREDICTED BY IDOCK:   -4.35 KCAL/MOL
REMARK 923 INTER-LIGAND FREE ENERGY PREDICTED BY IDOCK:   -4.14 KCAL/MOL
REMARK 924 INTRA-LIGAND FREE ENERGY PREDICTED BY IDOCK:   -0.21 KCAL/MOL
REMARK 927      BINDING AFFINITY PREDICTED BY RF-SCORE:    0.00 PKD
ROOT
HETATM    1  N   UNL     1      -5.581  20.093  67.409  1.00  0.00    -0.173 NA 
HETATM    2  H2  UNL     1      -5.372  21.088  67.494  1.00  0.00     0.000 HD 
HETATM    3  H1  UNL     1      -4.820  19.414  67.402  1.00  0.00     0.000 HD 
HETATM    4  C   UNL     1      -6.868  19.680  67.306  1.00  0.00    -0.202 C  
HETATM    5  N   UNL     1      -7.837  20.545  67.315  1.00  0.00    -0.348 N  
HETATM    6  C   UNL     1      -9.168  20.108  67.244  1.00  0.00    -0.382 C  
HETATM    7  H   UNL     1      -7.631  21.542  67.373  1.00  0.00     0.000 HD 
HETATM    8  C   UNL     1      -9.345  18.649  67.218  1.00  0.00    -0.287 A  
HETATM    9  O   UNL     1     -10.115  20.887  67.210  1.00  0.00    -0.301 OA 
HETATM   10  C   UNL     1      -8.243  17.836  67.204  1.00  0.00    -0.219 A  
HETATM   11  N   UNL     1      -8.690  16.554  67.217  1.00  0.00    -0.184 NA 
HETATM   12  N   UNL     1      -6.989  18.314  67.209  1.00  0.00    -0.196 NA 
HETATM   13  C   UNL     1     -10.063  16.632  67.224  1.00  0.00    -0.279 A  
HETATM   14  N   UNL     1     -10.491  17.880  67.216  1.00  0.00    -0.373 NA 
ENDROOT
BRANCH  11  15
HETATM   15  C   UNL     1      -7.916  15.335  67.142  1.00  0.00    -0.218 C  
BRANCH  15  16
HETATM   16  O   UNL     1      -8.586  14.319  67.887  1.00  0.00    -0.153 OA 
BRANCH  16  17
HETATM   17  C   UNL     1      -8.130  13.017  67.499  1.00  0.00    -0.179 C  
BRANCH  17  18
HETATM   18  C   UNL     1      -9.298  12.242  66.898  1.00  0.00    -0.210 C  
HETATM   19  O   UNL     1      -9.313  12.401  65.482  1.00  0.00    -0.437 OA 
HETATM   20  H   UNL     1     -10.041  11.919  65.108  1.00  0.00     0.000 HD 
ENDBRANCH  17  18
ENDBRANCH  16  17
ENDBRANCH  15  16
ENDBRANCH  11  15
TORSDOF 4
ENDMDL
MODEL      175
REMARK 921   NORMALIZED FREE ENERGY PREDICTED BY IDOCK:   -3.34 KCAL/MOL
REMARK 922        TOTAL FREE ENERGY PREDICTED BY IDOCK:   -4.34 KCAL/MOL
REMARK 923 INTER-LIGAND FREE ENERGY PREDICTED BY IDOCK:   -4.13 KCAL/MOL
REMARK 924 INTRA-LIGAND FREE ENERGY PREDICTED BY IDOCK:   -0.21 KCAL/MOL
REMARK 927      BINDING AFFINITY PREDICTED BY RF-SCORE:    0.00 PKD
ROOT
HETATM    1  N   UNL     1     -12.738  14.084  66.383  1.00  0.00    -0.477 NA 
HETATM    2  H2  UNL     1     -13.477  13.397  66.536  1.00  0.00     0.000 HD 
HETATM    3  H1  UNL     1     -12.960  14.981  65.951  1.00  0.00     0.000 HD 
HETATM    4  C   UNL     1     -11.465  13.800  66.753  1.00  0.00    -0.348 C  
HETATM    5  N   UNL     1     -11.181  12.658  67.303  1.00  0.00    -0.282 N  
HETATM    6  C   UNL     1      -9.870  12.385  67.717  1.00  0.00    -0.203 C  
HETATM    7  H   UNL     1     -11.913  11.959  67.434  1.00  0.00     0.000 HD 
HETATM    8  C   UNL     1      -8.913  13.486  67.527  1.00  0.00    -0.210 A  
HETATM    9  O   UNL     1      -9.545  11.307  68.205  1.00  0.00    -0.173 OA 
HETATM   10  C   UNL     1      -9.330  14.644  66.927  1.00  0.00    -0.243 A  
HETATM   11  N   UNL     1      -8.270  15.492  66.913  1.00  0.00    -0.236 NA 
HETATM   12  N   UNL     1     -10.587  14.824  66.492  1.00  0.00    -0.293 NA 
HETATM   13  C   UNL     1      -7.230  14.807  67.497  1.00  0.00    -0.197 A  
HETATM   14  N   UNL     1      -7.582  13.592  67.872  1.00  0.00    -0.138 NA 
ENDROOT
BRANCH  11  15
HETATM   15  C   UNL     1      -8.186  16.811  66.325  1.00  0.00    -0.324 C  
BRANCH  15  16
HETATM   16  O   UNL     1      -7.165  17.548  66.997  1.00  0.00    -0.164 OA 
BRANCH  16  17
HETATM   17  C   UNL     1      -7.727  18.387  68.014  1.00  0.00    -0.261 C  
BRANCH  17  18
HETATM   18  C   UNL     1      -6.693  18.588  69.117  1.00  0.00    -0.263 C  
HETATM   19  O   UNL     1      -6.490  19.979  69.349  1.00  0.00    -0.322 OA 
HETATM   20  H   UNL     1      -5.846  20.104  70.036  1.00  0.00     0.000 HD 
ENDBRANCH  17  18
ENDBRANCH  16  17
ENDBRANCH  15  16
ENDBRANCH  11  15
TORSDOF 4
ENDMDL
MODEL      176
REMARK 921   NORMALIZED FREE ENERGY PREDICTED BY IDOCK:   -3.32 KCAL/MOL
REMARK 922        TOTAL FREE ENERGY PREDICTED BY IDOCK:   -4.32 KCAL/MOL
REMARK 923 INTER-LIGAND FREE ENERGY PREDICTED BY IDOCK:   -4.08 KCAL/MOL
REMARK 924 INTRA-LIGAND FREE ENERGY PREDICTED BY IDOCK:   -0.25 KCAL/MOL
REMARK 927      BINDING AFFINITY PREDICTED BY RF-SCORE:    0.00 PKD
ROOT
HETATM    1  N   UNL     1      -8.185  11.635  65.980  1.00  0.00    -0.378 NA 
HETATM    2  H2  UNL     1      -7.534  10.978  65.548  1.00  0.00     0.000 HD 
HETATM    3  H1  UNL     1      -8.313  12.562  65.576  1.00  0.00     0.000 HD 
HETATM    4  C   UNL     1      -8.875  11.270  67.089  1.00  0.00    -0.153 C  
HETATM    5  N   UNL     1      -8.712  10.088  67.603  1.00  0.00    -0.122 N  
HETATM    6  C   UNL     1      -9.456   9.705  68.728  1.00  0.00    -0.148 C  
HETATM    7  H   UNL     1      -8.043   9.439  67.189  1.00  0.00     0.000 HD 
HETATM    8  C   UNL     1     -10.427  10.701  69.205  1.00  0.00    -0.222 A  
HETATM    9  O   UNL     1      -9.310   8.615  69.273  1.00  0.00    -0.152 OA 
HETATM   10  C   UNL     1     -10.501  11.920  68.583  1.00  0.00    -0.212 A  
HETATM   11  N   UNL     1     -11.491  12.620  69.193  1.00  0.00    -0.288 NA 
HETATM   12  N   UNL     1      -9.717  12.255  67.547  1.00  0.00    -0.187 NA 
HETATM   13  C   UNL     1     -11.979  11.802  70.185  1.00  0.00    -0.339 A  
HETATM   14  N   UNL     1     -11.354  10.641  70.224  1.00  0.00    -0.316 NA 
ENDROOT
BRANCH  11  15
HETATM   15  C   UNL     1     -11.908  13.983  68.945  1.00  0.00    -0.355 C  
BRANCH  15  16
HETATM   16  O   UNL     1     -11.041  14.864  69.658  1.00  0.00    -0.257 OA 
BRANCH  16  17
HETATM   17  C   UNL     1     -10.200  15.595  68.756  1.00  0.00    -0.215 C  
BRANCH  17  18
HETATM   18  C   UNL     1     -10.442  17.087  68.952  1.00  0.00    -0.347 C  
HETATM   19  O   UNL     1     -10.782  17.695  67.709  1.00  0.00    -0.388 OA 
HETATM   20  H   UNL     1     -10.933  18.625  67.832  1.00  0.00     0.000 HD 
ENDBRANCH  17  18
ENDBRANCH  16  17
ENDBRANCH  15  16
ENDBRANCH  11  15
TORSDOF 4
ENDMDL
MODEL      177
REMARK 921   NORMALIZED FREE ENERGY PREDICTED BY IDOCK:   -3.31 KCAL/MOL
REMARK 922        TOTAL FREE ENERGY PREDICTED BY IDOCK:   -4.31 KCAL/MOL
REMARK 923 INTER-LIGAND FREE ENERGY PREDICTED BY IDOCK:   -4.10 KCAL/MOL
REMARK 924 INTRA-LIGAND FREE ENERGY PREDICTED BY IDOCK:   -0.21 KCAL/MOL
REMARK 927      BINDING AFFINITY PREDICTED BY RF-SCORE:    0.00 PKD
ROOT
HETATM    1  N   UNL     1     -10.279  14.902  67.048  1.00  0.00    -0.254 NA 
HETATM    2  H2  UNL     1      -9.726  15.477  66.411  1.00  0.00     0.000 HD 
HETATM    3  H1  UNL     1     -11.051  15.320  67.568  1.00  0.00     0.000 HD 
HETATM    4  C   UNL     1      -9.986  13.587  67.197  1.00  0.00    -0.246 C  
HETATM    5  N   UNL     1      -9.005  13.054  66.534  1.00  0.00    -0.423 N  
HETATM    6  C   UNL     1      -8.730  11.686  66.666  1.00  0.00    -0.187 C  
HETATM    7  H   UNL     1      -8.433  13.632  65.917  1.00  0.00     0.000 HD 
HETATM    8  C   UNL     1      -9.653  10.945  67.540  1.00  0.00    -0.155 A  
HETATM    9  O   UNL     1      -7.791  11.145  66.092  1.00  0.00    -0.149 OA 
HETATM   10  C   UNL     1     -10.649  11.620  68.194  1.00  0.00    -0.201 A  
HETATM   11  N   UNL     1     -11.364  10.701  68.891  1.00  0.00    -0.265 NA 
HETATM   12  N   UNL     1     -10.824  12.946  68.078  1.00  0.00    -0.233 NA 
HETATM   13  C   UNL     1     -10.763   9.489  68.648  1.00  0.00    -0.184 A  
HETATM   14  N   UNL     1      -9.724   9.602  67.843  1.00  0.00    -0.143 NA 
ENDROOT
BRANCH  11  15
HETATM   15  C   UNL     1     -12.473  10.926  69.793  1.00  0.00    -0.182 C  
BRANCH  15  16
HETATM   16  O   UNL     1     -12.008  11.676  70.914  1.00  0.00    -0.289 OA 
BRANCH  16  17
HETATM   17  C   UNL     1     -12.956  12.685  71.282  1.00  0.00    -0.214 C  
BRANCH  17  18
HETATM   18  C   UNL     1     -12.435  14.044  70.828  1.00  0.00    -0.372 C  
HETATM   19  O   UNL     1     -13.507  14.980  70.754  1.00  0.00    -0.606 OA 
HETATM   20  H   UNL     1     -13.182  15.827  70.471  1.00  0.00     0.000 HD 
ENDBRANCH  17  18
ENDBRANCH  16  17
ENDBRANCH  15  16
ENDBRANCH  11  15
TORSDOF 4
ENDMDL
MODEL      178
REMARK 921   NORMALIZED FREE ENERGY PREDICTED BY IDOCK:   -3.29 KCAL/MOL
REMARK 922        TOTAL FREE ENERGY PREDICTED BY IDOCK:   -4.29 KCAL/MOL
REMARK 923 INTER-LIGAND FREE ENERGY PREDICTED BY IDOCK:   -4.10 KCAL/MOL
REMARK 924 INTRA-LIGAND FREE ENERGY PREDICTED BY IDOCK:   -0.19 KCAL/MOL
REMARK 927      BINDING AFFINITY PREDICTED BY RF-SCORE:    0.00 PKD
ROOT
HETATM    1  N   UNL     1     -10.051   6.493  70.099  1.00  0.00    -0.173 NA 
HETATM    2  H2  UNL     1      -9.521   5.646  69.890  1.00  0.00     0.000 HD 
HETATM    3  H1  UNL     1     -10.489   6.604  71.013  1.00  0.00     0.000 HD 
HETATM    4  C   UNL     1     -10.168   7.465  69.162  1.00  0.00    -0.196 C  
HETATM    5  N   UNL     1      -9.609   7.325  67.998  1.00  0.00    -0.138 N  
HETATM    6  C   UNL     1      -9.704   8.350  67.046  1.00  0.00    -0.206 C  
HETATM    7  H   UNL     1      -9.101   6.469  67.776  1.00  0.00     0.000 HD 
HETATM    8  C   UNL     1     -10.412   9.557  67.497  1.00  0.00    -0.275 A  
HETATM    9  O   UNL     1      -9.226   8.249  65.920  1.00  0.00    -0.181 OA 
HETATM   10  C   UNL     1     -10.968   9.584  68.748  1.00  0.00    -0.080 A  
HETATM   11  N   UNL     1     -11.520  10.813  68.914  1.00  0.00    -0.281 NA 
HETATM   12  N   UNL     1     -10.900   8.545  69.594  1.00  0.00    -0.197 NA 
HETATM   13  C   UNL     1     -11.292  11.493  67.741  1.00  0.00    -0.296 A  
HETATM   14  N   UNL     1     -10.634  10.761  66.862  1.00  0.00    -0.253 NA 
ENDROOT
BRANCH  11  15
HETATM   15  C   UNL     1     -12.283  11.307  70.040  1.00  0.00    -0.314 C  
BRANCH  15  16
HETATM   16  O   UNL     1     -11.943  10.542  71.195  1.00  0.00    -0.352 OA 
BRANCH  16  17
HETATM   17  C   UNL     1     -13.094  10.324  72.021  1.00  0.00    -0.425 C  
BRANCH  17  18
HETATM   18  C   UNL     1     -13.670   8.946  71.715  1.00  0.00    -0.422 C  
HETATM   19  O   UNL     1     -12.650   7.956  71.821  1.00  0.00    -0.311 OA 
HETATM   20  H   UNL     1     -13.009   7.097  71.630  1.00  0.00     0.000 HD 
ENDBRANCH  17  18
ENDBRANCH  16  17
ENDBRANCH  15  16
ENDBRANCH  11  15
TORSDOF 4
ENDMDL
MODEL      179
REMARK 921   NORMALIZED FREE ENERGY PREDICTED BY IDOCK:   -3.29 KCAL/MOL
REMARK 922        TOTAL FREE ENERGY PREDICTED BY IDOCK:   -4.28 KCAL/MOL
REMARK 923 INTER-LIGAND FREE ENERGY PREDICTED BY IDOCK:   -4.07 KCAL/MOL
REMARK 924 INTRA-LIGAND FREE ENERGY PREDICTED BY IDOCK:   -0.21 KCAL/MOL
REMARK 927      BINDING AFFINITY PREDICTED BY RF-SCORE:    0.00 PKD
ROOT
HETATM    1  N   UNL     1      -6.885  16.597  69.346  1.00  0.00    -0.235 NA 
HETATM    2  H2  UNL     1      -6.535  17.540  69.515  1.00  0.00     0.000 HD 
HETATM    3  H1  UNL     1      -6.312  15.790  69.594  1.00  0.00     0.000 HD 
HETATM    4  C   UNL     1      -8.112  16.421  68.794  1.00  0.00    -0.234 C  
HETATM    5  N   UNL     1      -8.842  17.447  68.479  1.00  0.00    -0.273 N  
HETATM    6  C   UNL     1     -10.124  17.257  67.942  1.00  0.00    -0.317 C  
HETATM    7  H   UNL     1      -8.484  18.391  68.622  1.00  0.00     0.000 HD 
HETATM    8  C   UNL     1     -10.554  15.855  67.833  1.00  0.00    -0.300 A  
HETATM    9  O   UNL     1     -10.836  18.193  67.593  1.00  0.00    -0.392 OA 
HETATM   10  C   UNL     1      -9.689  14.855  68.190  1.00  0.00    -0.214 A  
HETATM   11  N   UNL     1     -10.346  13.679  68.027  1.00  0.00    -0.244 NA 
HETATM   12  N   UNL     1      -8.447  15.097  68.639  1.00  0.00    -0.160 NA 
HETATM   13  C   UNL     1     -11.596  14.006  67.556  1.00  0.00    -0.367 A  
HETATM   14  N   UNL     1     -11.751  15.310  67.420  1.00  0.00    -0.203 NA 
ENDROOT
BRANCH  11  15
HETATM   15  C   UNL     1      -9.838  12.337  68.206  1.00  0.00    -0.217 C  
BRANCH  15  16
HETATM   16  O   UNL     1     -10.494  11.471  67.281  1.00  0.00    -0.200 OA 
BRANCH  16  17
HETATM   17  C   UNL     1     -11.266  10.478  67.969  1.00  0.00    -0.294 C  
BRANCH  17  18
HETATM   18  C   UNL     1     -10.608  10.184  69.313  1.00  0.00    -0.230 C  
HETATM   19  O   UNL     1     -10.072   8.864  69.316  1.00  0.00    -0.191 OA 
HETATM   20  H   UNL     1      -9.662   8.681  70.154  1.00  0.00     0.000 HD 
ENDBRANCH  17  18
ENDBRANCH  16  17
ENDBRANCH  15  16
ENDBRANCH  11  15
TORSDOF 4
ENDMDL
MODEL      180
REMARK 921   NORMALIZED FREE ENERGY PREDICTED BY IDOCK:   -3.21 KCAL/MOL
REMARK 922        TOTAL FREE ENERGY PREDICTED BY IDOCK:   -4.19 KCAL/MOL
REMARK 923 INTER-LIGAND FREE ENERGY PREDICTED BY IDOCK:   -3.80 KCAL/MOL
REMARK 924 INTRA-LIGAND FREE ENERGY PREDICTED BY IDOCK:   -0.39 KCAL/MOL
REMARK 927      BINDING AFFINITY PREDICTED BY RF-SCORE:    0.00 PKD
ROOT
HETATM    1  N   UNL     1     -11.104   6.465  71.104  1.00  0.00    -0.277 NA 
HETATM    2  H2  UNL     1     -10.932   5.574  71.570  1.00  0.00     0.000 HD 
HETATM    3  H1  UNL     1     -11.618   7.201  71.589  1.00  0.00     0.000 HD 
HETATM    4  C   UNL     1     -10.649   6.667  69.843  1.00  0.00    -0.226 C  
HETATM    5  N   UNL     1      -9.994   5.731  69.225  1.00  0.00    -0.168 N  
HETATM    6  C   UNL     1      -9.495   5.958  67.935  1.00  0.00    -0.110 C  
HETATM    7  H   UNL     1      -9.843   4.829  69.678  1.00  0.00     0.000 HD 
HETATM    8  C   UNL     1      -9.726   7.311  67.406  1.00  0.00    -0.150 A  
HETATM    9  O   UNL     1      -8.905   5.094  67.295  1.00  0.00    -0.107 OA 
HETATM   10  C   UNL     1     -10.439   8.213  68.150  1.00  0.00    -0.170 A  
HETATM   11  N   UNL     1     -10.470   9.375  67.449  1.00  0.00    -0.269 NA 
HETATM   12  N   UNL     1     -10.949   7.916  69.355  1.00  0.00    -0.096 NA 
HETATM   13  C   UNL     1      -9.780   9.133  66.284  1.00  0.00    -0.274 A  
HETATM   14  N   UNL     1      -9.325   7.896  66.223  1.00  0.00    -0.184 NA 
ENDROOT
BRANCH  11  15
HETATM   15  C   UNL     1     -11.159  10.603  67.782  1.00  0.00    -0.321 C  
BRANCH  15  16
HETATM   16  O   UNL     1     -10.988  10.862  69.174  1.00  0.00    -0.206 OA 
BRANCH  16  17
HETATM   17  C   UNL     1     -12.160  11.472  69.728  1.00  0.00    -0.306 C  
BRANCH  17  18
HETATM   18  C   UNL     1     -12.505  10.778  71.042  1.00  0.00    -0.420 C  
HETATM   19  O   UNL     1     -12.824   9.410  70.803  1.00  0.00    -0.515 OA 
HETATM   20  H   UNL     1     -13.039   8.978  71.622  1.00  0.00     0.000 HD 
ENDBRANCH  17  18
ENDBRANCH  16  17
ENDBRANCH  15  16
ENDBRANCH  11  15
TORSDOF 4
ENDMDL
MODEL      181
REMARK 921   NORMALIZED FREE ENERGY PREDICTED BY IDOCK:   -3.21 KCAL/MOL
REMARK 922        TOTAL FREE ENERGY PREDICTED BY IDOCK:   -4.18 KCAL/MOL
REMARK 923 INTER-LIGAND FREE ENERGY PREDICTED BY IDOCK:   -3.95 KCAL/MOL
REMARK 924 INTRA-LIGAND FREE ENERGY PREDICTED BY IDOCK:   -0.23 KCAL/MOL
REMARK 927      BINDING AFFINITY PREDICTED BY RF-SCORE:    0.00 PKD
ROOT
HETATM    1  N   UNL     1     -10.401  11.070  69.605  1.00  0.00    -0.446 NA 
HETATM    2  H2  UNL     1     -10.770  12.019  69.659  1.00  0.00     0.000 HD 
HETATM    3  H1  UNL     1      -9.538  10.890  69.091  1.00  0.00     0.000 HD 
HETATM    4  C   UNL     1     -11.058  10.054  70.216  1.00  0.00    -0.318 C  
HETATM    5  N   UNL     1     -12.156  10.282  70.871  1.00  0.00    -0.336 N  
HETATM    6  C   UNL     1     -12.811   9.233  71.530  1.00  0.00    -0.354 C  
HETATM    7  H   UNL     1     -12.543  11.226  70.904  1.00  0.00     0.000 HD 
HETATM    8  C   UNL     1     -12.133   7.930  71.458  1.00  0.00    -0.306 A  
HETATM    9  O   UNL     1     -13.870   9.391  72.128  1.00  0.00    -0.414 OA 
HETATM   10  C   UNL     1     -10.980   7.810  70.728  1.00  0.00    -0.252 A  
HETATM   11  N   UNL     1     -10.554   6.528  70.861  1.00  0.00    -0.223 NA 
HETATM   12  N   UNL     1     -10.433   8.839  70.063  1.00  0.00    -0.207 NA 
HETATM   13  C   UNL     1     -11.479   5.902  71.662  1.00  0.00    -0.172 A  
HETATM   14  N   UNL     1     -12.449   6.717  72.033  1.00  0.00    -0.296 NA 
ENDROOT
BRANCH  11  15
HETATM   15  C   UNL     1      -9.420   5.892  70.227  1.00  0.00    -0.162 C  
BRANCH  15  16
HETATM   16  O   UNL     1      -9.370   4.527  70.641  1.00  0.00    -0.131 OA 
BRANCH  16  17
HETATM   17  C   UNL     1      -8.296   4.313  71.566  1.00  0.00    -0.092 C  
BRANCH  17  18
HETATM   18  C   UNL     1      -8.657   3.149  72.482  1.00  0.00    -0.083 C  
HETATM   19  O   UNL     1      -9.973   2.687  72.191  1.00  0.00    -0.156 OA 
HETATM   20  H   UNL     1     -10.198   1.961  72.762  1.00  0.00     0.000 HD 
ENDBRANCH  17  18
ENDBRANCH  16  17
ENDBRANCH  15  16
ENDBRANCH  11  15
TORSDOF 4
ENDMDL
MODEL      182
REMARK 921   NORMALIZED FREE ENERGY PREDICTED BY IDOCK:   -3.20 KCAL/MOL
REMARK 922        TOTAL FREE ENERGY PREDICTED BY IDOCK:   -4.18 KCAL/MOL
REMARK 923 INTER-LIGAND FREE ENERGY PREDICTED BY IDOCK:   -3.96 KCAL/MOL
REMARK 924 INTRA-LIGAND FREE ENERGY PREDICTED BY IDOCK:   -0.22 KCAL/MOL
REMARK 927      BINDING AFFINITY PREDICTED BY RF-SCORE:    0.00 PKD
ROOT
HETATM    1  N   UNL     1     -11.378   6.945  69.246  1.00  0.00    -0.535 NA 
HETATM    2  H2  UNL     1     -11.243   6.100  69.802  1.00  0.00     0.000 HD 
HETATM    3  H1  UNL     1     -12.322   7.275  69.044  1.00  0.00     0.000 HD 
HETATM    4  C   UNL     1     -10.301   7.625  68.780  1.00  0.00    -0.204 C  
HETATM    5  N   UNL     1      -9.099   7.206  69.037  1.00  0.00    -0.133 N  
HETATM    6  C   UNL     1      -7.991   7.933  68.582  1.00  0.00    -0.124 C  
HETATM    7  H   UNL     1      -8.962   6.347  69.570  1.00  0.00     0.000 HD 
HETATM    8  C   UNL     1      -8.311   9.181  67.873  1.00  0.00    -0.117 A  
HETATM    9  O   UNL     1      -6.837   7.558  68.766  1.00  0.00    -0.061 OA 
HETATM   10  C   UNL     1      -9.621   9.515  67.655  1.00  0.00    -0.136 A  
HETATM   11  N   UNL     1      -9.628  10.716  67.022  1.00  0.00    -0.167 NA 
HETATM   12  N   UNL     1     -10.642   8.744  68.059  1.00  0.00    -0.197 NA 
HETATM   13  C   UNL     1      -8.308  11.067  66.861  1.00  0.00    -0.138 A  
HETATM   14  N   UNL     1      -7.488  10.160  67.357  1.00  0.00    -0.093 NA 
ENDROOT
BRANCH  11  15
HETATM   15  C   UNL     1     -10.764  11.455  66.517  1.00  0.00    -0.277 C  
BRANCH  15  16
HETATM   16  O   UNL     1     -10.300  12.680  65.951  1.00  0.00    -0.265 OA 
BRANCH  16  17
HETATM   17  C   UNL     1     -10.688  12.787  64.576  1.00  0.00    -0.358 C  
BRANCH  17  18
HETATM   18  C   UNL     1     -12.152  12.383  64.441  1.00  0.00    -0.426 C  
HETATM   19  O   UNL     1     -12.585  12.558  63.095  1.00  0.00    -0.724 OA 
HETATM   20  H   UNL     1     -13.498  12.305  63.011  1.00  0.00     0.000 HD 
ENDBRANCH  17  18
ENDBRANCH  16  17
ENDBRANCH  15  16
ENDBRANCH  11  15
TORSDOF 4
ENDMDL
MODEL      183
REMARK 921   NORMALIZED FREE ENERGY PREDICTED BY IDOCK:   -3.20 KCAL/MOL
REMARK 922        TOTAL FREE ENERGY PREDICTED BY IDOCK:   -4.17 KCAL/MOL
REMARK 923 INTER-LIGAND FREE ENERGY PREDICTED BY IDOCK:   -3.80 KCAL/MOL
REMARK 924 INTRA-LIGAND FREE ENERGY PREDICTED BY IDOCK:   -0.37 KCAL/MOL
REMARK 927      BINDING AFFINITY PREDICTED BY RF-SCORE:    0.00 PKD
ROOT
HETATM    1  N   UNL     1     -11.962  12.191  66.685  1.00  0.00    -0.629 NA 
HETATM    2  H2  UNL     1     -12.402  11.272  66.644  1.00  0.00     0.000 HD 
HETATM    3  H1  UNL     1     -12.535  13.032  66.610  1.00  0.00     0.000 HD 
HETATM    4  C   UNL     1     -10.619  12.290  66.842  1.00  0.00    -0.224 C  
HETATM    5  N   UNL     1      -9.890  11.220  66.939  1.00  0.00    -0.191 N  
HETATM    6  C   UNL     1      -8.506  11.329  67.137  1.00  0.00    -0.149 C  
HETATM    7  H   UNL     1     -10.323  10.299  66.871  1.00  0.00     0.000 HD 
HETATM    8  C   UNL     1      -8.002  12.704  67.273  1.00  0.00    -0.166 A  
HETATM    9  O   UNL     1      -7.770  10.350  67.195  1.00  0.00    -0.098 OA 
HETATM   10  C   UNL     1      -8.869  13.756  67.144  1.00  0.00    -0.231 A  
HETATM   11  N   UNL     1      -8.155  14.892  67.350  1.00  0.00    -0.182 NA 
HETATM   12  N   UNL     1     -10.177  13.590  66.891  1.00  0.00    -0.253 NA 
HETATM   13  C   UNL     1      -6.862  14.489  67.584  1.00  0.00    -0.182 A  
HETATM   14  N   UNL     1      -6.733  13.176  67.537  1.00  0.00    -0.164 NA 
ENDROOT
BRANCH  11  15
HETATM   15  C   UNL     1      -8.606  16.263  67.253  1.00  0.00    -0.179 C  
BRANCH  15  16
HETATM   16  O   UNL     1      -8.833  16.765  68.569  1.00  0.00    -0.230 OA 
BRANCH  16  17
HETATM   17  C   UNL     1     -10.059  17.503  68.630  1.00  0.00    -0.361 C  
BRANCH  17  18
HETATM   18  C   UNL     1     -11.227  16.523  68.643  1.00  0.00    -0.297 C  
HETATM   19  O   UNL     1     -11.141  15.676  69.786  1.00  0.00    -0.260 OA 
HETATM   20  H   UNL     1     -11.869  15.065  69.794  1.00  0.00     0.000 HD 
ENDBRANCH  17  18
ENDBRANCH  16  17
ENDBRANCH  15  16
ENDBRANCH  11  15
TORSDOF 4
ENDMDL
MODEL      184
REMARK 921   NORMALIZED FREE ENERGY PREDICTED BY IDOCK:   -3.18 KCAL/MOL
REMARK 922        TOTAL FREE ENERGY PREDICTED BY IDOCK:   -4.15 KCAL/MOL
REMARK 923 INTER-LIGAND FREE ENERGY PREDICTED BY IDOCK:   -3.95 KCAL/MOL
REMARK 924 INTRA-LIGAND FREE ENERGY PREDICTED BY IDOCK:   -0.20 KCAL/MOL
REMARK 927      BINDING AFFINITY PREDICTED BY RF-SCORE:    0.00 PKD
ROOT
HETATM    1  N   UNL     1     -10.087   9.337  70.939  1.00  0.00    -0.283 NA 
HETATM    2  H2  UNL     1     -10.399   9.232  71.905  1.00  0.00     0.000 HD 
HETATM    3  H1  UNL     1      -9.413   8.679  70.548  1.00  0.00     0.000 HD 
HETATM    4  C   UNL     1     -10.572  10.352  70.181  1.00  0.00    -0.188 C  
HETATM    5  N   UNL     1     -11.431  11.190  70.678  1.00  0.00    -0.398 N  
HETATM    6  C   UNL     1     -11.955  12.215  69.878  1.00  0.00    -0.309 C  
HETATM    7  H   UNL     1     -11.724  11.103  71.651  1.00  0.00     0.000 HD 
HETATM    8  C   UNL     1     -11.502  12.208  68.479  1.00  0.00    -0.300 A  
HETATM    9  O   UNL     1     -12.738  13.053  70.312  1.00  0.00    -0.078 OA 
HETATM   10  C   UNL     1     -10.584  11.276  68.072  1.00  0.00    -0.195 A  
HETATM   11  N   UNL     1     -10.375  11.473  66.746  1.00  0.00    -0.219 NA 
HETATM   12  N   UNL     1     -10.068  10.356  68.902  1.00  0.00    -0.191 NA 
HETATM   13  C   UNL     1     -11.167  12.538  66.391  1.00  0.00    -0.306 A  
HETATM   14  N   UNL     1     -11.854  13.010  67.414  1.00  0.00    -0.367 NA 
ENDROOT
BRANCH  11  15
HETATM   15  C   UNL     1      -9.444  10.788  65.875  1.00  0.00    -0.197 C  
BRANCH  15  16
HETATM   16  O   UNL     1      -9.845   9.423  65.758  1.00  0.00    -0.297 OA 
BRANCH  16  17
HETATM   17  C   UNL     1      -8.719   8.547  65.891  1.00  0.00    -0.174 C  
BRANCH  17  18
HETATM   18  C   UNL     1      -8.106   8.316  64.513  1.00  0.00    -0.146 C  
HETATM   19  O   UNL     1      -8.221   6.943  64.151  1.00  0.00    -0.297 OA 
HETATM   20  H   UNL     1      -7.840   6.800  63.292  1.00  0.00     0.000 HD 
ENDBRANCH  17  18
ENDBRANCH  16  17
ENDBRANCH  15  16
ENDBRANCH  11  15
TORSDOF 4
ENDMDL
MODEL      185
REMARK 921   NORMALIZED FREE ENERGY PREDICTED BY IDOCK:   -3.16 KCAL/MOL
REMARK 922        TOTAL FREE ENERGY PREDICTED BY IDOCK:   -4.12 KCAL/MOL
REMARK 923 INTER-LIGAND FREE ENERGY PREDICTED BY IDOCK:   -3.79 KCAL/MOL
REMARK 924 INTRA-LIGAND FREE ENERGY PREDICTED BY IDOCK:   -0.33 KCAL/MOL
REMARK 927      BINDING AFFINITY PREDICTED BY RF-SCORE:    0.00 PKD
ROOT
HETATM    1  N   UNL     1      -5.989  15.248  67.740  1.00  0.00    -0.198 NA 
HETATM    2  H2  UNL     1      -5.379  14.483  68.028  1.00  0.00     0.000 HD 
HETATM    3  H1  UNL     1      -5.657  16.211  67.796  1.00  0.00     0.000 HD 
HETATM    4  C   UNL     1      -7.237  14.980  67.282  1.00  0.00    -0.140 C  
HETATM    5  N   UNL     1      -7.660  13.754  67.209  1.00  0.00    -0.343 N  
HETATM    6  C   UNL     1      -8.938  13.482  66.701  1.00  0.00    -0.117 C  
HETATM    7  H   UNL     1      -7.062  12.989  67.522  1.00  0.00     0.000 HD 
HETATM    8  C   UNL     1      -9.687  14.657  66.232  1.00  0.00    -0.307 A  
HETATM    9  O   UNL     1      -9.397  12.345  66.649  1.00  0.00    -0.218 OA 
HETATM   10  C   UNL     1      -9.138  15.904  66.369  1.00  0.00    -0.320 A  
HETATM   11  N   UNL     1     -10.014  16.789  65.828  1.00  0.00    -0.547 NA 
HETATM   12  N   UNL     1      -7.933  16.109  66.923  1.00  0.00    -0.218 NA 
HETATM   13  C   UNL     1     -11.083  16.044  65.390  1.00  0.00    -0.155 A  
HETATM   14  N   UNL     1     -10.921  14.755  65.625  1.00  0.00    -0.330 NA 
ENDROOT
BRANCH  11  15
HETATM   15  C   UNL     1      -9.921  18.232  65.791  1.00  0.00     0.074 C  
BRANCH  15  16
HETATM   16  O   UNL     1      -9.440  18.693  67.053  1.00  0.00    -0.285 OA 
BRANCH  16  17
HETATM   17  C   UNL     1     -10.510  18.800  68.000  1.00  0.00    -0.352 C  
BRANCH  17  18
HETATM   18  C   UNL     1     -10.072  18.166  69.316  1.00  0.00    -0.066 C  
HETATM   19  O   UNL     1     -10.013  16.749  69.181  1.00  0.00    -0.267 OA 
HETATM   20  H   UNL     1      -9.740  16.355  70.001  1.00  0.00     0.000 HD 
ENDBRANCH  17  18
ENDBRANCH  16  17
ENDBRANCH  15  16
ENDBRANCH  11  15
TORSDOF 4
ENDMDL
MODEL      186
REMARK 921   NORMALIZED FREE ENERGY PREDICTED BY IDOCK:   -3.15 KCAL/MOL
REMARK 922        TOTAL FREE ENERGY PREDICTED BY IDOCK:   -4.10 KCAL/MOL
REMARK 923 INTER-LIGAND FREE ENERGY PREDICTED BY IDOCK:   -4.19 KCAL/MOL
REMARK 924 INTRA-LIGAND FREE ENERGY PREDICTED BY IDOCK:    0.09 KCAL/MOL
REMARK 927      BINDING AFFINITY PREDICTED BY RF-SCORE:    0.00 PKD
ROOT
HETATM    1  N   UNL     1     -10.629  10.809  62.496  1.00  0.00    -0.492 NA 
HETATM    2  H2  UNL     1     -10.191  10.480  61.635  1.00  0.00     0.000 HD 
HETATM    3  H1  UNL     1     -11.612  11.081  62.494  1.00  0.00     0.000 HD 
HETATM    4  C   UNL     1      -9.902  10.881  63.639  1.00  0.00    -0.351 C  
HETATM    5  N   UNL     1      -8.650  10.533  63.642  1.00  0.00    -0.220 N  
HETATM    6  C   UNL     1      -7.914  10.576  64.835  1.00  0.00    -0.063 C  
HETATM    7  H   UNL     1      -8.203  10.229  62.777  1.00  0.00     0.000 HD 
HETATM    8  C   UNL     1      -8.677  10.977  66.026  1.00  0.00    -0.188 A  
HETATM    9  O   UNL     1      -6.721  10.295  64.881  1.00  0.00    -0.127 OA 
HETATM   10  C   UNL     1      -9.994  11.329  65.895  1.00  0.00    -0.234 A  
HETATM   11  N   UNL     1     -10.458  11.616  67.138  1.00  0.00    -0.213 NA 
HETATM   12  N   UNL     1     -10.631  11.331  64.713  1.00  0.00    -0.315 NA 
HETATM   13  C   UNL     1      -9.392  11.441  67.989  1.00  0.00    -0.171 A  
HETATM   14  N   UNL     1      -8.301  11.063  67.350  1.00  0.00    -0.124 NA 
ENDROOT
BRANCH  11  15
HETATM   15  C   UNL     1     -11.767  12.102  67.516  1.00  0.00    -0.315 C  
BRANCH  15  16
HETATM   16  O   UNL     1     -11.680  13.505  67.765  1.00  0.00    -0.317 OA 
BRANCH  16  17
HETATM   17  C   UNL     1     -11.079  14.184  66.656  1.00  0.00    -0.312 C  
BRANCH  17  18
HETATM   18  C   UNL     1     -12.179  14.774  65.780  1.00  0.00    -0.054 C  
HETATM   19  O   UNL     1     -12.833  13.737  65.053  1.00  0.00    -0.693 OA 
HETATM   20  H   UNL     1     -13.519  14.104  64.508  1.00  0.00     0.000 HD 
ENDBRANCH  17  18
ENDBRANCH  16  17
ENDBRANCH  15  16
ENDBRANCH  11  15
TORSDOF 4
ENDMDL
MODEL      187
REMARK 921   NORMALIZED FREE ENERGY PREDICTED BY IDOCK:   -3.10 KCAL/MOL
REMARK 922        TOTAL FREE ENERGY PREDICTED BY IDOCK:   -4.05 KCAL/MOL
REMARK 923 INTER-LIGAND FREE ENERGY PREDICTED BY IDOCK:   -3.89 KCAL/MOL
REMARK 924 INTRA-LIGAND FREE ENERGY PREDICTED BY IDOCK:   -0.16 KCAL/MOL
REMARK 927      BINDING AFFINITY PREDICTED BY RF-SCORE:    0.00 PKD
ROOT
HETATM    1  N   UNL     1      -9.023  10.438  63.713  1.00  0.00    -0.209 NA 
HETATM    2  H2  UNL     1      -8.633   9.935  62.915  1.00  0.00     0.000 HD 
HETATM    3  H1  UNL     1      -9.369  11.390  63.592  1.00  0.00     0.000 HD 
HETATM    4  C   UNL     1      -9.080   9.837  64.927  1.00  0.00    -0.229 C  
HETATM    5  N   UNL     1      -8.640   8.625  65.081  1.00  0.00    -0.231 N  
HETATM    6  C   UNL     1      -8.735   7.997  66.331  1.00  0.00    -0.151 C  
HETATM    7  H   UNL     1      -8.225   8.129  64.292  1.00  0.00     0.000 HD 
HETATM    8  C   UNL     1      -9.399   8.788  67.378  1.00  0.00    -0.137 A  
HETATM    9  O   UNL     1      -8.299   6.869  66.535  1.00  0.00    -0.113 OA 
HETATM   10  C   UNL     1      -9.815  10.062  67.097  1.00  0.00    -0.185 A  
HETATM   11  N   UNL     1     -10.419  10.541  68.215  1.00  0.00    -0.172 NA 
HETATM   12  N   UNL     1      -9.639  10.635  65.896  1.00  0.00    -0.195 NA 
HETATM   13  C   UNL     1     -10.336   9.537  69.150  1.00  0.00    -0.207 A  
HETATM   14  N   UNL     1      -9.720   8.469  68.680  1.00  0.00    -0.160 NA 
ENDROOT
BRANCH  11  15
HETATM   15  C   UNL     1     -10.961  11.863  68.443  1.00  0.00    -0.232 C  
BRANCH  15  16
HETATM   16  O   UNL     1     -11.982  12.113  67.477  1.00  0.00    -0.544 OA 
BRANCH  16  17
HETATM   17  C   UNL     1     -12.117  13.518  67.229  1.00  0.00    -0.323 C  
BRANCH  17  18
HETATM   18  C   UNL     1     -12.260  13.743  65.727  1.00  0.00    -0.462 C  
HETATM   19  O   UNL     1     -11.424  14.821  65.314  1.00  0.00    -0.342 OA 
HETATM   20  H   UNL     1     -11.513  14.962  64.378  1.00  0.00     0.000 HD 
ENDBRANCH  17  18
ENDBRANCH  16  17
ENDBRANCH  15  16
ENDBRANCH  11  15
TORSDOF 4
ENDMDL
MODEL      188
REMARK 921   NORMALIZED FREE ENERGY PREDICTED BY IDOCK:   -3.10 KCAL/MOL
REMARK 922        TOTAL FREE ENERGY PREDICTED BY IDOCK:   -4.05 KCAL/MOL
REMARK 923 INTER-LIGAND FREE ENERGY PREDICTED BY IDOCK:   -3.87 KCAL/MOL
REMARK 924 INTRA-LIGAND FREE ENERGY PREDICTED BY IDOCK:   -0.18 KCAL/MOL
REMARK 927      BINDING AFFINITY PREDICTED BY RF-SCORE:    0.00 PKD
ROOT
HETATM    1  N   UNL     1     -10.479   5.462  69.201  1.00  0.00    -0.230 NA 
HETATM    2  H2  UNL     1     -10.861   4.679  69.733  1.00  0.00     0.000 HD 
HETATM    3  H1  UNL     1      -9.917   5.284  68.369  1.00  0.00     0.000 HD 
HETATM    4  C   UNL     1     -10.724   6.733  69.603  1.00  0.00    -0.251 C  
HETATM    5  N   UNL     1     -11.441   6.960  70.662  1.00  0.00    -0.316 N  
HETATM    6  C   UNL     1     -11.720   8.278  71.052  1.00  0.00    -0.270 C  
HETATM    7  H   UNL     1     -11.802   6.179  71.211  1.00  0.00     0.000 HD 
HETATM    8  C   UNL     1     -11.194   9.318  70.156  1.00  0.00    -0.208 A  
HETATM    9  O   UNL     1     -12.359   8.543  72.065  1.00  0.00    -0.320 OA 
HETATM   10  C   UNL     1     -10.442   8.955  69.070  1.00  0.00    -0.214 A  
HETATM   11  N   UNL     1     -10.122  10.095  68.406  1.00  0.00    -0.158 NA 
HETATM   12  N   UNL     1     -10.154   7.677  68.782  1.00  0.00    -0.189 NA 
HETATM   13  C   UNL     1     -10.683  11.124  69.125  1.00  0.00    -0.221 A  
HETATM   14  N   UNL     1     -11.330  10.690  70.191  1.00  0.00    -0.308 NA 
ENDROOT
BRANCH  11  15
HETATM   15  C   UNL     1      -9.285  10.244  67.236  1.00  0.00    -0.141 C  
BRANCH  15  16
HETATM   16  O   UNL     1     -10.120  10.338  66.083  1.00  0.00    -0.230 OA 
BRANCH  16  17
HETATM   17  C   UNL     1     -10.310  11.706  65.699  1.00  0.00    -0.262 C  
BRANCH  17  18
HETATM   18  C   UNL     1     -11.785  11.930  65.381  1.00  0.00    -0.162 C  
HETATM   19  O   UNL     1     -12.126  13.299  65.584  1.00  0.00    -0.390 OA 
HETATM   20  H   UNL     1     -13.045  13.438  65.385  1.00  0.00     0.000 HD 
ENDBRANCH  17  18
ENDBRANCH  16  17
ENDBRANCH  15  16
ENDBRANCH  11  15
TORSDOF 4
ENDMDL
MODEL      189
REMARK 921   NORMALIZED FREE ENERGY PREDICTED BY IDOCK:   -3.06 KCAL/MOL
REMARK 922        TOTAL FREE ENERGY PREDICTED BY IDOCK:   -4.00 KCAL/MOL
REMARK 923 INTER-LIGAND FREE ENERGY PREDICTED BY IDOCK:   -3.87 KCAL/MOL
REMARK 924 INTRA-LIGAND FREE ENERGY PREDICTED BY IDOCK:   -0.14 KCAL/MOL
REMARK 927      BINDING AFFINITY PREDICTED BY RF-SCORE:    0.00 PKD
ROOT
HETATM    1  N   UNL     1      -7.388   8.616  73.061  1.00  0.00    -0.350 NA 
HETATM    2  H2  UNL     1      -6.461   9.042  73.037  1.00  0.00     0.000 HD 
HETATM    3  H1  UNL     1      -7.904   8.572  73.940  1.00  0.00     0.000 HD 
HETATM    4  C   UNL     1      -7.928   8.111  71.925  1.00  0.00    -0.121 C  
HETATM    5  N   UNL     1      -7.271   8.166  70.805  1.00  0.00    -0.048 N  
HETATM    6  C   UNL     1      -7.851   7.674  69.627  1.00  0.00    -0.108 C  
HETATM    7  H   UNL     1      -6.334   8.568  70.783  1.00  0.00     0.000 HD 
HETATM    8  C   UNL     1      -9.225   7.170  69.770  1.00  0.00    -0.143 A  
HETATM    9  O   UNL     1      -7.256   7.669  68.554  1.00  0.00    -0.081 OA 
HETATM   10  C   UNL     1      -9.811   7.155  71.008  1.00  0.00    -0.180 A  
HETATM   11  N   UNL     1     -11.073   6.681  70.847  1.00  0.00    -0.269 NA 
HETATM   12  N   UNL     1      -9.182   7.581  72.114  1.00  0.00    -0.134 NA 
HETATM   13  C   UNL     1     -11.207   6.407  69.506  1.00  0.00    -0.412 A  
HETATM   14  N   UNL     1     -10.108   6.683  68.830  1.00  0.00    -0.151 NA 
ENDROOT
BRANCH  11  15
HETATM   15  C   UNL     1     -12.066   6.413  71.865  1.00  0.00    -0.310 C  
BRANCH  15  16
HETATM   16  O   UNL     1     -13.074   7.420  71.798  1.00  0.00    -0.341 OA 
BRANCH  16  17
HETATM   17  C   UNL     1     -12.581   8.671  72.293  1.00  0.00    -0.395 C  
BRANCH  17  18
HETATM   18  C   UNL     1     -13.512   9.788  71.832  1.00  0.00    -0.395 C  
HETATM   19  O   UNL     1     -12.797  11.018  71.750  1.00  0.00    -0.430 OA 
HETATM   20  H   UNL     1     -13.377  11.713  71.462  1.00  0.00     0.000 HD 
ENDBRANCH  17  18
ENDBRANCH  16  17
ENDBRANCH  15  16
ENDBRANCH  11  15
TORSDOF 4
ENDMDL
MODEL      190
REMARK 921   NORMALIZED FREE ENERGY PREDICTED BY IDOCK:   -3.06 KCAL/MOL
REMARK 922        TOTAL FREE ENERGY PREDICTED BY IDOCK:   -4.00 KCAL/MOL
REMARK 923 INTER-LIGAND FREE ENERGY PREDICTED BY IDOCK:   -3.98 KCAL/MOL
REMARK 924 INTRA-LIGAND FREE ENERGY PREDICTED BY IDOCK:   -0.01 KCAL/MOL
REMARK 927      BINDING AFFINITY PREDICTED BY RF-SCORE:    0.00 PKD
ROOT
HETATM    1  N   UNL     1      -6.616  15.287  67.395  1.00  0.00    -0.282 NA 
HETATM    2  H2  UNL     1      -5.606  15.236  67.529  1.00  0.00     0.000 HD 
HETATM    3  H1  UNL     1      -7.080  16.195  67.378  1.00  0.00     0.000 HD 
HETATM    4  C   UNL     1      -7.335  14.148  67.242  1.00  0.00    -0.008 C  
HETATM    5  N   UNL     1      -6.745  12.992  67.264  1.00  0.00    -0.321 N  
HETATM    6  C   UNL     1      -7.489  11.820  67.068  1.00  0.00    -0.137 C  
HETATM    7  H   UNL     1      -5.739  12.935  67.423  1.00  0.00     0.000 HD 
HETATM    8  C   UNL     1      -8.919  12.027  66.794  1.00  0.00    -0.198 A  
HETATM    9  O   UNL     1      -6.984  10.703  67.119  1.00  0.00    -0.081 OA 
HETATM   10  C   UNL     1      -9.430  13.298  66.805  1.00  0.00    -0.257 A  
HETATM   11  N   UNL     1     -10.747  13.203  66.489  1.00  0.00    -0.278 NA 
HETATM   12  N   UNL     1      -8.678  14.380  67.062  1.00  0.00    -0.227 NA 
HETATM   13  C   UNL     1     -10.998  11.863  66.310  1.00  0.00    -0.302 A  
HETATM   14  N   UNL     1      -9.919  11.126  66.494  1.00  0.00    -0.207 NA 
ENDROOT
BRANCH  11  15
HETATM   15  C   UNL     1     -11.734  14.260  66.438  1.00  0.00    -0.391 C  
BRANCH  15  16
HETATM   16  O   UNL     1     -11.856  14.835  67.739  1.00  0.00    -0.351 OA 
BRANCH  16  17
HETATM   17  C   UNL     1     -12.272  13.852  68.695  1.00  0.00    -0.178 C  
BRANCH  17  18
HETATM   18  C   UNL     1     -11.802  14.280  70.081  1.00  0.00    -0.312 C  
HETATM   19  O   UNL     1     -12.010  13.224  71.015  1.00  0.00    -0.454 OA 
HETATM   20  H   UNL     1     -11.717  13.491  71.879  1.00  0.00     0.000 HD 
ENDBRANCH  17  18
ENDBRANCH  16  17
ENDBRANCH  15  16
ENDBRANCH  11  15
TORSDOF 4
ENDMDL
MODEL      191
REMARK 921   NORMALIZED FREE ENERGY PREDICTED BY IDOCK:   -3.06 KCAL/MOL
REMARK 922        TOTAL FREE ENERGY PREDICTED BY IDOCK:   -3.99 KCAL/MOL
REMARK 923 INTER-LIGAND FREE ENERGY PREDICTED BY IDOCK:   -3.78 KCAL/MOL
REMARK 924 INTRA-LIGAND FREE ENERGY PREDICTED BY IDOCK:   -0.22 KCAL/MOL
REMARK 927      BINDING AFFINITY PREDICTED BY RF-SCORE:    0.00 PKD
ROOT
HETATM    1  N   UNL     1     -12.559  10.420  69.344  1.00  0.00    -0.602 NA 
HETATM    2  H2  UNL     1     -12.810   9.497  69.701  1.00  0.00     0.000 HD 
HETATM    3  H1  UNL     1     -13.236  11.182  69.388  1.00  0.00     0.000 HD 
HETATM    4  C   UNL     1     -11.328  10.627  68.815  1.00  0.00    -0.277 C  
HETATM    5  N   UNL     1     -10.466   9.657  68.760  1.00  0.00    -0.209 N  
HETATM    6  C   UNL     1      -9.183   9.887  68.245  1.00  0.00    -0.129 C  
HETATM    7  H   UNL     1     -10.723   8.727  69.092  1.00  0.00     0.000 HD 
HETATM    8  C   UNL     1      -8.910  11.277  67.849  1.00  0.00    -0.142 A  
HETATM    9  O   UNL     1      -8.348   8.995  68.137  1.00  0.00    -0.119 OA 
HETATM   10  C   UNL     1      -9.904  12.213  67.946  1.00  0.00    -0.199 A  
HETATM   11  N   UNL     1      -9.376  13.401  67.555  1.00  0.00    -0.209 NA 
HETATM   12  N   UNL     1     -11.137  11.919  68.388  1.00  0.00    -0.225 NA 
HETATM   13  C   UNL     1      -8.069  13.141  67.215  1.00  0.00    -0.146 A  
HETATM   14  N   UNL     1      -7.758  11.868  67.374  1.00  0.00    -0.149 NA 
ENDROOT
BRANCH  11  15
HETATM   15  C   UNL     1     -10.044  14.676  67.417  1.00  0.00    -0.232 C  
BRANCH  15  16
HETATM   16  O   UNL     1      -9.356  15.451  66.435  1.00  0.00    -0.253 OA 
BRANCH  16  17
HETATM   17  C   UNL     1      -9.736  16.830  66.514  1.00  0.00    -0.283 C  
BRANCH  17  18
HETATM   18  C   UNL     1      -9.430  17.349  67.915  1.00  0.00    -0.265 C  
HETATM   19  O   UNL     1     -10.161  18.547  68.163  1.00  0.00    -0.339 OA 
HETATM   20  H   UNL     1      -9.970  18.870  69.036  1.00  0.00     0.000 HD 
ENDBRANCH  17  18
ENDBRANCH  16  17
ENDBRANCH  15  16
ENDBRANCH  11  15
TORSDOF 4
ENDMDL
MODEL      192
REMARK 921   NORMALIZED FREE ENERGY PREDICTED BY IDOCK:   -3.05 KCAL/MOL
REMARK 922        TOTAL FREE ENERGY PREDICTED BY IDOCK:   -3.99 KCAL/MOL
REMARK 923 INTER-LIGAND FREE ENERGY PREDICTED BY IDOCK:   -3.79 KCAL/MOL
REMARK 924 INTRA-LIGAND FREE ENERGY PREDICTED BY IDOCK:   -0.19 KCAL/MOL
REMARK 927      BINDING AFFINITY PREDICTED BY RF-SCORE:    0.00 PKD
ROOT
HETATM    1  N   UNL     1     -12.095   8.010  73.000  1.00  0.00    -0.642 NA 
HETATM    2  H2  UNL     1     -12.426   8.125  73.959  1.00  0.00     0.000 HD 
HETATM    3  H1  UNL     1     -12.304   8.725  72.303  1.00  0.00     0.000 HD 
HETATM    4  C   UNL     1     -11.380   6.910  72.660  1.00  0.00    -0.235 C  
HETATM    5  N   UNL     1     -11.114   6.000  73.548  1.00  0.00    -0.445 N  
HETATM    6  C   UNL     1     -10.344   4.882  73.198  1.00  0.00    -0.187 C  
HETATM    7  H   UNL     1     -11.466   6.098  74.500  1.00  0.00     0.000 HD 
HETATM    8  C   UNL     1      -9.847   4.875  71.814  1.00  0.00    -0.180 A  
HETATM    9  O   UNL     1     -10.099   3.978  73.990  1.00  0.00    -0.126 OA 
HETATM   10  C   UNL     1     -10.202   5.890  70.965  1.00  0.00    -0.211 A  
HETATM   11  N   UNL     1      -9.583   5.656  69.780  1.00  0.00    -0.153 NA 
HETATM   12  N   UNL     1     -10.997   6.904  71.340  1.00  0.00    -0.236 NA 
HETATM   13  C   UNL     1      -8.878   4.487  69.945  1.00  0.00    -0.086 A  
HETATM   14  N   UNL     1      -9.022   3.986  71.158  1.00  0.00    -0.101 NA 
ENDROOT
BRANCH  11  15
HETATM   15  C   UNL     1      -9.697   6.404  68.547  1.00  0.00    -0.132 C  
BRANCH  15  16
HETATM   16  O   UNL     1     -11.060   6.387  68.125  1.00  0.00    -0.311 OA 
BRANCH  16  17
HETATM   17  C   UNL     1     -11.158   6.084  66.728  1.00  0.00    -0.118 C  
BRANCH  17  18
HETATM   18  C   UNL     1     -10.118   5.025  66.377  1.00  0.00    -0.249 C  
HETATM   19  O   UNL     1     -10.110   4.796  64.971  1.00  0.00    -0.380 OA 
HETATM   20  H   UNL     1      -9.462   4.136  64.752  1.00  0.00     0.000 HD 
ENDBRANCH  17  18
ENDBRANCH  16  17
ENDBRANCH  15  16
ENDBRANCH  11  15
TORSDOF 4
ENDMDL
MODEL      193
REMARK 921   NORMALIZED FREE ENERGY PREDICTED BY IDOCK:   -3.05 KCAL/MOL
REMARK 922        TOTAL FREE ENERGY PREDICTED BY IDOCK:   -3.98 KCAL/MOL
REMARK 923 INTER-LIGAND FREE ENERGY PREDICTED BY IDOCK:   -3.88 KCAL/MOL
REMARK 924 INTRA-LIGAND FREE ENERGY PREDICTED BY IDOCK:   -0.10 KCAL/MOL
REMARK 927      BINDING AFFINITY PREDICTED BY RF-SCORE:    0.00 PKD
ROOT
HETATM    1  N   UNL     1     -10.385   5.373  68.183  1.00  0.00    -0.168 NA 
HETATM    2  H2  UNL     1     -10.307   4.371  68.358  1.00  0.00     0.000 HD 
HETATM    3  H1  UNL     1     -10.343   5.727  67.228  1.00  0.00     0.000 HD 
HETATM    4  C   UNL     1     -10.546   6.228  69.223  1.00  0.00    -0.273 C  
HETATM    5  N   UNL     1     -10.601   5.778  70.440  1.00  0.00    -0.274 N  
HETATM    6  C   UNL     1     -10.804   6.664  71.507  1.00  0.00    -0.239 C  
HETATM    7  H   UNL     1     -10.496   4.779  70.620  1.00  0.00     0.000 HD 
HETATM    8  C   UNL     1     -10.995   8.071  71.123  1.00  0.00    -0.243 A  
HETATM    9  O   UNL     1     -10.824   6.293  72.676  1.00  0.00    -0.220 OA 
HETATM   10  C   UNL     1     -10.907   8.427  69.804  1.00  0.00    -0.183 A  
HETATM   11  N   UNL     1     -11.158   9.759  69.731  1.00  0.00    -0.244 NA 
HETATM   12  N   UNL     1     -10.647   7.541  68.830  1.00  0.00    -0.190 NA 
HETATM   13  C   UNL     1     -11.377  10.175  71.023  1.00  0.00    -0.307 A  
HETATM   14  N   UNL     1     -11.278   9.183  71.888  1.00  0.00    -0.370 NA 
ENDROOT
BRANCH  11  15
HETATM   15  C   UNL     1     -11.115  10.615  68.566  1.00  0.00    -0.263 C  
BRANCH  15  16
HETATM   16  O   UNL     1      -9.884  10.394  67.879  1.00  0.00    -0.151 OA 
BRANCH  16  17
HETATM   17  C   UNL     1     -10.061  10.509  66.462  1.00  0.00    -0.225 C  
BRANCH  17  18
HETATM   18  C   UNL     1      -8.792  10.031  65.764  1.00  0.00    -0.150 C  
HETATM   19  O   UNL     1      -9.074   8.880  64.972  1.00  0.00    -0.382 OA 
HETATM   20  H   UNL     1      -8.283   8.583  64.537  1.00  0.00     0.000 HD 
ENDBRANCH  17  18
ENDBRANCH  16  17
ENDBRANCH  15  16
ENDBRANCH  11  15
TORSDOF 4
ENDMDL
MODEL      194
REMARK 921   NORMALIZED FREE ENERGY PREDICTED BY IDOCK:   -3.04 KCAL/MOL
REMARK 922        TOTAL FREE ENERGY PREDICTED BY IDOCK:   -3.98 KCAL/MOL
REMARK 923 INTER-LIGAND FREE ENERGY PREDICTED BY IDOCK:   -3.67 KCAL/MOL
REMARK 924 INTRA-LIGAND FREE ENERGY PREDICTED BY IDOCK:   -0.31 KCAL/MOL
REMARK 927      BINDING AFFINITY PREDICTED BY RF-SCORE:    0.00 PKD
ROOT
HETATM    1  N   UNL     1     -12.680   8.836  72.589  1.00  0.00    -0.505 NA 
HETATM    2  H2  UNL     1     -13.007   8.247  73.355  1.00  0.00     0.000 HD 
HETATM    3  H1  UNL     1     -13.162   9.711  72.380  1.00  0.00     0.000 HD 
HETATM    4  C   UNL     1     -11.607   8.454  71.854  1.00  0.00    -0.329 C  
HETATM    5  N   UNL     1     -10.993   7.341  72.119  1.00  0.00    -0.231 N  
HETATM    6  C   UNL     1      -9.862   6.969  71.378  1.00  0.00    -0.177 C  
HETATM    7  H   UNL     1     -11.334   6.736  72.867  1.00  0.00     0.000 HD 
HETATM    8  C   UNL     1      -9.432   7.944  70.364  1.00  0.00    -0.163 A  
HETATM    9  O   UNL     1      -9.272   5.910  71.565  1.00  0.00    -0.146 OA 
HETATM   10  C   UNL     1     -10.168   9.082  70.170  1.00  0.00    -0.197 A  
HETATM   11  N   UNL     1      -9.534   9.810  69.215  1.00  0.00    -0.182 NA 
HETATM   12  N   UNL     1     -11.281   9.354  70.868  1.00  0.00    -0.296 NA 
HETATM   13  C   UNL     1      -8.433   9.074  68.846  1.00  0.00    -0.130 A  
HETATM   14  N   UNL     1      -8.346   7.940  69.515  1.00  0.00    -0.130 NA 
ENDROOT
BRANCH  11  15
HETATM   15  C   UNL     1      -9.954  11.057  68.614  1.00  0.00    -0.199 C  
BRANCH  15  16
HETATM   16  O   UNL     1     -10.929  10.777  67.610  1.00  0.00    -0.263 OA 
BRANCH  16  17
HETATM   17  C   UNL     1     -10.472  11.206  66.321  1.00  0.00    -0.259 C  
BRANCH  17  18
HETATM   18  C   UNL     1      -9.956   9.995  65.551  1.00  0.00    -0.296 C  
HETATM   19  O   UNL     1      -8.764  10.335  64.849  1.00  0.00    -0.166 OA 
HETATM   20  H   UNL     1      -8.442   9.580  64.369  1.00  0.00     0.000 HD 
ENDBRANCH  17  18
ENDBRANCH  16  17
ENDBRANCH  15  16
ENDBRANCH  11  15
TORSDOF 4
ENDMDL
MODEL      195
REMARK 921   NORMALIZED FREE ENERGY PREDICTED BY IDOCK:   -3.03 KCAL/MOL
REMARK 922        TOTAL FREE ENERGY PREDICTED BY IDOCK:   -3.97 KCAL/MOL
REMARK 923 INTER-LIGAND FREE ENERGY PREDICTED BY IDOCK:   -3.64 KCAL/MOL
REMARK 924 INTRA-LIGAND FREE ENERGY PREDICTED BY IDOCK:   -0.33 KCAL/MOL
REMARK 927      BINDING AFFINITY PREDICTED BY RF-SCORE:    0.00 PKD
ROOT
HETATM    1  N   UNL     1      -8.649   8.480  72.972  1.00  0.00    -0.386 NA 
HETATM    2  H2  UNL     1      -8.853   7.787  73.692  1.00  0.00     0.000 HD 
HETATM    3  H1  UNL     1      -7.988   9.233  73.165  1.00  0.00     0.000 HD 
HETATM    4  C   UNL     1      -9.256   8.396  71.763  1.00  0.00    -0.220 C  
HETATM    5  N   UNL     1     -10.097   7.438  71.516  1.00  0.00    -0.185 N  
HETATM    6  C   UNL     1     -10.694   7.336  70.252  1.00  0.00    -0.236 C  
HETATM    7  H   UNL     1     -10.323   6.758  72.243  1.00  0.00     0.000 HD 
HETATM    8  C   UNL     1     -10.252   8.337  69.270  1.00  0.00    -0.204 A  
HETATM    9  O   UNL     1     -11.523   6.473  69.983  1.00  0.00    -0.380 OA 
HETATM   10  C   UNL     1      -9.363   9.308  69.651  1.00  0.00    -0.179 A  
HETATM   11  N   UNL     1      -9.103  10.065  68.555  1.00  0.00    -0.124 NA 
HETATM   12  N   UNL     1      -8.873   9.393  70.897  1.00  0.00    -0.251 NA 
HETATM   13  C   UNL     1      -9.861   9.533  67.538  1.00  0.00    -0.167 A  
HETATM   14  N   UNL     1     -10.571   8.495  67.938  1.00  0.00    -0.196 NA 
ENDROOT
BRANCH  11  15
HETATM   15  C   UNL     1      -8.281  11.252  68.461  1.00  0.00    -0.150 C  
BRANCH  15  16
HETATM   16  O   UNL     1      -9.132  12.391  68.344  1.00  0.00    -0.195 OA 
BRANCH  16  17
HETATM   17  C   UNL     1      -8.741  13.209  67.235  1.00  0.00    -0.210 C  
BRANCH  17  18
HETATM   18  C   UNL     1      -9.948  13.420  66.326  1.00  0.00    -0.296 C  
HETATM   19  O   UNL     1     -11.100  12.800  66.891  1.00  0.00    -0.254 OA 
HETATM   20  H   UNL     1     -11.851  12.931  66.325  1.00  0.00     0.000 HD 
ENDBRANCH  17  18
ENDBRANCH  16  17
ENDBRANCH  15  16
ENDBRANCH  11  15
TORSDOF 4
ENDMDL
MODEL      196
REMARK 921   NORMALIZED FREE ENERGY PREDICTED BY IDOCK:   -3.02 KCAL/MOL
REMARK 922        TOTAL FREE ENERGY PREDICTED BY IDOCK:   -3.94 KCAL/MOL
REMARK 923 INTER-LIGAND FREE ENERGY PREDICTED BY IDOCK:   -3.71 KCAL/MOL
REMARK 924 INTRA-LIGAND FREE ENERGY PREDICTED BY IDOCK:   -0.24 KCAL/MOL
REMARK 927      BINDING AFFINITY PREDICTED BY RF-SCORE:    0.00 PKD
ROOT
HETATM    1  N   UNL     1      -6.424  10.127  68.998  1.00  0.00    -0.044 NA 
HETATM    2  H2  UNL     1      -5.491   9.855  68.687  1.00  0.00     0.000 HD 
HETATM    3  H1  UNL     1      -6.619  10.222  69.995  1.00  0.00     0.000 HD 
HETATM    4  C   UNL     1      -7.399  10.360  68.085  1.00  0.00    -0.088 C  
HETATM    5  N   UNL     1      -7.152  10.239  66.816  1.00  0.00    -0.091 N  
HETATM    6  C   UNL     1      -8.154  10.517  65.876  1.00  0.00    -0.154 C  
HETATM    7  H   UNL     1      -6.227   9.942  66.502  1.00  0.00     0.000 HD 
HETATM    8  C   UNL     1      -9.427  10.989  66.442  1.00  0.00    -0.193 A  
HETATM    9  O   UNL     1      -7.981  10.380  64.669  1.00  0.00    -0.149 OA 
HETATM   10  C   UNL     1      -9.572  11.068  67.802  1.00  0.00    -0.170 A  
HETATM   11  N   UNL     1     -10.813  11.561  68.044  1.00  0.00    -0.201 NA 
HETATM   12  N   UNL     1      -8.594  10.726  68.656  1.00  0.00    -0.144 NA 
HETATM   13  C   UNL     1     -11.392  11.752  66.812  1.00  0.00    -0.320 A  
HETATM   14  N   UNL     1     -10.586  11.410  65.825  1.00  0.00    -0.261 NA 
ENDROOT
BRANCH  11  15
HETATM   15  C   UNL     1     -11.462  11.763  69.321  1.00  0.00    -0.306 C  
BRANCH  15  16
HETATM   16  O   UNL     1     -11.963  10.510  69.784  1.00  0.00    -0.272 OA 
BRANCH  16  17
HETATM   17  C   UNL     1     -11.885  10.424  71.213  1.00  0.00    -0.289 C  
BRANCH  17  18
HETATM   18  C   UNL     1     -13.274  10.127  71.768  1.00  0.00    -0.438 C  
HETATM   19  O   UNL     1     -13.884   9.077  71.022  1.00  0.00    -0.589 OA 
HETATM   20  H   UNL     1     -14.750   8.892  71.368  1.00  0.00     0.000 HD 
ENDBRANCH  17  18
ENDBRANCH  16  17
ENDBRANCH  15  16
ENDBRANCH  11  15
TORSDOF 4
ENDMDL
MODEL      197
REMARK 921   NORMALIZED FREE ENERGY PREDICTED BY IDOCK:   -3.01 KCAL/MOL
REMARK 922        TOTAL FREE ENERGY PREDICTED BY IDOCK:   -3.94 KCAL/MOL
REMARK 923 INTER-LIGAND FREE ENERGY PREDICTED BY IDOCK:   -3.74 KCAL/MOL
REMARK 924 INTRA-LIGAND FREE ENERGY PREDICTED BY IDOCK:   -0.20 KCAL/MOL
REMARK 927      BINDING AFFINITY PREDICTED BY RF-SCORE:    0.00 PKD
ROOT
HETATM    1  N   UNL     1      -7.535  15.480  67.855  1.00  0.00    -0.127 NA 
HETATM    2  H2  UNL     1      -7.436  16.485  68.002  1.00  0.00     0.000 HD 
HETATM    3  H1  UNL     1      -6.725  14.927  67.575  1.00  0.00     0.000 HD 
HETATM    4  C   UNL     1      -8.741  14.887  68.033  1.00  0.00    -0.165 C  
HETATM    5  N   UNL     1      -9.772  15.591  68.391  1.00  0.00    -0.200 N  
HETATM    6  C   UNL     1     -11.007  14.965  68.608  1.00  0.00    -0.257 C  
HETATM    7  H   UNL     1      -9.683  16.600  68.513  1.00  0.00     0.000 HD 
HETATM    8  C   UNL     1     -11.002  13.503  68.455  1.00  0.00    -0.266 A  
HETATM    9  O   UNL     1     -12.018  15.592  68.909  1.00  0.00    -0.367 OA 
HETATM   10  C   UNL     1      -9.852  12.870  68.065  1.00  0.00    -0.223 A  
HETATM   11  N   UNL     1     -10.116  11.539  68.038  1.00  0.00    -0.181 NA 
HETATM   12  N   UNL     1      -8.712  13.531  67.808  1.00  0.00    -0.176 NA 
HETATM   13  C   UNL     1     -11.435  11.407  68.402  1.00  0.00    -0.299 A  
HETATM   14  N   UNL     1     -12.001  12.573  68.652  1.00  0.00    -0.284 NA 
ENDROOT
BRANCH  11  15
HETATM   15  C   UNL     1      -9.244  10.462  67.624  1.00  0.00    -0.148 C  
BRANCH  15  16
HETATM   16  O   UNL     1      -8.994  10.587  66.224  1.00  0.00    -0.151 OA 
BRANCH  16  17
HETATM   17  C   UNL     1      -8.979   9.302  65.591  1.00  0.00    -0.199 C  
BRANCH  17  18
HETATM   18  C   UNL     1      -8.803   9.493  64.088  1.00  0.00    -0.211 C  
HETATM   19  O   UNL     1      -9.916  10.203  63.552  1.00  0.00    -0.482 OA 
HETATM   20  H   UNL     1      -9.806  10.322  62.615  1.00  0.00     0.000 HD 
ENDBRANCH  17  18
ENDBRANCH  16  17
ENDBRANCH  15  16
ENDBRANCH  11  15
TORSDOF 4
ENDMDL
MODEL      198
REMARK 921   NORMALIZED FREE ENERGY PREDICTED BY IDOCK:   -3.01 KCAL/MOL
REMARK 922        TOTAL FREE ENERGY PREDICTED BY IDOCK:   -3.93 KCAL/MOL
REMARK 923 INTER-LIGAND FREE ENERGY PREDICTED BY IDOCK:   -3.64 KCAL/MOL
REMARK 924 INTRA-LIGAND FREE ENERGY PREDICTED BY IDOCK:   -0.30 KCAL/MOL
REMARK 927      BINDING AFFINITY PREDICTED BY RF-SCORE:    0.00 PKD
ROOT
HETATM    1  N   UNL     1     -12.599   9.976  69.371  1.00  0.00    -0.130 NA 
HETATM    2  H2  UNL     1     -12.755   8.996  69.608  1.00  0.00     0.000 HD 
HETATM    3  H1  UNL     1     -13.358  10.651  69.474  1.00  0.00     0.000 HD 
HETATM    4  C   UNL     1     -11.384  10.377  68.922  1.00  0.00    -0.219 C  
HETATM    5  N   UNL     1     -10.417   9.519  68.792  1.00  0.00    -0.215 N  
HETATM    6  C   UNL     1      -9.153   9.946  68.361  1.00  0.00    -0.123 C  
HETATM    7  H   UNL     1     -10.578   8.534  69.003  1.00  0.00     0.000 HD 
HETATM    8  C   UNL     1      -9.026  11.395  68.140  1.00  0.00    -0.169 A  
HETATM    9  O   UNL     1      -8.221   9.169  68.186  1.00  0.00    -0.114 OA 
HETATM   10  C   UNL     1     -10.121  12.200  68.303  1.00  0.00    -0.210 A  
HETATM   11  N   UNL     1      -9.718  13.476  68.075  1.00  0.00    -0.221 NA 
HETATM   12  N   UNL     1     -11.326  11.724  68.656  1.00  0.00    -0.244 NA 
HETATM   13  C   UNL     1      -8.381  13.400  67.763  1.00  0.00    -0.178 A  
HETATM   14  N   UNL     1      -7.934  12.159  67.786  1.00  0.00    -0.139 NA 
ENDROOT
BRANCH  11  15
HETATM   15  C   UNL     1     -10.521  14.679  68.057  1.00  0.00    -0.236 C  
BRANCH  15  16
HETATM   16  O   UNL     1     -10.068  15.548  69.094  1.00  0.00    -0.210 OA 
BRANCH  16  17
HETATM   17  C   UNL     1     -10.769  15.291  70.318  1.00  0.00    -0.258 C  
BRANCH  17  18
HETATM   18  C   UNL     1     -12.210  14.909  69.992  1.00  0.00    -0.333 C  
HETATM   19  O   UNL     1     -13.110  15.804  70.639  1.00  0.00    -0.637 OA 
HETATM   20  H   UNL     1     -14.008  15.567  70.435  1.00  0.00     0.000 HD 
ENDBRANCH  17  18
ENDBRANCH  16  17
ENDBRANCH  15  16
ENDBRANCH  11  15
TORSDOF 4
ENDMDL
MODEL      199
REMARK 921   NORMALIZED FREE ENERGY PREDICTED BY IDOCK:   -2.96 KCAL/MOL
REMARK 922        TOTAL FREE ENERGY PREDICTED BY IDOCK:   -3.88 KCAL/MOL
REMARK 923 INTER-LIGAND FREE ENERGY PREDICTED BY IDOCK:   -3.55 KCAL/MOL
REMARK 924 INTRA-LIGAND FREE ENERGY PREDICTED BY IDOCK:   -0.32 KCAL/MOL
REMARK 927      BINDING AFFINITY PREDICTED BY RF-SCORE:    0.00 PKD
ROOT
HETATM    1  N   UNL     1      -6.941  16.752  69.348  1.00  0.00    -0.219 NA 
HETATM    2  H2  UNL     1      -6.773  17.651  69.801  1.00  0.00     0.000 HD 
HETATM    3  H1  UNL     1      -6.274  15.990  69.470  1.00  0.00     0.000 HD 
HETATM    4  C   UNL     1      -8.050  16.576  68.588  1.00  0.00    -0.233 C  
HETATM    5  N   UNL     1      -8.900  17.546  68.433  1.00  0.00    -0.270 N  
HETATM    6  C   UNL     1     -10.062  17.345  67.676  1.00  0.00    -0.327 C  
HETATM    7  H   UNL     1      -8.722  18.454  68.863  1.00  0.00     0.000 HD 
HETATM    8  C   UNL     1     -10.238  15.983  67.151  1.00  0.00    -0.278 A  
HETATM    9  O   UNL     1     -10.875  18.241  67.468  1.00  0.00    -0.399 OA 
HETATM   10  C   UNL     1      -9.267  15.044  67.374  1.00  0.00    -0.195 A  
HETATM   11  N   UNL     1      -9.697  13.882  66.820  1.00  0.00    -0.270 NA 
HETATM   12  N   UNL     1      -8.141  15.313  68.055  1.00  0.00    -0.134 NA 
HETATM   13  C   UNL     1     -10.922  14.161  66.260  1.00  0.00    -0.303 A  
HETATM   14  N   UNL     1     -11.274  15.420  66.435  1.00  0.00    -0.231 NA 
ENDROOT
BRANCH  11  15
HETATM   15  C   UNL     1      -8.997  12.619  66.731  1.00  0.00    -0.197 C  
BRANCH  15  16
HETATM   16  O   UNL     1      -9.128  11.934  67.976  1.00  0.00    -0.175 OA 
BRANCH  16  17
HETATM   17  C   UNL     1      -7.853  11.474  68.441  1.00  0.00    -0.136 C  
BRANCH  17  18
HETATM   18  C   UNL     1      -6.863  11.499  67.282  1.00  0.00    -0.118 C  
HETATM   19  O   UNL     1      -6.522  10.169  66.901  1.00  0.00    -0.067 OA 
HETATM   20  H   UNL     1      -5.905  10.185  66.178  1.00  0.00     0.000 HD 
ENDBRANCH  17  18
ENDBRANCH  16  17
ENDBRANCH  15  16
ENDBRANCH  11  15
TORSDOF 4
ENDMDL
MODEL      200
REMARK 921   NORMALIZED FREE ENERGY PREDICTED BY IDOCK:   -2.95 KCAL/MOL
REMARK 922        TOTAL FREE ENERGY PREDICTED BY IDOCK:   -3.87 KCAL/MOL
REMARK 923 INTER-LIGAND FREE ENERGY PREDICTED BY IDOCK:   -3.87 KCAL/MOL
REMARK 924 INTRA-LIGAND FREE ENERGY PREDICTED BY IDOCK:    0.00 KCAL/MOL
REMARK 927      BINDING AFFINITY PREDICTED BY RF-SCORE:    0.00 PKD
ROOT
HETATM    1  N   UNL     1      -7.494  10.692  67.623  1.00  0.00    -0.091 NA 
HETATM    2  H2  UNL     1      -7.098  10.588  68.557  1.00  0.00     0.000 HD 
HETATM    3  H1  UNL     1      -7.113  10.151  66.847  1.00  0.00     0.000 HD 
HETATM    4  C   UNL     1      -8.525  11.549  67.419  1.00  0.00    -0.147 C  
HETATM    5  N   UNL     1      -9.010  12.238  68.407  1.00  0.00    -0.296 N  
HETATM    6  C   UNL     1     -10.099  13.095  68.196  1.00  0.00    -0.237 C  
HETATM    7  H   UNL     1      -8.599  12.156  69.337  1.00  0.00     0.000 HD 
HETATM    8  C   UNL     1     -10.642  13.091  66.829  1.00  0.00    -0.262 A  
HETATM    9  O   UNL     1     -10.568  13.795  69.088  1.00  0.00    -0.185 OA 
HETATM   10  C   UNL     1     -10.038  12.326  65.867  1.00  0.00    -0.251 A  
HETATM   11  N   UNL     1     -10.756  12.479  64.725  1.00  0.00    -0.288 NA 
HETATM   12  N   UNL     1      -8.955  11.572  66.114  1.00  0.00    -0.209 NA 
HETATM   13  C   UNL     1     -11.773  13.352  65.031  1.00  0.00    -0.325 A  
HETATM   14  N   UNL     1     -11.729  13.746  66.289  1.00  0.00    -0.358 NA 
ENDROOT
BRANCH  11  15
HETATM   15  C   UNL     1     -10.480  11.931  63.415  1.00  0.00    -0.441 C  
BRANCH  15  16
HETATM   16  O   UNL     1     -10.146  10.551  63.556  1.00  0.00    -0.286 OA 
BRANCH  16  17
HETATM   17  C   UNL     1      -8.886  10.264  62.936  1.00  0.00    -0.227 C  
BRANCH  17  18
HETATM   18  C   UNL     1      -8.358   8.940  63.478  1.00  0.00    -0.167 C  
HETATM   19  O   UNL     1      -7.642   8.247  62.460  1.00  0.00    -0.102 OA 
HETATM   20  H   UNL     1      -7.313   7.422  62.798  1.00  0.00     0.000 HD 
ENDBRANCH  17  18
ENDBRANCH  16  17
ENDBRANCH  15  16
ENDBRANCH  11  15
TORSDOF 4
ENDMDL
MODEL      201
REMARK 921   NORMALIZED FREE ENERGY PREDICTED BY IDOCK:   -2.92 KCAL/MOL
REMARK 922        TOTAL FREE ENERGY PREDICTED BY IDOCK:   -3.83 KCAL/MOL
REMARK 923 INTER-LIGAND FREE ENERGY PREDICTED BY IDOCK:   -3.30 KCAL/MOL
REMARK 924 INTRA-LIGAND FREE ENERGY PREDICTED BY IDOCK:   -0.53 KCAL/MOL
REMARK 927      BINDING AFFINITY PREDICTED BY RF-SCORE:    0.00 PKD
ROOT
HETATM    1  N   UNL     1     -11.836  11.695  67.272  1.00  0.00    -0.626 NA 
HETATM    2  H2  UNL     1     -12.661  11.115  67.118  1.00  0.00     0.000 HD 
HETATM    3  H1  UNL     1     -11.939  12.623  67.683  1.00  0.00     0.000 HD 
HETATM    4  C   UNL     1     -10.609  11.229  66.932  1.00  0.00    -0.257 C  
HETATM    5  N   UNL     1     -10.479  10.048  66.409  1.00  0.00    -0.171 N  
HETATM    6  C   UNL     1      -9.204   9.558  66.092  1.00  0.00    -0.177 C  
HETATM    7  H   UNL     1     -11.304   9.475  66.228  1.00  0.00     0.000 HD 
HETATM    8  C   UNL     1      -8.087  10.448  66.446  1.00  0.00    -0.129 A  
HETATM    9  O   UNL     1      -9.032   8.465  65.562  1.00  0.00    -0.171 OA 
HETATM   10  C   UNL     1      -8.352  11.678  66.987  1.00  0.00    -0.169 A  
HETATM   11  N   UNL     1      -7.156  12.266  67.248  1.00  0.00    -0.148 NA 
HETATM   12  N   UNL     1      -9.600  12.119  67.209  1.00  0.00    -0.183 NA 
HETATM   13  C   UNL     1      -6.196  11.371  66.838  1.00  0.00    -0.135 A  
HETATM   14  N   UNL     1      -6.724  10.267  66.343  1.00  0.00    -0.094 NA 
ENDROOT
BRANCH  11  15
HETATM   15  C   UNL     1      -6.905  13.596  67.758  1.00  0.00    -0.168 C  
BRANCH  15  16
HETATM   16  O   UNL     1      -7.118  13.593  69.169  1.00  0.00    -0.104 OA 
BRANCH  16  17
HETATM   17  C   UNL     1      -7.522  14.890  69.627  1.00  0.00    -0.126 C  
BRANCH  17  18
HETATM   18  C   UNL     1      -8.868  15.239  69.001  1.00  0.00    -0.226 C  
HETATM   19  O   UNL     1      -9.792  14.173  69.202  1.00  0.00    -0.415 OA 
HETATM   20  H   UNL     1     -10.631  14.391  68.812  1.00  0.00     0.000 HD 
ENDBRANCH  17  18
ENDBRANCH  16  17
ENDBRANCH  15  16
ENDBRANCH  11  15
TORSDOF 4
ENDMDL
MODEL      202
REMARK 921   NORMALIZED FREE ENERGY PREDICTED BY IDOCK:   -2.91 KCAL/MOL
REMARK 922        TOTAL FREE ENERGY PREDICTED BY IDOCK:   -3.82 KCAL/MOL
REMARK 923 INTER-LIGAND FREE ENERGY PREDICTED BY IDOCK:   -3.50 KCAL/MOL
REMARK 924 INTRA-LIGAND FREE ENERGY PREDICTED BY IDOCK:   -0.32 KCAL/MOL
REMARK 927      BINDING AFFINITY PREDICTED BY RF-SCORE:    0.00 PKD
ROOT
HETATM    1  N   UNL     1     -11.939   8.459  72.132  1.00  0.00    -0.350 NA 
HETATM    2  H2  UNL     1     -12.955   8.389  72.208  1.00  0.00     0.000 HD 
HETATM    3  H1  UNL     1     -11.346   7.981  72.810  1.00  0.00     0.000 HD 
HETATM    4  C   UNL     1     -11.386   9.188  71.131  1.00  0.00    -0.322 C  
HETATM    5  N   UNL     1     -12.141   9.797  70.268  1.00  0.00    -0.469 N  
HETATM    6  C   UNL     1     -11.562  10.518  69.215  1.00  0.00    -0.236 C  
HETATM    7  H   UNL     1     -13.157   9.750  70.357  1.00  0.00     0.000 HD 
HETATM    8  C   UNL     1     -10.093  10.469  69.158  1.00  0.00    -0.224 A  
HETATM    9  O   UNL     1     -12.232  11.142  68.398  1.00  0.00    -0.610 OA 
HETATM   10  C   UNL     1      -9.403   9.799  70.133  1.00  0.00    -0.215 A  
HETATM   11  N   UNL     1      -8.085   9.882  69.819  1.00  0.00    -0.162 NA 
HETATM   12  N   UNL     1     -10.012   9.179  71.156  1.00  0.00    -0.294 NA 
HETATM   13  C   UNL     1      -8.017  10.620  68.661  1.00  0.00    -0.128 A  
HETATM   14  N   UNL     1      -9.209  10.996  68.240  1.00  0.00    -0.158 NA 
ENDROOT
BRANCH  11  15
HETATM   15  C   UNL     1      -6.953   9.392  70.575  1.00  0.00    -0.105 C  
BRANCH  15  16
HETATM   16  O   UNL     1      -7.042   7.971  70.666  1.00  0.00    -0.044 OA 
BRANCH  16  17
HETATM   17  C   UNL     1      -6.077   7.343  69.812  1.00  0.00    -0.027 C  
BRANCH  17  18
HETATM   18  C   UNL     1      -6.803   6.419  68.841  1.00  0.00    -0.066 C  
HETATM   19  O   UNL     1      -7.177   7.138  67.668  1.00  0.00    -0.085 OA 
HETATM   20  H   UNL     1      -7.629   6.561  67.063  1.00  0.00     0.000 HD 
ENDBRANCH  17  18
ENDBRANCH  16  17
ENDBRANCH  15  16
ENDBRANCH  11  15
TORSDOF 4
ENDMDL
MODEL      203
REMARK 921   NORMALIZED FREE ENERGY PREDICTED BY IDOCK:   -2.91 KCAL/MOL
REMARK 922        TOTAL FREE ENERGY PREDICTED BY IDOCK:   -3.81 KCAL/MOL
REMARK 923 INTER-LIGAND FREE ENERGY PREDICTED BY IDOCK:   -3.61 KCAL/MOL
REMARK 924 INTRA-LIGAND FREE ENERGY PREDICTED BY IDOCK:   -0.20 KCAL/MOL
REMARK 927      BINDING AFFINITY PREDICTED BY RF-SCORE:    0.00 PKD
ROOT
HETATM    1  N   UNL     1      -5.576  16.009  67.855  1.00  0.00    -0.123 NA 
HETATM    2  H2  UNL     1      -5.155  15.093  67.695  1.00  0.00     0.000 HD 
HETATM    3  H1  UNL     1      -5.008  16.770  68.227  1.00  0.00     0.000 HD 
HETATM    4  C   UNL     1      -6.886  16.209  67.570  1.00  0.00    -0.165 C  
HETATM    5  N   UNL     1      -7.610  15.241  67.096  1.00  0.00    -0.208 N  
HETATM    6  C   UNL     1      -8.955  15.465  66.770  1.00  0.00    -0.259 C  
HETATM    7  H   UNL     1      -7.199  14.317  66.960  1.00  0.00     0.000 HD 
HETATM    8  C   UNL     1      -9.421  16.847  66.957  1.00  0.00    -0.244 A  
HETATM    9  O   UNL     1      -9.689  14.573  66.356  1.00  0.00    -0.269 OA 
HETATM   10  C   UNL     1      -8.565  17.782  67.474  1.00  0.00    -0.228 A  
HETATM   11  N   UNL     1      -9.233  18.964  67.504  1.00  0.00    -0.288 NA 
HETATM   12  N   UNL     1      -7.303  17.493  67.828  1.00  0.00    -0.183 NA 
HETATM   13  C   UNL     1     -10.490  18.700  67.014  1.00  0.00    -0.407 A  
HETATM   14  N   UNL     1     -10.639  17.432  66.681  1.00  0.00    -0.239 NA 
ENDROOT
BRANCH  11  15
HETATM   15  C   UNL     1      -8.782  20.234  68.028  1.00  0.00    -0.072 C  
BRANCH  15  16
HETATM   16  O   UNL     1      -8.150  20.965  66.978  1.00  0.00    -0.217 OA 
BRANCH  16  17
HETATM   17  C   UNL     1      -6.728  20.787  67.016  1.00  0.00    -0.313 C  
BRANCH  17  18
HETATM   18  C   UNL     1      -6.173  20.937  65.604  1.00  0.00    -0.230 C  
HETATM   19  O   UNL     1      -5.761  19.667  65.103  1.00  0.00    -0.169 OA 
HETATM   20  H   UNL     1      -5.415  19.761  64.223  1.00  0.00     0.000 HD 
ENDBRANCH  17  18
ENDBRANCH  16  17
ENDBRANCH  15  16
ENDBRANCH  11  15
TORSDOF 4
ENDMDL
MODEL      204
REMARK 921   NORMALIZED FREE ENERGY PREDICTED BY IDOCK:   -2.89 KCAL/MOL
REMARK 922        TOTAL FREE ENERGY PREDICTED BY IDOCK:   -3.79 KCAL/MOL
REMARK 923 INTER-LIGAND FREE ENERGY PREDICTED BY IDOCK:   -3.52 KCAL/MOL
REMARK 924 INTRA-LIGAND FREE ENERGY PREDICTED BY IDOCK:   -0.26 KCAL/MOL
REMARK 927      BINDING AFFINITY PREDICTED BY RF-SCORE:    0.00 PKD
ROOT
HETATM    1  N   UNL     1     -11.350   6.329  67.930  1.00  0.00    -0.565 NA 
HETATM    2  H2  UNL     1     -12.021   6.939  67.464  1.00  0.00     0.000 HD 
HETATM    3  H1  UNL     1     -10.754   5.713  67.376  1.00  0.00     0.000 HD 
HETATM    4  C   UNL     1     -11.251   6.342  69.282  1.00  0.00    -0.389 C  
HETATM    5  N   UNL     1     -12.009   7.126  69.988  1.00  0.00    -0.574 N  
HETATM    6  C   UNL     1     -11.877   7.160  71.383  1.00  0.00    -0.308 C  
HETATM    7  H   UNL     1     -12.700   7.718  69.527  1.00  0.00     0.000 HD 
HETATM    8  C   UNL     1     -10.812   6.306  71.931  1.00  0.00    -0.242 A  
HETATM    9  O   UNL     1     -12.594   7.855  72.095  1.00  0.00    -0.301 OA 
HETATM   10  C   UNL     1     -10.082   5.514  71.085  1.00  0.00    -0.207 A  
HETATM   11  N   UNL     1      -9.157   4.867  71.840  1.00  0.00    -0.134 NA 
HETATM   12  N   UNL     1     -10.297   5.475  69.761  1.00  0.00    -0.270 NA 
HETATM   13  C   UNL     1      -9.368   5.281  73.134  1.00  0.00    -0.135 A  
HETATM   14  N   UNL     1     -10.364   6.142  73.225  1.00  0.00    -0.212 NA 
ENDROOT
BRANCH  11  15
HETATM   15  C   UNL     1      -8.198   3.870  71.420  1.00  0.00    -0.069 C  
BRANCH  15  16
HETATM   16  O   UNL     1      -8.021   2.929  72.478  1.00  0.00    -0.057 OA 
BRANCH  16  17
HETATM   17  C   UNL     1      -6.630   2.736  72.764  1.00  0.00    -0.022 C  
BRANCH  17  18
HETATM   18  C   UNL     1      -6.390   2.989  74.249  1.00  0.00    -0.024 C  
HETATM   19  O   UNL     1      -5.741   4.244  74.432  1.00  0.00    -0.014 OA 
HETATM   20  H   UNL     1      -5.592   4.402  75.357  1.00  0.00     0.000 HD 
ENDBRANCH  17  18
ENDBRANCH  16  17
ENDBRANCH  15  16
ENDBRANCH  11  15
TORSDOF 4
ENDMDL
MODEL      205
REMARK 921   NORMALIZED FREE ENERGY PREDICTED BY IDOCK:   -2.88 KCAL/MOL
REMARK 922        TOTAL FREE ENERGY PREDICTED BY IDOCK:   -3.77 KCAL/MOL
REMARK 923 INTER-LIGAND FREE ENERGY PREDICTED BY IDOCK:   -3.59 KCAL/MOL
REMARK 924 INTRA-LIGAND FREE ENERGY PREDICTED BY IDOCK:   -0.18 KCAL/MOL
REMARK 927      BINDING AFFINITY PREDICTED BY RF-SCORE:    0.00 PKD
ROOT
HETATM    1  N   UNL     1     -13.344   7.815  71.986  1.00  0.00    -0.492 NA 
HETATM    2  H2  UNL     1     -14.215   8.208  72.342  1.00  0.00     0.000 HD 
HETATM    3  H1  UNL     1     -13.111   6.841  72.179  1.00  0.00     0.000 HD 
HETATM    4  C   UNL     1     -12.502   8.589  71.258  1.00  0.00    -0.249 C  
HETATM    5  N   UNL     1     -12.798   9.829  71.012  1.00  0.00    -0.459 N  
HETATM    6  C   UNL     1     -11.940  10.613  70.228  1.00  0.00    -0.339 C  
HETATM    7  H   UNL     1     -13.656  10.233  71.389  1.00  0.00     0.000 HD 
HETATM    8  C   UNL     1     -10.763   9.910  69.696  1.00  0.00    -0.252 A  
HETATM    9  O   UNL     1     -12.157  11.799  70.000  1.00  0.00    -0.319 OA 
HETATM   10  C   UNL     1     -10.552   8.600  70.033  1.00  0.00    -0.227 A  
HETATM   11  N   UNL     1      -9.431   8.194  69.383  1.00  0.00    -0.162 NA 
HETATM   12  N   UNL     1     -11.378   7.917  70.842  1.00  0.00    -0.275 NA 
HETATM   13  C   UNL     1      -8.986   9.288  68.678  1.00  0.00    -0.132 A  
HETATM   14  N   UNL     1      -9.762  10.341  68.851  1.00  0.00    -0.179 NA 
ENDROOT
BRANCH  11  15
HETATM   15  C   UNL     1      -8.760   6.916  69.468  1.00  0.00    -0.133 C  
BRANCH  15  16
HETATM   16  O   UNL     1      -9.370   6.015  68.545  1.00  0.00    -0.117 OA 
BRANCH  16  17
HETATM   17  C   UNL     1      -9.007   4.660  68.837  1.00  0.00    -0.108 C  
BRANCH  17  18
HETATM   18  C   UNL     1      -8.000   4.181  67.797  1.00  0.00    -0.090 C  
HETATM   19  O   UNL     1      -7.557   2.865  68.116  1.00  0.00    -0.056 OA 
HETATM   20  H   UNL     1      -6.930   2.566  67.468  1.00  0.00     0.000 HD 
ENDBRANCH  17  18
ENDBRANCH  16  17
ENDBRANCH  15  16
ENDBRANCH  11  15
TORSDOF 4
ENDMDL
MODEL      206
REMARK 921   NORMALIZED FREE ENERGY PREDICTED BY IDOCK:   -2.87 KCAL/MOL
REMARK 922        TOTAL FREE ENERGY PREDICTED BY IDOCK:   -3.77 KCAL/MOL
REMARK 923 INTER-LIGAND FREE ENERGY PREDICTED BY IDOCK:   -3.24 KCAL/MOL
REMARK 924 INTRA-LIGAND FREE ENERGY PREDICTED BY IDOCK:   -0.53 KCAL/MOL
REMARK 927      BINDING AFFINITY PREDICTED BY RF-SCORE:    0.00 PKD
ROOT
HETATM    1  N   UNL     1      -7.139   8.331  67.980  1.00  0.00    -0.084 NA 
HETATM    2  H2  UNL     1      -6.887   8.272  66.993  1.00  0.00     0.000 HD 
HETATM    3  H1  UNL     1      -6.486   8.739  68.647  1.00  0.00     0.000 HD 
HETATM    4  C   UNL     1      -8.343   7.865  68.397  1.00  0.00    -0.124 C  
HETATM    5  N   UNL     1      -9.176   7.345  67.547  1.00  0.00    -0.130 N  
HETATM    6  C   UNL     1     -10.432   6.899  67.980  1.00  0.00    -0.211 C  
HETATM    7  H   UNL     1      -8.916   7.261  66.564  1.00  0.00     0.000 HD 
HETATM    8  C   UNL     1     -10.717   7.121  69.405  1.00  0.00    -0.231 A  
HETATM    9  O   UNL     1     -11.237   6.366  67.223  1.00  0.00    -0.364 OA 
HETATM   10  C   UNL     1      -9.753   7.673  70.207  1.00  0.00    -0.179 A  
HETATM   11  N   UNL     1     -10.288   7.797  71.448  1.00  0.00    -0.197 NA 
HETATM   12  N   UNL     1      -8.541   8.023  69.748  1.00  0.00    -0.130 NA 
HETATM   13  C   UNL     1     -11.566   7.297  71.362  1.00  0.00    -0.276 A  
HETATM   14  N   UNL     1     -11.854   6.874  70.146  1.00  0.00    -0.265 NA 
ENDROOT
BRANCH  11  15
HETATM   15  C   UNL     1      -9.644   8.262  72.658  1.00  0.00    -0.282 C  
BRANCH  15  16
HETATM   16  O   UNL     1     -10.114   7.482  73.756  1.00  0.00    -0.319 OA 
BRANCH  16  17
HETATM   17  C   UNL     1      -9.102   6.573  74.207  1.00  0.00    -0.179 C  
BRANCH  17  18
HETATM   18  C   UNL     1      -9.460   5.165  73.746  1.00  0.00    -0.132 C  
HETATM   19  O   UNL     1      -9.067   4.979  72.389  1.00  0.00    -0.132 OA 
HETATM   20  H   UNL     1      -9.290   4.101  72.103  1.00  0.00     0.000 HD 
ENDBRANCH  17  18
ENDBRANCH  16  17
ENDBRANCH  15  16
ENDBRANCH  11  15
TORSDOF 4
ENDMDL
MODEL      207
REMARK 921   NORMALIZED FREE ENERGY PREDICTED BY IDOCK:   -2.87 KCAL/MOL
REMARK 922        TOTAL FREE ENERGY PREDICTED BY IDOCK:   -3.76 KCAL/MOL
REMARK 923 INTER-LIGAND FREE ENERGY PREDICTED BY IDOCK:   -3.52 KCAL/MOL
REMARK 924 INTRA-LIGAND FREE ENERGY PREDICTED BY IDOCK:   -0.24 KCAL/MOL
REMARK 927      BINDING AFFINITY PREDICTED BY RF-SCORE:    0.00 PKD
ROOT
HETATM    1  N   UNL     1      -8.044  11.182  68.080  1.00  0.00    -0.122 NA 
HETATM    2  H2  UNL     1      -7.844  12.017  67.528  1.00  0.00     0.000 HD 
HETATM    3  H1  UNL     1      -7.361  10.426  68.122  1.00  0.00     0.000 HD 
HETATM    4  C   UNL     1      -9.216  11.084  68.754  1.00  0.00    -0.162 C  
HETATM    5  N   UNL     1     -10.086  12.046  68.701  1.00  0.00    -0.328 N  
HETATM    6  C   UNL     1     -11.281  11.953  69.430  1.00  0.00    -0.211 C  
HETATM    7  H   UNL     1      -9.901  12.871  68.130  1.00  0.00     0.000 HD 
HETATM    8  C   UNL     1     -11.414  10.746  70.259  1.00  0.00    -0.319 A  
HETATM    9  O   UNL     1     -12.150  12.818  69.382  1.00  0.00    -0.273 OA 
HETATM   10  C   UNL     1     -10.430   9.794  70.226  1.00  0.00    -0.288 A  
HETATM   11  N   UNL     1     -10.786   8.819  71.101  1.00  0.00    -0.249 NA 
HETATM   12  N   UNL     1      -9.336   9.909  69.458  1.00  0.00    -0.207 NA 
HETATM   13  C   UNL     1     -11.994   9.209  71.631  1.00  0.00    -0.367 A  
HETATM   14  N   UNL     1     -12.404  10.362  71.139  1.00  0.00    -0.364 NA 
ENDROOT
BRANCH  11  15
HETATM   15  C   UNL     1     -10.110   7.570  71.373  1.00  0.00    -0.186 C  
BRANCH  15  16
HETATM   16  O   UNL     1      -9.402   7.690  72.605  1.00  0.00    -0.147 OA 
BRANCH  16  17
HETATM   17  C   UNL     1      -7.986   7.663  72.386  1.00  0.00    -0.107 C  
BRANCH  17  18
HETATM   18  C   UNL     1      -7.476   6.245  72.619  1.00  0.00    -0.099 C  
HETATM   19  O   UNL     1      -7.254   6.028  74.009  1.00  0.00    -0.087 OA 
HETATM   20  H   UNL     1      -6.937   5.144  74.154  1.00  0.00     0.000 HD 
ENDBRANCH  17  18
ENDBRANCH  16  17
ENDBRANCH  15  16
ENDBRANCH  11  15
TORSDOF 4
ENDMDL
MODEL      208
REMARK 921   NORMALIZED FREE ENERGY PREDICTED BY IDOCK:   -2.86 KCAL/MOL
REMARK 922        TOTAL FREE ENERGY PREDICTED BY IDOCK:   -3.75 KCAL/MOL
REMARK 923 INTER-LIGAND FREE ENERGY PREDICTED BY IDOCK:   -3.57 KCAL/MOL
REMARK 924 INTRA-LIGAND FREE ENERGY PREDICTED BY IDOCK:   -0.18 KCAL/MOL
REMARK 927      BINDING AFFINITY PREDICTED BY RF-SCORE:    0.00 PKD
ROOT
HETATM    1  N   UNL     1     -11.907   6.527  69.567  1.00  0.00    -0.589 NA 
HETATM    2  H2  UNL     1     -12.206   5.612  69.903  1.00  0.00     0.000 HD 
HETATM    3  H1  UNL     1     -12.270   7.373  70.007  1.00  0.00     0.000 HD 
HETATM    4  C   UNL     1     -11.029   6.614  68.538  1.00  0.00    -0.244 C  
HETATM    5  N   UNL     1     -10.566   5.538  67.978  1.00  0.00    -0.178 N  
HETATM    6  C   UNL     1      -9.630   5.635  66.938  1.00  0.00    -0.141 C  
HETATM    7  H   UNL     1     -10.883   4.621  68.294  1.00  0.00     0.000 HD 
HETATM    8  C   UNL     1      -9.207   7.003  66.605  1.00  0.00    -0.158 A  
HETATM    9  O   UNL     1      -9.193   4.650  66.352  1.00  0.00    -0.122 OA 
HETATM   10  C   UNL     1      -9.774   8.063  67.261  1.00  0.00    -0.177 A  
HETATM   11  N   UNL     1      -9.182   9.190  66.790  1.00  0.00    -0.149 NA 
HETATM   12  N   UNL     1     -10.715   7.911  68.206  1.00  0.00    -0.096 NA 
HETATM   13  C   UNL     1      -8.277   8.774  65.842  1.00  0.00    -0.118 A  
HETATM   14  N   UNL     1      -8.272   7.462  65.700  1.00  0.00    -0.132 NA 
ENDROOT
BRANCH  11  15
HETATM   15  C   UNL     1      -9.484  10.565  67.120  1.00  0.00    -0.159 C  
BRANCH  15  16
HETATM   16  O   UNL     1     -10.296  11.118  66.085  1.00  0.00    -0.237 OA 
BRANCH  16  17
HETATM   17  C   UNL     1     -10.399  12.541  66.221  1.00  0.00    -0.250 C  
BRANCH  17  18
HETATM   18  C   UNL     1     -11.848  12.905  66.524  1.00  0.00    -0.407 C  
HETATM   19  O   UNL     1     -12.080  14.278  66.221  1.00  0.00    -0.415 OA 
HETATM   20  H   UNL     1     -12.984  14.506  66.410  1.00  0.00     0.000 HD 
ENDBRANCH  17  18
ENDBRANCH  16  17
ENDBRANCH  15  16
ENDBRANCH  11  15
TORSDOF 4
ENDMDL
MODEL      209
REMARK 921   NORMALIZED FREE ENERGY PREDICTED BY IDOCK:   -2.84 KCAL/MOL
REMARK 922        TOTAL FREE ENERGY PREDICTED BY IDOCK:   -3.73 KCAL/MOL
REMARK 923 INTER-LIGAND FREE ENERGY PREDICTED BY IDOCK:   -3.50 KCAL/MOL
REMARK 924 INTRA-LIGAND FREE ENERGY PREDICTED BY IDOCK:   -0.22 KCAL/MOL
REMARK 927      BINDING AFFINITY PREDICTED BY RF-SCORE:    0.00 PKD
ROOT
HETATM    1  N   UNL     1     -10.944   6.833  68.014  1.00  0.00    -0.465 NA 
HETATM    2  H2  UNL     1     -11.757   6.738  67.405  1.00  0.00     0.000 HD 
HETATM    3  H1  UNL     1     -10.008   6.869  67.609  1.00  0.00     0.000 HD 
HETATM    4  C   UNL     1     -11.112   6.912  69.357  1.00  0.00    -0.206 C  
HETATM    5  N   UNL     1     -12.303   6.867  69.872  1.00  0.00    -0.352 N  
HETATM    6  C   UNL     1     -12.473   6.986  71.259  1.00  0.00    -0.386 C  
HETATM    7  H   UNL     1     -13.116   6.745  69.268  1.00  0.00     0.000 HD 
HETATM    8  C   UNL     1     -11.236   7.212  72.022  1.00  0.00    -0.251 A  
HETATM    9  O   UNL     1     -13.573   6.911  71.796  1.00  0.00    -0.312 OA 
HETATM   10  C   UNL     1     -10.034   7.232  71.366  1.00  0.00    -0.187 A  
HETATM   11  N   UNL     1      -9.076   7.492  72.292  1.00  0.00    -0.133 NA 
HETATM   12  N   UNL     1      -9.928   7.048  70.041  1.00  0.00    -0.181 NA 
HETATM   13  C   UNL     1      -9.734   7.607  73.495  1.00  0.00    -0.299 A  
HETATM   14  N   UNL     1     -11.036   7.436  73.368  1.00  0.00    -0.336 NA 
ENDROOT
BRANCH  11  15
HETATM   15  C   UNL     1      -7.642   7.546  72.107  1.00  0.00    -0.082 C  
BRANCH  15  16
HETATM   16  O   UNL     1      -7.228   6.378  71.400  1.00  0.00    -0.076 OA 
BRANCH  16  17
HETATM   17  C   UNL     1      -6.733   5.382  72.304  1.00  0.00    -0.065 C  
BRANCH  17  18
HETATM   18  C   UNL     1      -7.724   4.223  72.353  1.00  0.00    -0.086 C  
HETATM   19  O   UNL     1      -8.075   3.937  73.704  1.00  0.00    -0.086 OA 
HETATM   20  H   UNL     1      -8.692   3.215  73.734  1.00  0.00     0.000 HD 
ENDBRANCH  17  18
ENDBRANCH  16  17
ENDBRANCH  15  16
ENDBRANCH  11  15
TORSDOF 4
ENDMDL
MODEL      210
REMARK 921   NORMALIZED FREE ENERGY PREDICTED BY IDOCK:   -2.83 KCAL/MOL
REMARK 922        TOTAL FREE ENERGY PREDICTED BY IDOCK:   -3.71 KCAL/MOL
REMARK 923 INTER-LIGAND FREE ENERGY PREDICTED BY IDOCK:   -3.45 KCAL/MOL
REMARK 924 INTRA-LIGAND FREE ENERGY PREDICTED BY IDOCK:   -0.26 KCAL/MOL
REMARK 927      BINDING AFFINITY PREDICTED BY RF-SCORE:    0.00 PKD
ROOT
HETATM    1  N   UNL     1     -10.945   9.493  67.830  1.00  0.00    -0.495 NA 
HETATM    2  H2  UNL     1     -11.508  10.291  67.532  1.00  0.00     0.000 HD 
HETATM    3  H1  UNL     1     -10.345   9.016  67.157  1.00  0.00     0.000 HD 
HETATM    4  C   UNL     1     -10.998   9.074  69.118  1.00  0.00    -0.001 C  
HETATM    5  N   UNL     1     -11.761   9.682  69.975  1.00  0.00    -0.443 N  
HETATM    6  C   UNL     1     -11.783   9.266  71.314  1.00  0.00    -0.346 C  
HETATM    7  H   UNL     1     -12.345  10.463  69.674  1.00  0.00     0.000 HD 
HETATM    8  C   UNL     1     -10.861   8.169  71.642  1.00  0.00    -0.249 A  
HETATM    9  O   UNL     1     -12.515   9.783  72.151  1.00  0.00    -0.336 OA 
HETATM   10  C   UNL     1     -10.110   7.600  70.648  1.00  0.00    -0.187 A  
HETATM   11  N   UNL     1      -9.332   6.650  71.227  1.00  0.00    -0.159 NA 
HETATM   12  N   UNL     1     -10.178   7.999  69.368  1.00  0.00    -0.205 NA 
HETATM   13  C   UNL     1      -9.651   6.663  72.565  1.00  0.00    -0.153 A  
HETATM   14  N   UNL     1     -10.575   7.562  72.847  1.00  0.00    -0.303 NA 
ENDROOT
BRANCH  11  15
HETATM   15  C   UNL     1      -8.418   5.729  70.588  1.00  0.00    -0.128 C  
BRANCH  15  16
HETATM   16  O   UNL     1      -8.974   4.417  70.646  1.00  0.00    -0.098 OA 
BRANCH  16  17
HETATM   17  C   UNL     1      -9.773   4.148  69.487  1.00  0.00    -0.183 C  
BRANCH  17  18
HETATM   18  C   UNL     1      -8.852   3.859  68.307  1.00  0.00    -0.110 C  
HETATM   19  O   UNL     1      -7.811   2.971  68.705  1.00  0.00    -0.057 OA 
HETATM   20  H   UNL     1      -7.238   2.791  67.969  1.00  0.00     0.000 HD 
ENDBRANCH  17  18
ENDBRANCH  16  17
ENDBRANCH  15  16
ENDBRANCH  11  15
TORSDOF 4
ENDMDL
MODEL      211
REMARK 921   NORMALIZED FREE ENERGY PREDICTED BY IDOCK:   -2.82 KCAL/MOL
REMARK 922        TOTAL FREE ENERGY PREDICTED BY IDOCK:   -3.70 KCAL/MOL
REMARK 923 INTER-LIGAND FREE ENERGY PREDICTED BY IDOCK:   -3.61 KCAL/MOL
REMARK 924 INTRA-LIGAND FREE ENERGY PREDICTED BY IDOCK:   -0.10 KCAL/MOL
REMARK 927      BINDING AFFINITY PREDICTED BY RF-SCORE:    0.00 PKD
ROOT
HETATM    1  N   UNL     1      -8.818   8.715  72.543  1.00  0.00    -0.401 NA 
HETATM    2  H2  UNL     1      -8.971   8.097  73.340  1.00  0.00     0.000 HD 
HETATM    3  H1  UNL     1      -8.227   9.540  72.646  1.00  0.00     0.000 HD 
HETATM    4  C   UNL     1      -9.399   8.434  71.350  1.00  0.00    -0.190 C  
HETATM    5  N   UNL     1     -10.150   7.384  71.218  1.00  0.00    -0.189 N  
HETATM    6  C   UNL     1     -10.719   7.080  69.973  1.00  0.00    -0.242 C  
HETATM    7  H   UNL     1     -10.328   6.779  72.020  1.00  0.00     0.000 HD 
HETATM    8  C   UNL     1     -10.350   7.991  68.879  1.00  0.00    -0.209 A  
HETATM    9  O   UNL     1     -11.466   6.122  69.807  1.00  0.00    -0.433 OA 
HETATM   10  C   UNL     1      -9.554   9.074  69.144  1.00  0.00    -0.161 A  
HETATM   11  N   UNL     1      -9.344   9.714  67.965  1.00  0.00    -0.132 NA 
HETATM   12  N   UNL     1      -9.090   9.350  70.373  1.00  0.00    -0.242 NA 
HETATM   13  C   UNL     1     -10.039   9.001  67.017  1.00  0.00    -0.250 A  
HETATM   14  N   UNL     1     -10.663   7.961  67.536  1.00  0.00    -0.223 NA 
ENDROOT
BRANCH  11  15
HETATM   15  C   UNL     1      -8.626  10.948  67.733  1.00  0.00    -0.128 C  
BRANCH  15  16
HETATM   16  O   UNL     1      -7.226  10.690  67.831  1.00  0.00    -0.085 OA 
BRANCH  16  17
HETATM   17  C   UNL     1      -6.774   9.896  66.726  1.00  0.00    -0.079 C  
BRANCH  17  18
HETATM   18  C   UNL     1      -5.805  10.720  65.887  1.00  0.00    -0.142 C  
HETATM   19  O   UNL     1      -5.713  12.044  66.407  1.00  0.00    -0.502 OA 
HETATM   20  H   UNL     1      -5.108  12.558  65.883  1.00  0.00     0.000 HD 
ENDBRANCH  17  18
ENDBRANCH  16  17
ENDBRANCH  15  16
ENDBRANCH  11  15
TORSDOF 4
ENDMDL
MODEL      212
REMARK 921   NORMALIZED FREE ENERGY PREDICTED BY IDOCK:   -2.82 KCAL/MOL
REMARK 922        TOTAL FREE ENERGY PREDICTED BY IDOCK:   -3.70 KCAL/MOL
REMARK 923 INTER-LIGAND FREE ENERGY PREDICTED BY IDOCK:   -3.45 KCAL/MOL
REMARK 924 INTRA-LIGAND FREE ENERGY PREDICTED BY IDOCK:   -0.24 KCAL/MOL
REMARK 927      BINDING AFFINITY PREDICTED BY RF-SCORE:    0.00 PKD
ROOT
HETATM    1  N   UNL     1      -6.134  10.526  69.055  1.00  0.00    -0.040 NA 
HETATM    2  H2  UNL     1      -5.202  10.189  68.812  1.00  0.00     0.000 HD 
HETATM    3  H1  UNL     1      -6.351  10.763  70.023  1.00  0.00     0.000 HD 
HETATM    4  C   UNL     1      -7.077  10.659  68.090  1.00  0.00    -0.081 C  
HETATM    5  N   UNL     1      -6.800  10.358  66.857  1.00  0.00    -0.084 N  
HETATM    6  C   UNL     1      -7.769  10.531  65.858  1.00  0.00    -0.148 C  
HETATM    7  H   UNL     1      -5.878   9.995  66.615  1.00  0.00     0.000 HD 
HETATM    8  C   UNL     1      -9.041  11.111  66.316  1.00  0.00    -0.194 A  
HETATM    9  O   UNL     1      -7.569  10.225  64.687  1.00  0.00    -0.146 OA 
HETATM   10  C   UNL     1      -9.218  11.379  67.647  1.00  0.00    -0.158 A  
HETATM   11  N   UNL     1     -10.450  11.934  67.783  1.00  0.00    -0.198 NA 
HETATM   12  N   UNL     1      -8.275  11.132  68.569  1.00  0.00    -0.142 NA 
HETATM   13  C   UNL     1     -10.991  11.970  66.519  1.00  0.00    -0.295 A  
HETATM   14  N   UNL     1     -10.170  11.474  65.613  1.00  0.00    -0.238 NA 
ENDROOT
BRANCH  11  15
HETATM   15  C   UNL     1     -11.125  12.327  69.000  1.00  0.00    -0.236 C  
BRANCH  15  16
HETATM   16  O   UNL     1     -10.931  13.726  69.202  1.00  0.00    -0.248 OA 
BRANCH  16  17
HETATM   17  C   UNL     1     -12.155  14.362  69.589  1.00  0.00    -0.334 C  
BRANCH  17  18
HETATM   18  C   UNL     1     -12.249  14.371  71.111  1.00  0.00    -0.350 C  
HETATM   19  O   UNL     1     -11.038  14.869  71.673  1.00  0.00    -0.562 OA 
HETATM   20  H   UNL     1     -11.097  14.874  72.621  1.00  0.00     0.000 HD 
ENDBRANCH  17  18
ENDBRANCH  16  17
ENDBRANCH  15  16
ENDBRANCH  11  15
TORSDOF 4
ENDMDL
MODEL      213
REMARK 921   NORMALIZED FREE ENERGY PREDICTED BY IDOCK:   -2.81 KCAL/MOL
REMARK 922        TOTAL FREE ENERGY PREDICTED BY IDOCK:   -3.69 KCAL/MOL
REMARK 923 INTER-LIGAND FREE ENERGY PREDICTED BY IDOCK:   -3.48 KCAL/MOL
REMARK 924 INTRA-LIGAND FREE ENERGY PREDICTED BY IDOCK:   -0.21 KCAL/MOL
REMARK 927      BINDING AFFINITY PREDICTED BY RF-SCORE:    0.00 PKD
ROOT
HETATM    1  N   UNL     1      -6.480   8.818  67.485  1.00  0.00    -0.057 NA 
HETATM    2  H2  UNL     1      -5.813   8.630  66.736  1.00  0.00     0.000 HD 
HETATM    3  H1  UNL     1      -6.344   9.625  68.094  1.00  0.00     0.000 HD 
HETATM    4  C   UNL     1      -7.542   7.996  67.664  1.00  0.00    -0.102 C  
HETATM    5  N   UNL     1      -7.715   6.969  66.888  1.00  0.00    -0.101 N  
HETATM    6  C   UNL     1      -8.836   6.143  67.057  1.00  0.00    -0.110 C  
HETATM    7  H   UNL     1      -7.036   6.763  66.156  1.00  0.00     0.000 HD 
HETATM    8  C   UNL     1      -9.773   6.568  68.107  1.00  0.00    -0.126 A  
HETATM    9  O   UNL     1      -9.022   5.140  66.375  1.00  0.00    -0.120 OA 
HETATM   10  C   UNL     1      -9.477   7.668  68.869  1.00  0.00    -0.149 A  
HETATM   11  N   UNL     1     -10.515   7.853  69.724  1.00  0.00    -0.230 NA 
HETATM   12  N   UNL     1      -8.354   8.384  68.703  1.00  0.00    -0.120 NA 
HETATM   13  C   UNL     1     -11.408   6.841  69.461  1.00  0.00    -0.237 A  
HETATM   14  N   UNL     1     -10.987   6.044  68.497  1.00  0.00    -0.300 NA 
ENDROOT
BRANCH  11  15
HETATM   15  C   UNL     1     -10.644   8.840  70.774  1.00  0.00    -0.220 C  
BRANCH  15  16
HETATM   16  O   UNL     1     -11.556   9.850  70.344  1.00  0.00    -0.262 OA 
BRANCH  16  17
HETATM   17  C   UNL     1     -12.092  10.565  71.464  1.00  0.00    -0.220 C  
BRANCH  17  18
HETATM   18  C   UNL     1     -13.443   9.964  71.835  1.00  0.00    -0.372 C  
HETATM   19  O   UNL     1     -13.355   9.306  73.096  1.00  0.00    -0.754 OA 
HETATM   20  H   UNL     1     -14.198   8.931  73.328  1.00  0.00     0.000 HD 
ENDBRANCH  17  18
ENDBRANCH  16  17
ENDBRANCH  15  16
ENDBRANCH  11  15
TORSDOF 4
ENDMDL
MODEL      214
REMARK 921   NORMALIZED FREE ENERGY PREDICTED BY IDOCK:   -2.77 KCAL/MOL
REMARK 922        TOTAL FREE ENERGY PREDICTED BY IDOCK:   -3.64 KCAL/MOL
REMARK 923 INTER-LIGAND FREE ENERGY PREDICTED BY IDOCK:   -3.45 KCAL/MOL
REMARK 924 INTRA-LIGAND FREE ENERGY PREDICTED BY IDOCK:   -0.19 KCAL/MOL
REMARK 927      BINDING AFFINITY PREDICTED BY RF-SCORE:    0.00 PKD
ROOT
HETATM    1  N   UNL     1      -6.314  10.391  63.390  1.00  0.00    -0.278 NA 
HETATM    2  H2  UNL     1      -5.487   9.870  63.099  1.00  0.00     0.000 HD 
HETATM    3  H1  UNL     1      -6.545  11.273  62.931  1.00  0.00     0.000 HD 
HETATM    4  C   UNL     1      -7.102   9.909  64.382  1.00  0.00    -0.134 C  
HETATM    5  N   UNL     1      -6.808   8.786  64.966  1.00  0.00    -0.072 N  
HETATM    6  C   UNL     1      -7.647   8.276  65.967  1.00  0.00    -0.078 C  
HETATM    7  H   UNL     1      -5.967   8.276  64.696  1.00  0.00     0.000 HD 
HETATM    8  C   UNL     1      -8.856   9.068  66.232  1.00  0.00    -0.151 A  
HETATM    9  O   UNL     1      -7.392   7.240  66.573  1.00  0.00    -0.077 OA 
HETATM   10  C   UNL     1      -9.054  10.243  65.557  1.00  0.00    -0.176 A  
HETATM   11  N   UNL     1     -10.248  10.743  65.964  1.00  0.00    -0.247 NA 
HETATM   12  N   UNL     1      -8.181  10.715  64.653  1.00  0.00    -0.080 NA 
HETATM   13  C   UNL     1     -10.734   9.855  66.894  1.00  0.00    -0.125 A  
HETATM   14  N   UNL     1      -9.916   8.837  67.085  1.00  0.00    -0.208 NA 
ENDROOT
BRANCH  11  15
HETATM   15  C   UNL     1     -10.868  11.997  65.592  1.00  0.00    -0.282 C  
BRANCH  15  16
HETATM   16  O   UNL     1      -9.950  13.057  65.858  1.00  0.00    -0.275 OA 
BRANCH  16  17
HETATM   17  C   UNL     1     -10.415  13.877  66.937  1.00  0.00    -0.276 C  
BRANCH  17  18
HETATM   18  C   UNL     1     -11.922  13.692  67.086  1.00  0.00    -0.393 C  
HETATM   19  O   UNL     1     -12.437  14.625  68.033  1.00  0.00    -0.595 OA 
HETATM   20  H   UNL     1     -13.376  14.509  68.125  1.00  0.00     0.000 HD 
ENDBRANCH  17  18
ENDBRANCH  16  17
ENDBRANCH  15  16
ENDBRANCH  11  15
TORSDOF 4
ENDMDL
MODEL      215
REMARK 921   NORMALIZED FREE ENERGY PREDICTED BY IDOCK:   -2.73 KCAL/MOL
REMARK 922        TOTAL FREE ENERGY PREDICTED BY IDOCK:   -3.59 KCAL/MOL
REMARK 923 INTER-LIGAND FREE ENERGY PREDICTED BY IDOCK:   -3.36 KCAL/MOL
REMARK 924 INTRA-LIGAND FREE ENERGY PREDICTED BY IDOCK:   -0.23 KCAL/MOL
REMARK 927      BINDING AFFINITY PREDICTED BY RF-SCORE:    0.00 PKD
ROOT
HETATM    1  N   UNL     1      -5.614  11.496  70.287  1.00  0.00    -0.119 NA 
HETATM    2  H2  UNL     1      -4.909  11.519  71.024  1.00  0.00     0.000 HD 
HETATM    3  H1  UNL     1      -5.924  10.601  69.909  1.00  0.00     0.000 HD 
HETATM    4  C   UNL     1      -6.136  12.656  69.817  1.00  0.00    -0.134 C  
HETATM    5  N   UNL     1      -5.742  13.795  70.299  1.00  0.00    -0.130 N  
HETATM    6  C   UNL     1      -6.313  14.989  69.833  1.00  0.00    -0.162 C  
HETATM    7  H   UNL     1      -5.018  13.823  71.017  1.00  0.00     0.000 HD 
HETATM    8  C   UNL     1      -7.384  14.822  68.839  1.00  0.00    -0.130 A  
HETATM    9  O   UNL     1      -5.947  16.091  70.229  1.00  0.00    -0.163 OA 
HETATM   10  C   UNL     1      -7.706  13.566  68.400  1.00  0.00    -0.135 A  
HETATM   11  N   UNL     1      -8.737  13.699  67.527  1.00  0.00    -0.185 NA 
HETATM   12  N   UNL     1      -7.080  12.462  68.837  1.00  0.00    -0.098 NA 
HETATM   13  C   UNL     1      -8.998  15.047  67.452  1.00  0.00    -0.186 A  
HETATM   14  N   UNL     1      -8.195  15.753  68.225  1.00  0.00    -0.141 NA 
ENDROOT
BRANCH  11  15
HETATM   15  C   UNL     1      -9.385  12.670  66.743  1.00  0.00    -0.232 C  
BRANCH  15  16
HETATM   16  O   UNL     1     -10.794  12.893  66.771  1.00  0.00    -0.262 OA 
BRANCH  16  17
HETATM   17  C   UNL     1     -11.509  11.653  66.691  1.00  0.00    -0.206 C  
BRANCH  17  18
HETATM   18  C   UNL     1     -11.316  10.885  67.994  1.00  0.00    -0.312 C  
HETATM   19  O   UNL     1     -12.514  10.922  68.766  1.00  0.00    -0.767 OA 
HETATM   20  H   UNL     1     -12.394  10.444  69.578  1.00  0.00     0.000 HD 
ENDBRANCH  17  18
ENDBRANCH  16  17
ENDBRANCH  15  16
ENDBRANCH  11  15
TORSDOF 4
ENDMDL
MODEL      216
REMARK 921   NORMALIZED FREE ENERGY PREDICTED BY IDOCK:   -2.73 KCAL/MOL
REMARK 922        TOTAL FREE ENERGY PREDICTED BY IDOCK:   -3.59 KCAL/MOL
REMARK 923 INTER-LIGAND FREE ENERGY PREDICTED BY IDOCK:   -3.50 KCAL/MOL
REMARK 924 INTRA-LIGAND FREE ENERGY PREDICTED BY IDOCK:   -0.09 KCAL/MOL
REMARK 927      BINDING AFFINITY PREDICTED BY RF-SCORE:    0.00 PKD
ROOT
HETATM    1  N   UNL     1      -6.946  13.705  68.637  1.00  0.00    -0.097 NA 
HETATM    2  H2  UNL     1      -6.512  14.538  68.239  1.00  0.00     0.000 HD 
HETATM    3  H1  UNL     1      -6.513  13.238  69.434  1.00  0.00     0.000 HD 
HETATM    4  C   UNL     1      -8.098  13.225  68.106  1.00  0.00    -0.159 C  
HETATM    5  N   UNL     1      -8.650  13.819  67.092  1.00  0.00    -0.265 N  
HETATM    6  C   UNL     1      -9.859  13.338  66.570  1.00  0.00    -0.281 C  
HETATM    7  H   UNL     1      -8.205  14.636  66.675  1.00  0.00     0.000 HD 
HETATM    8  C   UNL     1     -10.435  12.189  67.286  1.00  0.00    -0.218 A  
HETATM    9  O   UNL     1     -10.400  13.841  65.591  1.00  0.00    -0.292 OA 
HETATM   10  C   UNL     1      -9.753  11.642  68.340  1.00  0.00    -0.199 A  
HETATM   11  N   UNL     1     -10.519  10.634  68.832  1.00  0.00    -0.198 NA 
HETATM   12  N   UNL     1      -8.565  12.107  68.755  1.00  0.00     0.022 NA 
HETATM   13  C   UNL     1     -11.644  10.593  68.043  1.00  0.00    -0.099 A  
HETATM   14  N   UNL     1     -11.622  11.512  67.097  1.00  0.00    -0.557 NA 
ENDROOT
BRANCH  11  15
HETATM   15  C   UNL     1     -10.204   9.711  69.900  1.00  0.00    -0.245 C  
BRANCH  15  16
HETATM   16  O   UNL     1     -11.368   8.941  70.199  1.00  0.00    -0.217 OA 
BRANCH  16  17
HETATM   17  C   UNL     1     -11.232   7.600  69.713  1.00  0.00    -0.029 C  
BRANCH  17  18
HETATM   18  C   UNL     1     -11.846   6.641  70.728  1.00  0.00    -0.383 C  
HETATM   19  O   UNL     1     -11.862   7.242  72.020  1.00  0.00    -0.282 OA 
HETATM   20  H   UNL     1     -12.244   6.644  72.652  1.00  0.00     0.000 HD 
ENDBRANCH  17  18
ENDBRANCH  16  17
ENDBRANCH  15  16
ENDBRANCH  11  15
TORSDOF 4
ENDMDL
MODEL      217
REMARK 921   NORMALIZED FREE ENERGY PREDICTED BY IDOCK:   -2.64 KCAL/MOL
REMARK 922        TOTAL FREE ENERGY PREDICTED BY IDOCK:   -3.48 KCAL/MOL
REMARK 923 INTER-LIGAND FREE ENERGY PREDICTED BY IDOCK:   -3.23 KCAL/MOL
REMARK 924 INTRA-LIGAND FREE ENERGY PREDICTED BY IDOCK:   -0.25 KCAL/MOL
REMARK 927      BINDING AFFINITY PREDICTED BY RF-SCORE:    0.00 PKD
ROOT
HETATM    1  N   UNL     1      -5.995   8.828  66.302  1.00  0.00    -0.051 NA 
HETATM    2  H2  UNL     1      -5.378   8.957  65.500  1.00  0.00     0.000 HD 
HETATM    3  H1  UNL     1      -5.660   8.327  67.125  1.00  0.00     0.000 HD 
HETATM    4  C   UNL     1      -7.257   9.324  66.270  1.00  0.00    -0.088 C  
HETATM    5  N   UNL     1      -7.684   9.962  65.223  1.00  0.00    -0.123 N  
HETATM    6  C   UNL     1      -8.978  10.503  65.211  1.00  0.00    -0.189 C  
HETATM    7  H   UNL     1      -7.079  10.070  64.409  1.00  0.00     0.000 HD 
HETATM    8  C   UNL     1      -9.737  10.333  66.458  1.00  0.00    -0.193 A  
HETATM    9  O   UNL     1      -9.440  11.081  64.232  1.00  0.00    -0.221 OA 
HETATM   10  C   UNL     1      -9.182   9.631  67.495  1.00  0.00    -0.133 A  
HETATM   11  N   UNL     1     -10.072   9.659  68.520  1.00  0.00    -0.169 NA 
HETATM   12  N   UNL     1      -7.961   9.079  67.425  1.00  0.00    -0.100 NA 
HETATM   13  C   UNL     1     -11.155  10.371  68.061  1.00  0.00    -0.298 A  
HETATM   14  N   UNL     1     -10.989  10.785  66.819  1.00  0.00    -0.200 NA 
ENDROOT
BRANCH  11  15
HETATM   15  C   UNL     1      -9.977   9.004  69.806  1.00  0.00    -0.196 C  
BRANCH  15  16
HETATM   16  O   UNL     1     -10.279   7.620  69.639  1.00  0.00    -0.194 OA 
BRANCH  16  17
HETATM   17  C   UNL     1     -11.342   7.220  70.513  1.00  0.00    -0.280 C  
BRANCH  17  18
HETATM   18  C   UNL     1     -11.065   7.763  71.911  1.00  0.00    -0.257 C  
HETATM   19  O   UNL     1     -12.022   7.249  72.833  1.00  0.00    -0.541 OA 
HETATM   20  H   UNL     1     -11.848   7.587  73.704  1.00  0.00     0.000 HD 
ENDBRANCH  17  18
ENDBRANCH  16  17
ENDBRANCH  15  16
ENDBRANCH  11  15
TORSDOF 4
ENDMDL
MODEL      218
REMARK 921   NORMALIZED FREE ENERGY PREDICTED BY IDOCK:   -2.60 KCAL/MOL
REMARK 922        TOTAL FREE ENERGY PREDICTED BY IDOCK:   -3.43 KCAL/MOL
REMARK 923 INTER-LIGAND FREE ENERGY PREDICTED BY IDOCK:   -3.13 KCAL/MOL
REMARK 924 INTRA-LIGAND FREE ENERGY PREDICTED BY IDOCK:   -0.30 KCAL/MOL
REMARK 927      BINDING AFFINITY PREDICTED BY RF-SCORE:    0.00 PKD
ROOT
HETATM    1  N   UNL     1      -6.374  12.527  70.190  1.00  0.00    -0.359 NA 
HETATM    2  H2  UNL     1      -5.467  12.759  70.596  1.00  0.00     0.000 HD 
HETATM    3  H1  UNL     1      -6.876  11.698  70.509  1.00  0.00     0.000 HD 
HETATM    4  C   UNL     1      -6.907  13.322  69.230  1.00  0.00    -0.031 C  
HETATM    5  N   UNL     1      -6.269  14.378  68.824  1.00  0.00    -0.082 N  
HETATM    6  C   UNL     1      -6.843  15.215  67.856  1.00  0.00    -0.155 C  
HETATM    7  H   UNL     1      -5.350  14.598  69.208  1.00  0.00     0.000 HD 
HETATM    8  C   UNL     1      -8.191  14.828  67.416  1.00  0.00    -0.196 A  
HETATM    9  O   UNL     1      -6.263  16.201  67.413  1.00  0.00    -0.151 OA 
HETATM   10  C   UNL     1      -8.760  13.685  67.911  1.00  0.00    -0.184 A  
HETATM   11  N   UNL     1     -10.002  13.590  67.373  1.00  0.00    -0.231 NA 
HETATM   12  N   UNL     1      -8.134  12.886  68.790  1.00  0.00     0.009 NA 
HETATM   13  C   UNL     1     -10.142  14.681  66.547  1.00  0.00    -0.279 A  
HETATM   14  N   UNL     1      -9.065  15.444  66.545  1.00  0.00    -0.277 NA 
ENDROOT
BRANCH  11  15
HETATM   15  C   UNL     1     -10.968  12.524  67.532  1.00  0.00    -0.251 C  
BRANCH  15  16
HETATM   16  O   UNL     1     -10.274  11.278  67.567  1.00  0.00    -0.183 OA 
BRANCH  16  17
HETATM   17  C   UNL     1     -10.303  10.641  66.284  1.00  0.00    -0.234 C  
BRANCH  17  18
HETATM   18  C   UNL     1      -8.886  10.223  65.907  1.00  0.00    -0.159 C  
HETATM   19  O   UNL     1      -8.055  11.373  65.776  1.00  0.00    -0.369 OA 
HETATM   20  H   UNL     1      -7.172  11.113  65.541  1.00  0.00     0.000 HD 
ENDBRANCH  17  18
ENDBRANCH  16  17
ENDBRANCH  15  16
ENDBRANCH  11  15
TORSDOF 4
ENDMDL
MODEL      219
REMARK 921   NORMALIZED FREE ENERGY PREDICTED BY IDOCK:   -2.53 KCAL/MOL
REMARK 922        TOTAL FREE ENERGY PREDICTED BY IDOCK:   -3.35 KCAL/MOL
REMARK 923 INTER-LIGAND FREE ENERGY PREDICTED BY IDOCK:   -3.14 KCAL/MOL
REMARK 924 INTRA-LIGAND FREE ENERGY PREDICTED BY IDOCK:   -0.20 KCAL/MOL
REMARK 927      BINDING AFFINITY PREDICTED BY RF-SCORE:    0.00 PKD
ROOT
HETATM    1  N   UNL     1      -9.302  11.424  63.823  1.00  0.00    -0.417 NA 
HETATM    2  H2  UNL     1      -8.933  11.789  62.945  1.00  0.00     0.000 HD 
HETATM    3  H1  UNL     1     -10.023  11.943  64.324  1.00  0.00     0.000 HD 
HETATM    4  C   UNL     1      -8.832  10.253  64.319  1.00  0.00    -0.215 C  
HETATM    5  N   UNL     1      -7.914   9.592  63.681  1.00  0.00    -0.133 N  
HETATM    6  C   UNL     1      -7.459   8.364  64.180  1.00  0.00    -0.114 C  
HETATM    7  H   UNL     1      -7.524   9.967  62.816  1.00  0.00     0.000 HD 
HETATM    8  C   UNL     1      -8.132   7.899  65.402  1.00  0.00    -0.130 A  
HETATM    9  O   UNL     1      -6.567   7.722  63.635  1.00  0.00    -0.061 OA 
HETATM   10  C   UNL     1      -9.083   8.690  65.990  1.00  0.00    -0.204 A  
HETATM   11  N   UNL     1      -9.559   8.011  67.065  1.00  0.00    -0.180 NA 
HETATM   12  N   UNL     1      -9.432   9.889  65.500  1.00  0.00    -0.231 NA 
HETATM   13  C   UNL     1      -8.864   6.826  67.104  1.00  0.00    -0.119 A  
HETATM   14  N   UNL     1      -7.990   6.729  66.120  1.00  0.00    -0.105 NA 
ENDROOT
BRANCH  11  15
HETATM   15  C   UNL     1     -10.526   8.453  68.047  1.00  0.00    -0.184 C  
BRANCH  15  16
HETATM   16  O   UNL     1     -10.005   8.198  69.350  1.00  0.00    -0.180 OA 
BRANCH  16  17
HETATM   17  C   UNL     1     -11.062   8.112  70.315  1.00  0.00    -0.221 C  
BRANCH  17  18
HETATM   18  C   UNL     1     -11.607   6.688  70.326  1.00  0.00    -0.395 C  
HETATM   19  O   UNL     1     -10.848   5.882  71.224  1.00  0.00    -0.257 OA 
HETATM   20  H   UNL     1     -11.188   4.994  71.231  1.00  0.00     0.000 HD 
ENDBRANCH  17  18
ENDBRANCH  16  17
ENDBRANCH  15  16
ENDBRANCH  11  15
TORSDOF 4
ENDMDL
MODEL      220
REMARK 921   NORMALIZED FREE ENERGY PREDICTED BY IDOCK:   -2.52 KCAL/MOL
REMARK 922        TOTAL FREE ENERGY PREDICTED BY IDOCK:   -3.33 KCAL/MOL
REMARK 923 INTER-LIGAND FREE ENERGY PREDICTED BY IDOCK:   -3.05 KCAL/MOL
REMARK 924 INTRA-LIGAND FREE ENERGY PREDICTED BY IDOCK:   -0.28 KCAL/MOL
REMARK 927      BINDING AFFINITY PREDICTED BY RF-SCORE:    0.00 PKD
ROOT
HETATM    1  N   UNL     1      -8.574   9.624  71.025  1.00  0.00    -0.341 NA 
HETATM    2  H2  UNL     1      -8.723  10.582  70.708  1.00  0.00     0.000 HD 
HETATM    3  H1  UNL     1      -7.625   9.264  71.123  1.00  0.00     0.000 HD 
HETATM    4  C   UNL     1      -9.639   8.836  71.315  1.00  0.00    -0.253 C  
HETATM    5  N   UNL     1     -10.847   9.294  71.191  1.00  0.00    -0.308 N  
HETATM    6  C   UNL     1     -11.942   8.485  71.527  1.00  0.00    -0.303 C  
HETATM    7  H   UNL     1     -11.001  10.243  70.849  1.00  0.00     0.000 HD 
HETATM    8  C   UNL     1     -11.598   7.159  72.060  1.00  0.00    -0.280 A  
HETATM    9  O   UNL     1     -13.103   8.859  71.390  1.00  0.00    -0.321 OA 
HETATM   10  C   UNL     1     -10.283   6.783  72.136  1.00  0.00    -0.193 A  
HETATM   11  N   UNL     1     -10.251   5.545  72.690  1.00  0.00    -0.181 NA 
HETATM   12  N   UNL     1      -9.278   7.579  71.738  1.00  0.00    -0.139 NA 
HETATM   13  C   UNL     1     -11.562   5.199  72.920  1.00  0.00    -0.205 A  
HETATM   14  N   UNL     1     -12.400   6.147  72.544  1.00  0.00    -0.050 NA 
ENDROOT
BRANCH  11  15
HETATM   15  C   UNL     1      -9.103   4.694  72.916  1.00  0.00    -0.121 C  
BRANCH  15  16
HETATM   16  O   UNL     1      -8.252   4.760  71.772  1.00  0.00    -0.105 OA 
BRANCH  16  17
HETATM   17  C   UNL     1      -8.868   4.133  70.640  1.00  0.00    -0.079 C  
BRANCH  17  18
HETATM   18  C   UNL     1      -8.340   4.784  69.366  1.00  0.00    -0.076 C  
HETATM   19  O   UNL     1      -7.677   6.006  69.680  1.00  0.00    -0.093 OA 
HETATM   20  H   UNL     1      -7.347   6.411  68.886  1.00  0.00     0.000 HD 
ENDBRANCH  17  18
ENDBRANCH  16  17
ENDBRANCH  15  16
ENDBRANCH  11  15
TORSDOF 4
ENDMDL
MODEL      221
REMARK 921   NORMALIZED FREE ENERGY PREDICTED BY IDOCK:   -2.51 KCAL/MOL
REMARK 922        TOTAL FREE ENERGY PREDICTED BY IDOCK:   -3.32 KCAL/MOL
REMARK 923 INTER-LIGAND FREE ENERGY PREDICTED BY IDOCK:   -3.25 KCAL/MOL
REMARK 924 INTRA-LIGAND FREE ENERGY PREDICTED BY IDOCK:   -0.06 KCAL/MOL
REMARK 927      BINDING AFFINITY PREDICTED BY RF-SCORE:    0.00 PKD
ROOT
HETATM    1  N   UNL     1      -8.577   9.665  70.963  1.00  0.00    -0.341 NA 
HETATM    2  H2  UNL     1      -8.826  10.651  70.884  1.00  0.00     0.000 HD 
HETATM    3  H1  UNL     1      -7.630   9.360  70.736  1.00  0.00     0.000 HD 
HETATM    4  C   UNL     1      -9.506   8.765  71.370  1.00  0.00    -0.259 C  
HETATM    5  N   UNL     1     -10.711   9.151  71.659  1.00  0.00    -0.365 N  
HETATM    6  C   UNL     1     -11.656   8.221  72.114  1.00  0.00    -0.364 C  
HETATM    7  H   UNL     1     -10.971  10.133  71.556  1.00  0.00     0.000 HD 
HETATM    8  C   UNL     1     -11.154   6.848  72.275  1.00  0.00    -0.249 A  
HETATM    9  O   UNL     1     -12.817   8.530  72.362  1.00  0.00    -0.359 OA 
HETATM   10  C   UNL     1      -9.861   6.559  71.928  1.00  0.00    -0.157 A  
HETATM   11  N   UNL     1      -9.655   5.247  72.209  1.00  0.00    -0.151 NA 
HETATM   12  N   UNL     1      -9.018   7.481  71.436  1.00  0.00    -0.132 NA 
HETATM   13  C   UNL     1     -10.846   4.775  72.708  1.00  0.00    -0.210 A  
HETATM   14  N   UNL     1     -11.773   5.713  72.754  1.00  0.00    -0.246 NA 
ENDROOT
BRANCH  11  15
HETATM   15  C   UNL     1      -8.472   4.453  71.957  1.00  0.00    -0.112 C  
BRANCH  15  16
HETATM   16  O   UNL     1      -8.718   3.115  72.388  1.00  0.00    -0.081 OA 
BRANCH  16  17
HETATM   17  C   UNL     1      -8.127   2.874  73.671  1.00  0.00    -0.072 C  
BRANCH  17  18
HETATM   18  C   UNL     1      -9.055   1.978  74.484  1.00  0.00    -0.068 C  
HETATM   19  O   UNL     1     -10.305   1.833  73.814  1.00  0.00    -0.088 OA 
HETATM   20  H   UNL     1     -10.883   1.275  74.321  1.00  0.00     0.000 HD 
ENDBRANCH  17  18
ENDBRANCH  16  17
ENDBRANCH  15  16
ENDBRANCH  11  15
TORSDOF 4
ENDMDL
MODEL      222
REMARK 921   NORMALIZED FREE ENERGY PREDICTED BY IDOCK:   -2.48 KCAL/MOL
REMARK 922        TOTAL FREE ENERGY PREDICTED BY IDOCK:   -3.29 KCAL/MOL
REMARK 923 INTER-LIGAND FREE ENERGY PREDICTED BY IDOCK:   -2.99 KCAL/MOL
REMARK 924 INTRA-LIGAND FREE ENERGY PREDICTED BY IDOCK:   -0.29 KCAL/MOL
REMARK 927      BINDING AFFINITY PREDICTED BY RF-SCORE:    0.00 PKD
ROOT
HETATM    1  N   UNL     1     -11.156   5.917  67.424  1.00  0.00    -0.426 NA 
HETATM    2  H2  UNL     1     -12.121   5.673  67.647  1.00  0.00     0.000 HD 
HETATM    3  H1  UNL     1     -10.647   6.571  68.020  1.00  0.00     0.000 HD 
HETATM    4  C   UNL     1     -10.555   5.371  66.338  1.00  0.00    -0.260 C  
HETATM    5  N   UNL     1     -11.202   4.539  65.580  1.00  0.00    -0.864 N  
HETATM    6  C   UNL     1     -10.563   3.951  64.479  1.00  0.00    -0.185 C  
HETATM    7  H   UNL     1     -12.176   4.314  65.785  1.00  0.00     0.000 HD 
HETATM    8  C   UNL     1      -9.146   4.308  64.315  1.00  0.00    -0.150 A  
HETATM    9  O   UNL     1     -11.143   3.190  63.712  1.00  0.00    -0.281 OA 
HETATM   10  C   UNL     1      -8.574   5.206  65.177  1.00  0.00    -0.150 A  
HETATM   11  N   UNL     1      -7.268   5.323  64.824  1.00  0.00    -0.058 NA 
HETATM   12  N   UNL     1      -9.255   5.787  66.176  1.00  0.00    -0.159 NA 
HETATM   13  C   UNL     1      -7.093   4.496  63.739  1.00  0.00    -0.049 A  
HETATM   14  N   UNL     1      -8.208   3.876  63.402  1.00  0.00    -0.088 NA 
ENDROOT
BRANCH  11  15
HETATM   15  C   UNL     1      -6.264   6.200  65.386  1.00  0.00    -0.037 C  
BRANCH  15  16
HETATM   16  O   UNL     1      -5.847   7.123  64.380  1.00  0.00    -0.036 OA 
BRANCH  16  17
HETATM   17  C   UNL     1      -6.559   8.362  64.497  1.00  0.00    -0.066 C  
BRANCH  17  18
HETATM   18  C   UNL     1      -7.043   8.787  63.116  1.00  0.00    -0.089 C  
HETATM   19  O   UNL     1      -6.115   9.695  62.530  1.00  0.00    -0.096 OA 
HETATM   20  H   UNL     1      -6.417   9.960  61.668  1.00  0.00     0.000 HD 
ENDBRANCH  17  18
ENDBRANCH  16  17
ENDBRANCH  15  16
ENDBRANCH  11  15
TORSDOF 4
ENDMDL
MODEL      223
REMARK 921   NORMALIZED FREE ENERGY PREDICTED BY IDOCK:   -2.39 KCAL/MOL
REMARK 922        TOTAL FREE ENERGY PREDICTED BY IDOCK:   -3.17 KCAL/MOL
REMARK 923 INTER-LIGAND FREE ENERGY PREDICTED BY IDOCK:   -2.93 KCAL/MOL
REMARK 924 INTRA-LIGAND FREE ENERGY PREDICTED BY IDOCK:   -0.24 KCAL/MOL
REMARK 927      BINDING AFFINITY PREDICTED BY RF-SCORE:    0.00 PKD
ROOT
HETATM    1  N   UNL     1     -11.946   9.589  69.953  1.00  0.00    -0.428 NA 
HETATM    2  H2  UNL     1     -12.921   9.777  70.190  1.00  0.00     0.000 HD 
HETATM    3  H1  UNL     1     -11.551   8.665  70.128  1.00  0.00     0.000 HD 
HETATM    4  C   UNL     1     -11.184  10.567  69.405  1.00  0.00    -0.269 C  
HETATM    5  N   UNL     1     -11.687  11.743  69.181  1.00  0.00    -0.300 N  
HETATM    6  C   UNL     1     -10.903  12.739  68.582  1.00  0.00    -0.253 C  
HETATM    7  H   UNL     1     -12.653  11.943  69.441  1.00  0.00     0.000 HD 
HETATM    8  C   UNL     1      -9.546  12.320  68.201  1.00  0.00    -0.213 A  
HETATM    9  O   UNL     1     -11.321  13.876  68.385  1.00  0.00    -0.254 OA 
HETATM   10  C   UNL     1      -9.124  11.052  68.498  1.00  0.00    -0.173 A  
HETATM   11  N   UNL     1      -7.864  10.924  68.009  1.00  0.00    -0.104 NA 
HETATM   12  N   UNL     1      -9.900  10.159  69.132  1.00  0.00    -0.202 NA 
HETATM   13  C   UNL     1      -7.554  12.137  67.439  1.00  0.00    -0.155 A  
HETATM   14  N   UNL     1      -8.543  13.003  67.545  1.00  0.00    -0.180 NA 
ENDROOT
BRANCH  11  15
HETATM   15  C   UNL     1      -6.967   9.796  68.129  1.00  0.00    -0.077 C  
BRANCH  15  16
HETATM   16  O   UNL     1      -7.350   8.801  67.181  1.00  0.00    -0.079 OA 
BRANCH  16  17
HETATM   17  C   UNL     1      -7.724   7.584  67.838  1.00  0.00    -0.116 C  
BRANCH  17  18
HETATM   18  C   UNL     1      -6.875   6.443  67.288  1.00  0.00    -0.069 C  
HETATM   19  O   UNL     1      -7.006   5.292  68.118  1.00  0.00    -0.058 OA 
HETATM   20  H   UNL     1      -6.477   4.581  67.775  1.00  0.00     0.000 HD 
ENDBRANCH  17  18
ENDBRANCH  16  17
ENDBRANCH  15  16
ENDBRANCH  11  15
TORSDOF 4
ENDMDL
MODEL      224
REMARK 921   NORMALIZED FREE ENERGY PREDICTED BY IDOCK:   -2.28 KCAL/MOL
REMARK 922        TOTAL FREE ENERGY PREDICTED BY IDOCK:   -3.04 KCAL/MOL
REMARK 923 INTER-LIGAND FREE ENERGY PREDICTED BY IDOCK:   -2.94 KCAL/MOL
REMARK 924 INTRA-LIGAND FREE ENERGY PREDICTED BY IDOCK:   -0.10 KCAL/MOL
REMARK 927      BINDING AFFINITY PREDICTED BY RF-SCORE:    0.00 PKD
ROOT
HETATM    1  N   UNL     1     -11.752   7.764  73.061  1.00  0.00    -0.616 NA 
HETATM    2  H2  UNL     1     -12.659   7.785  73.528  1.00  0.00     0.000 HD 
HETATM    3  H1  UNL     1     -11.328   8.633  72.737  1.00  0.00     0.000 HD 
HETATM    4  C   UNL     1     -11.117   6.581  72.875  1.00  0.00    -0.223 C  
HETATM    5  N   UNL     1     -11.657   5.474  73.287  1.00  0.00    -0.502 N  
HETATM    6  C   UNL     1     -10.978   4.258  73.123  1.00  0.00    -0.211 C  
HETATM    7  H   UNL     1     -12.575   5.489  73.731  1.00  0.00     0.000 HD 
HETATM    8  C   UNL     1      -9.640   4.366  72.522  1.00  0.00    -0.144 A  
HETATM    9  O   UNL     1     -11.462   3.183  73.461  1.00  0.00    -0.209 OA 
HETATM   10  C   UNL     1      -9.180   5.591  72.117  1.00  0.00    -0.143 A  
HETATM   11  N   UNL     1      -7.923   5.409  71.639  1.00  0.00    -0.114 NA 
HETATM   12  N   UNL     1      -9.904   6.715  72.242  1.00  0.00    -0.154 NA 
HETATM   13  C   UNL     1      -7.665   4.064  71.755  1.00  0.00    -0.070 A  
HETATM   14  N   UNL     1      -8.682   3.405  72.276  1.00  0.00    -0.086 NA 
ENDROOT
BRANCH  11  15
HETATM   15  C   UNL     1      -7.045   6.387  71.033  1.00  0.00    -0.070 C  
BRANCH  15  16
HETATM   16  O   UNL     1      -6.963   6.124  69.633  1.00  0.00    -0.065 OA 
BRANCH  16  17
HETATM   17  C   UNL     1      -8.228   6.343  68.997  1.00  0.00    -0.115 C  
BRANCH  17  18
HETATM   18  C   UNL     1      -8.668   5.053  68.312  1.00  0.00    -0.102 C  
HETATM   19  O   UNL     1      -9.581   5.346  67.258  1.00  0.00    -0.122 OA 
HETATM   20  H   UNL     1      -9.855   4.543  66.831  1.00  0.00     0.000 HD 
ENDBRANCH  17  18
ENDBRANCH  16  17
ENDBRANCH  15  16
ENDBRANCH  11  15
TORSDOF 4
ENDMDL
MODEL      225
REMARK 921   NORMALIZED FREE ENERGY PREDICTED BY IDOCK:   -2.27 KCAL/MOL
REMARK 922        TOTAL FREE ENERGY PREDICTED BY IDOCK:   -3.02 KCAL/MOL
REMARK 923 INTER-LIGAND FREE ENERGY PREDICTED BY IDOCK:   -2.50 KCAL/MOL
REMARK 924 INTRA-LIGAND FREE ENERGY PREDICTED BY IDOCK:   -0.53 KCAL/MOL
REMARK 927      BINDING AFFINITY PREDICTED BY RF-SCORE:    0.00 PKD
ROOT
HETATM    1  N   UNL     1      -7.502  10.685  65.310  1.00  0.00    -0.331 NA 
HETATM    2  H2  UNL     1      -6.923  10.956  64.515  1.00  0.00     0.000 HD 
HETATM    3  H1  UNL     1      -7.784  11.386  65.995  1.00  0.00     0.000 HD 
HETATM    4  C   UNL     1      -7.892   9.394  65.452  1.00  0.00    -0.104 C  
HETATM    5  N   UNL     1      -7.533   8.501  64.580  1.00  0.00    -0.100 N  
HETATM    6  C   UNL     1      -7.970   7.175  64.713  1.00  0.00    -0.122 C  
HETATM    7  H   UNL     1      -6.932   8.763  63.798  1.00  0.00     0.000 HD 
HETATM    8  C   UNL     1      -8.874   6.927  65.845  1.00  0.00    -0.105 A  
HETATM    9  O   UNL     1      -7.626   6.288  63.938  1.00  0.00    -0.077 OA 
HETATM   10  C   UNL     1      -9.175   7.950  66.704  1.00  0.00    -0.177 A  
HETATM   11  N   UNL     1     -10.046   7.459  67.622  1.00  0.00    -0.172 NA 
HETATM   12  N   UNL     1      -8.674   9.187  66.563  1.00  0.00    -0.126 NA 
HETATM   13  C   UNL     1     -10.235   6.136  67.296  1.00  0.00    -0.191 A  
HETATM   14  N   UNL     1      -9.537   5.781  66.234  1.00  0.00    -0.154 NA 
ENDROOT
BRANCH  11  15
HETATM   15  C   UNL     1     -10.604   8.130  68.776  1.00  0.00    -0.121 C  
BRANCH  15  16
HETATM   16  O   UNL     1     -10.141   7.475  69.956  1.00  0.00    -0.194 OA 
BRANCH  16  17
HETATM   17  C   UNL     1      -9.074   8.214  70.565  1.00  0.00    -0.150 C  
BRANCH  17  18
HETATM   18  C   UNL     1      -9.173   9.673  70.133  1.00  0.00    -0.246 C  
HETATM   19  O   UNL     1      -7.969  10.073  69.484  1.00  0.00    -0.127 OA 
HETATM   20  H   UNL     1      -8.031  10.983  69.215  1.00  0.00     0.000 HD 
ENDBRANCH  17  18
ENDBRANCH  16  17
ENDBRANCH  15  16
ENDBRANCH  11  15
TORSDOF 4
ENDMDL
MODEL      226
REMARK 921   NORMALIZED FREE ENERGY PREDICTED BY IDOCK:   -2.18 KCAL/MOL
REMARK 922        TOTAL FREE ENERGY PREDICTED BY IDOCK:   -2.91 KCAL/MOL
REMARK 923 INTER-LIGAND FREE ENERGY PREDICTED BY IDOCK:   -2.92 KCAL/MOL
REMARK 924 INTRA-LIGAND FREE ENERGY PREDICTED BY IDOCK:    0.01 KCAL/MOL
REMARK 927      BINDING AFFINITY PREDICTED BY RF-SCORE:    0.00 PKD
ROOT
HETATM    1  N   UNL     1     -11.987   8.629  70.789  1.00  0.00    -0.460 NA 
HETATM    2  H2  UNL     1     -12.214   9.356  71.468  1.00  0.00     0.000 HD 
HETATM    3  H1  UNL     1     -12.530   7.766  70.769  1.00  0.00     0.000 HD 
HETATM    4  C   UNL     1     -10.967   8.816  69.916  1.00  0.00    -0.179 C  
HETATM    5  N   UNL     1     -10.275   9.915  69.940  1.00  0.00    -0.243 N  
HETATM    6  C   UNL     1      -9.245  10.116  69.011  1.00  0.00    -0.185 C  
HETATM    7  H   UNL     1     -10.482  10.633  70.635  1.00  0.00     0.000 HD 
HETATM    8  C   UNL     1      -9.074   9.039  68.025  1.00  0.00    -0.136 A  
HETATM    9  O   UNL     1      -8.539  11.120  69.018  1.00  0.00    -0.125 OA 
HETATM   10  C   UNL     1      -9.860   7.921  68.106  1.00  0.00    -0.169 A  
HETATM   11  N   UNL     1      -9.522   7.117  67.066  1.00  0.00    -0.147 NA 
HETATM   12  N   UNL     1     -10.791   7.756  69.059  1.00  0.00    -0.094 NA 
HETATM   13  C   UNL     1      -8.520   7.773  66.390  1.00  0.00    -0.136 A  
HETATM   14  N   UNL     1      -8.221   8.932  66.946  1.00  0.00    -0.111 NA 
ENDROOT
BRANCH  11  15
HETATM   15  C   UNL     1     -10.019   5.794  66.757  1.00  0.00    -0.175 C  
BRANCH  15  16
HETATM   16  O   UNL     1     -10.212   5.081  67.978  1.00  0.00    -0.146 OA 
BRANCH  16  17
HETATM   17  C   UNL     1      -9.225   4.053  68.131  1.00  0.00    -0.153 C  
BRANCH  17  18
HETATM   18  C   UNL     1      -9.419   3.013  67.033  1.00  0.00    -0.063 C  
HETATM   19  O   UNL     1      -9.901   1.794  67.593  1.00  0.00    -0.397 OA 
HETATM   20  H   UNL     1     -10.022   1.146  66.909  1.00  0.00     0.000 HD 
ENDBRANCH  17  18
ENDBRANCH  16  17
ENDBRANCH  15  16
ENDBRANCH  11  15
TORSDOF 4
ENDMDL
MODEL      227
REMARK 921   NORMALIZED FREE ENERGY PREDICTED BY IDOCK:   -2.13 KCAL/MOL
REMARK 922        TOTAL FREE ENERGY PREDICTED BY IDOCK:   -2.85 KCAL/MOL
REMARK 923 INTER-LIGAND FREE ENERGY PREDICTED BY IDOCK:   -2.68 KCAL/MOL
REMARK 924 INTRA-LIGAND FREE ENERGY PREDICTED BY IDOCK:   -0.17 KCAL/MOL
REMARK 927      BINDING AFFINITY PREDICTED BY RF-SCORE:    0.00 PKD
ROOT
HETATM    1  N   UNL     1     -11.707   7.655  73.023  1.00  0.00    -0.616 NA 
HETATM    2  H2  UNL     1     -12.226   7.078  73.686  1.00  0.00     0.000 HD 
HETATM    3  H1  UNL     1     -11.907   8.653  72.955  1.00  0.00     0.000 HD 
HETATM    4  C   UNL     1     -10.755   7.092  72.239  1.00  0.00    -0.220 C  
HETATM    5  N   UNL     1     -10.500   5.821  72.327  1.00  0.00    -0.202 N  
HETATM    6  C   UNL     1      -9.489   5.253  71.539  1.00  0.00    -0.150 C  
HETATM    7  H   UNL     1     -11.036   5.236  72.969  1.00  0.00     0.000 HD 
HETATM    8  C   UNL     1      -8.750   6.201  70.693  1.00  0.00    -0.139 A  
HETATM    9  O   UNL     1      -9.238   4.052  71.557  1.00  0.00    -0.114 OA 
HETATM   10  C   UNL     1      -9.117   7.520  70.679  1.00  0.00    -0.155 A  
HETATM   11  N   UNL     1      -8.256   8.167  69.853  1.00  0.00    -0.116 NA 
HETATM   12  N   UNL     1     -10.137   7.996  71.409  1.00  0.00    -0.182 NA 
HETATM   13  C   UNL     1      -7.395   7.207  69.375  1.00  0.00    -0.090 A  
HETATM   14  N   UNL     1      -7.671   6.009  69.856  1.00  0.00    -0.090 NA 
ENDROOT
BRANCH  11  15
HETATM   15  C   UNL     1      -8.270   9.558  69.456  1.00  0.00    -0.134 C  
BRANCH  15  16
HETATM   16  O   UNL     1      -7.338  10.275  70.264  1.00  0.00    -0.198 OA 
BRANCH  16  17
HETATM   17  C   UNL     1      -6.824  11.414  69.562  1.00  0.00    -0.097 C  
BRANCH  17  18
HETATM   18  C   UNL     1      -6.018  12.271  70.533  1.00  0.00    -0.042 C  
HETATM   19  O   UNL     1      -5.985  13.622  70.080  1.00  0.00    -0.132 OA 
HETATM   20  H   UNL     1      -5.483  14.156  70.685  1.00  0.00     0.000 HD 
ENDBRANCH  17  18
ENDBRANCH  16  17
ENDBRANCH  15  16
ENDBRANCH  11  15
TORSDOF 4
ENDMDL
MODEL      228
REMARK 921   NORMALIZED FREE ENERGY PREDICTED BY IDOCK:   -1.60 KCAL/MOL
REMARK 922        TOTAL FREE ENERGY PREDICTED BY IDOCK:   -2.20 KCAL/MOL
REMARK 923 INTER-LIGAND FREE ENERGY PREDICTED BY IDOCK:   -1.98 KCAL/MOL
REMARK 924 INTRA-LIGAND FREE ENERGY PREDICTED BY IDOCK:   -0.23 KCAL/MOL
REMARK 927      BINDING AFFINITY PREDICTED BY RF-SCORE:    0.00 PKD
ROOT
HETATM    1  N   UNL     1     -10.635   9.850  68.642  1.00  0.00    -0.209 NA 
HETATM    2  H2  UNL     1     -11.170  10.699  68.825  1.00  0.00     0.000 HD 
HETATM    3  H1  UNL     1     -11.061   8.937  68.803  1.00  0.00     0.000 HD 
HETATM    4  C   UNL     1      -9.362   9.939  68.184  1.00  0.00    -0.131 C  
HETATM    5  N   UNL     1      -8.819  11.101  67.978  1.00  0.00    -0.137 N  
HETATM    6  C   UNL     1      -7.515  11.186  67.470  1.00  0.00    -0.104 C  
HETATM    7  H   UNL     1      -9.341  11.952  68.186  1.00  0.00     0.000 HD 
HETATM    8  C   UNL     1      -6.881   9.896  67.158  1.00  0.00    -0.083 A  
HETATM    9  O   UNL     1      -6.945  12.258  67.296  1.00  0.00    -0.143 OA 
HETATM   10  C   UNL     1      -7.552   8.733  67.427  1.00  0.00    -0.090 A  
HETATM   11  N   UNL     1      -6.763   7.710  67.012  1.00  0.00    -0.065 NA 
HETATM   12  N   UNL     1      -8.778   8.713  67.975  1.00  0.00    -0.140 NA 
HETATM   13  C   UNL     1      -5.620   8.291  66.514  1.00  0.00    -0.035 A  
HETATM   14  N   UNL     1      -5.656   9.607  66.594  1.00  0.00    -0.045 NA 
ENDROOT
BRANCH  11  15
HETATM   15  C   UNL     1      -6.998   6.288  67.141  1.00  0.00    -0.072 C  
BRANCH  15  16
HETATM   16  O   UNL     1      -7.235   5.743  65.844  1.00  0.00    -0.072 OA 
BRANCH  16  17
HETATM   17  C   UNL     1      -8.591   5.298  65.717  1.00  0.00    -0.139 C  
BRANCH  17  18
HETATM   18  C   UNL     1      -8.597   3.792  65.473  1.00  0.00    -0.111 C  
HETATM   19  O   UNL     1      -9.849   3.238  65.869  1.00  0.00    -0.400 OA 
HETATM   20  H   UNL     1      -9.852   2.300  65.717  1.00  0.00     0.000 HD 
ENDBRANCH  17  18
ENDBRANCH  16  17
ENDBRANCH  15  16
ENDBRANCH  11  15
TORSDOF 4
ENDMDL
MODEL      229
REMARK 921   NORMALIZED FREE ENERGY PREDICTED BY IDOCK:    7.60 KCAL/MOL
REMARK 922        TOTAL FREE ENERGY PREDICTED BY IDOCK:    9.15 KCAL/MOL
REMARK 923 INTER-LIGAND FREE ENERGY PREDICTED BY IDOCK:    9.18 KCAL/MOL
REMARK 924 INTRA-LIGAND FREE ENERGY PREDICTED BY IDOCK:   -0.03 KCAL/MOL
REMARK 927      BINDING AFFINITY PREDICTED BY RF-SCORE:    0.00 PKD
ROOT
HETATM    1  N   UNL     1     -10.545  17.109  63.855  1.00  0.00     2.064 NA 
HETATM    2  H2  UNL     1     -10.206  16.706  62.981  1.00  0.00     0.000 HD 
HETATM    3  H1  UNL     1     -10.931  18.054  63.862  1.00  0.00     0.000 HD 
HETATM    4  C   UNL     1     -10.481  16.388  65.001  1.00  0.00    -0.080 C  
HETATM    5  N   UNL     1      -9.989  15.186  64.992  1.00  0.00    -0.275 N  
HETATM    6  C   UNL     1      -9.959  14.432  66.174  1.00  0.00    -0.311 C  
HETATM    7  H   UNL     1      -9.625  14.789  64.125  1.00  0.00     0.000 HD 
HETATM    8  C   UNL     1     -10.560  15.085  67.347  1.00  0.00    -0.271 A  
HETATM    9  O   UNL     1      -9.470  13.308  66.225  1.00  0.00    -0.254 OA 
HETATM   10  C   UNL     1     -11.039  16.362  67.234  1.00  0.00    -0.019 A  
HETATM   11  N   UNL     1     -11.564  16.701  68.440  1.00  0.00    -0.041 NA 
HETATM   12  N   UNL     1     -10.983  17.060  66.089  1.00  0.00     0.060 NA 
HETATM   13  C   UNL     1     -11.369  15.612  69.257  1.00  0.00    -0.345 A  
HETATM   14  N   UNL     1     -10.759  14.623  68.631  1.00  0.00    -0.242 NA 
ENDROOT
BRANCH  11  15
HETATM   15  C   UNL     1     -12.129  17.969  68.846  1.00  0.00     4.828 C  
BRANCH  15  16
HETATM   16  O   UNL     1     -11.218  19.010  68.496  1.00  0.00     0.706 OA 
BRANCH  16  17
HETATM   17  C   UNL     1     -10.027  18.935  69.290  1.00  0.00    -0.101 C  
BRANCH  17  18
HETATM   18  C   UNL     1     -10.400  19.108  70.759  1.00  0.00     2.066 C  
HETATM   19  O   UNL     1      -9.384  19.842  71.437  1.00  0.00     1.394 OA 
HETATM   20  H   UNL     1      -9.617  19.950  72.352  1.00  0.00     0.000 HD 
ENDBRANCH  17  18
ENDBRANCH  16  17
ENDBRANCH  15  16
ENDBRANCH  11  15
TORSDOF 4
ENDMDL
