MODEL        1
REMARK 921   NORMALIZED FREE ENERGY PREDICTED BY IDOCK:   -8.06 KCAL/MOL
REMARK 922        TOTAL FREE ENERGY PREDICTED BY IDOCK:  -10.26 KCAL/MOL
REMARK 923 INTER-LIGAND FREE ENERGY PREDICTED BY IDOCK:   -9.48 KCAL/MOL
REMARK 924 INTRA-LIGAND FREE ENERGY PREDICTED BY IDOCK:   -0.79 KCAL/MOL
REMARK 927      BINDING AFFINITY PREDICTED BY RF-SCORE:    0.00 PKD
ROOT
HETATM    1  C   UNL     1     -14.066   6.744  71.914  1.00  0.00    -0.033 C  
HETATM    2  O   UNL     1     -12.805   7.356  72.198  1.00  0.00    -0.208 OA 
ENDROOT
BRANCH   2   3
HETATM    3  C   UNL     1     -12.606   8.609  71.671  1.00  0.00    -0.338 A  
HETATM    4  C   UNL     1     -11.575   8.794  70.711  1.00  0.00    -0.288 A  
HETATM    5  C   UNL     1     -11.423  10.100  70.196  1.00  0.00    -0.368 A  
HETATM    6  C   UNL     1     -13.369   9.707  72.101  1.00  0.00    -0.545 A  
HETATM    7  C   UNL     1     -12.166  11.211  70.631  1.00  0.00    -0.492 A  
HETATM    8  C   UNL     1     -13.145  10.986  71.598  1.00  0.00    -0.543 A  
BRANCH   4   9
HETATM    9  C   UNL     1     -10.595   7.683  70.260  1.00  0.00    -0.233 C  
HETATM   10  C   UNL     1      -9.600   8.263  69.213  1.00  0.00    -0.164 C  
HETATM   11  C   UNL     1      -9.831   7.070  71.466  1.00  0.00    -0.176 C  
HETATM   12  C   UNL     1      -9.499   4.873  70.309  1.00  0.00    -0.238 C  
HETATM   13  C   UNL     1      -7.811   6.710  70.022  1.00  0.00    -0.111 C  
HETATM   14  C   UNL     1      -8.787   6.040  71.004  1.00  0.00    -0.139 C  
HETATM   15  C   UNL     1     -10.269   5.395  69.092  1.00  0.00    -0.302 C  
HETATM   16  C   UNL     1      -8.565   7.209  68.778  1.00  0.00    -0.125 C  
HETATM   17  C   UNL     1      -9.279   6.027  68.106  1.00  0.00    -0.116 C  
HETATM   18  C   UNL     1     -11.286   6.461  69.540  1.00  0.00    -0.477 C  
ENDBRANCH   4   9
BRANCH   7  19
HETATM   19  C   UNL     1     -11.870  12.564  70.124  1.00  0.00    -0.336 A  
HETATM   20  C   UNL     1     -11.245  16.465  68.593  1.00  0.00    -0.332 A  
HETATM   21  C   UNL     1     -10.956  14.055  68.403  1.00  0.00    -0.269 A  
HETATM   22  C   UNL     1     -12.081  14.991  70.337  1.00  0.00    -0.384 A  
HETATM   23  C   UNL     1     -12.313  13.704  70.819  1.00  0.00    -0.446 A  
HETATM   24  C   UNL     1     -11.172  12.766  68.923  1.00  0.00    -0.332 A  
HETATM   25  C   UNL     1     -11.420  15.179  69.121  1.00  0.00    -0.322 A  
HETATM   26  C   UNL     1     -10.611  16.640  67.358  1.00  0.00    -0.295 A  
HETATM   27  C   UNL     1     -10.154  15.526  66.646  1.00  0.00    -0.275 A  
HETATM   28  C   UNL     1     -10.470  17.978  66.732  1.00  0.00    -0.328 C  
HETATM   29  O   UNL     1     -10.472  18.143  65.525  1.00  0.00    -0.626 OA 
HETATM   30  C   UNL     1     -10.316  14.243  67.170  1.00  0.00    -0.262 A  
HETATM   31  O   UNL     1     -10.312  18.986  67.615  1.00  0.00    -0.373 OA 
ENDBRANCH   7  19
ENDBRANCH   2   3
TORSDOF 3
ENDMDL
MODEL        2
REMARK 921   NORMALIZED FREE ENERGY PREDICTED BY IDOCK:   -8.06 KCAL/MOL
REMARK 922        TOTAL FREE ENERGY PREDICTED BY IDOCK:  -10.26 KCAL/MOL
REMARK 923 INTER-LIGAND FREE ENERGY PREDICTED BY IDOCK:   -9.55 KCAL/MOL
REMARK 924 INTRA-LIGAND FREE ENERGY PREDICTED BY IDOCK:   -0.70 KCAL/MOL
REMARK 927      BINDING AFFINITY PREDICTED BY RF-SCORE:    0.00 PKD
ROOT
HETATM    1  C   UNL     1     -14.060   6.973  71.804  1.00  0.00    -0.232 C  
HETATM    2  O   UNL     1     -12.781   7.559  72.064  1.00  0.00    -0.286 OA 
ENDROOT
BRANCH   2   3
HETATM    3  C   UNL     1     -12.572   8.816  71.550  1.00  0.00    -0.326 A  
HETATM    4  C   UNL     1     -11.526   9.007  70.607  1.00  0.00    -0.291 A  
HETATM    5  C   UNL     1     -11.364  10.317  70.105  1.00  0.00    -0.388 A  
HETATM    6  C   UNL     1     -13.341   9.911  71.976  1.00  0.00    -0.532 A  
HETATM    7  C   UNL     1     -12.113  11.425  70.537  1.00  0.00    -0.487 A  
HETATM    8  C   UNL     1     -13.108  11.193  71.486  1.00  0.00    -0.489 A  
BRANCH   4   9
HETATM    9  C   UNL     1     -10.540   7.898  70.164  1.00  0.00    -0.237 C  
HETATM   10  C   UNL     1      -9.671   7.461  71.380  1.00  0.00    -0.175 C  
HETATM   11  C   UNL     1     -11.286   6.680  69.552  1.00  0.00    -0.383 C  
HETATM   12  C   UNL     1      -9.327   6.023  68.137  1.00  0.00    -0.115 C  
HETATM   13  C   UNL     1      -9.540   5.131  70.474  1.00  0.00    -0.244 C  
HETATM   14  C   UNL     1     -10.312   5.541  69.208  1.00  0.00    -0.335 C  
HETATM   15  C   UNL     1      -8.535   7.222  68.670  1.00  0.00    -0.129 C  
HETATM   16  C   UNL     1      -8.714   6.315  71.002  1.00  0.00    -0.136 C  
HETATM   17  C   UNL     1      -7.744   6.788  69.910  1.00  0.00    -0.109 C  
HETATM   18  C   UNL     1      -9.508   8.351  69.061  1.00  0.00    -0.151 C  
ENDBRANCH   4   9
BRANCH   7  19
HETATM   19  C   UNL     1     -11.809  12.782  70.045  1.00  0.00    -0.352 A  
HETATM   20  C   UNL     1     -11.159  16.698  68.563  1.00  0.00    -0.301 A  
HETATM   21  C   UNL     1     -10.918  14.286  68.325  1.00  0.00    -0.261 A  
HETATM   22  C   UNL     1     -11.971  15.207  70.305  1.00  0.00    -0.361 A  
HETATM   23  C   UNL     1     -12.212  13.917  70.772  1.00  0.00    -0.441 A  
HETATM   24  C   UNL     1     -11.141  12.993  68.828  1.00  0.00    -0.311 A  
HETATM   25  C   UNL     1     -11.342  15.406  69.074  1.00  0.00    -0.324 A  
HETATM   26  C   UNL     1     -10.557  16.883  67.314  1.00  0.00    -0.270 A  
HETATM   27  C   UNL     1     -10.141  15.775  66.570  1.00  0.00    -0.292 A  
HETATM   28  C   UNL     1     -10.411  18.230  66.708  1.00  0.00    -0.365 C  
HETATM   29  O   UNL     1     -10.445  18.416  65.504  1.00  0.00    -0.610 OA 
HETATM   30  C   UNL     1     -10.309  14.485  67.077  1.00  0.00    -0.263 A  
HETATM   31  O   UNL     1     -10.210  19.219  67.603  1.00  0.00    -0.357 OA 
ENDBRANCH   7  19
ENDBRANCH   2   3
TORSDOF 3
ENDMDL
MODEL        3
REMARK 921   NORMALIZED FREE ENERGY PREDICTED BY IDOCK:   -7.97 KCAL/MOL
REMARK 922        TOTAL FREE ENERGY PREDICTED BY IDOCK:  -10.16 KCAL/MOL
REMARK 923 INTER-LIGAND FREE ENERGY PREDICTED BY IDOCK:   -9.40 KCAL/MOL
REMARK 924 INTRA-LIGAND FREE ENERGY PREDICTED BY IDOCK:   -0.76 KCAL/MOL
REMARK 927      BINDING AFFINITY PREDICTED BY RF-SCORE:    0.00 PKD
ROOT
HETATM    1  C   UNL     1     -11.269  16.407  69.081  1.00  0.00    -0.275 C  
HETATM    2  O   UNL     1     -12.128  15.396  68.548  1.00  0.00    -0.249 OA 
ENDROOT
BRANCH   2   3
HETATM    3  C   UNL     1     -12.012  14.145  69.103  1.00  0.00    -0.349 A  
HETATM    4  C   UNL     1     -11.700  13.045  68.260  1.00  0.00    -0.390 A  
HETATM    5  C   UNL     1     -11.583  11.785  68.887  1.00  0.00    -0.370 A  
HETATM    6  C   UNL     1     -12.244  13.935  70.473  1.00  0.00    -0.443 A  
HETATM    7  C   UNL     1     -11.832  11.558  70.251  1.00  0.00    -0.431 A  
HETATM    8  C   UNL     1     -12.166  12.663  71.033  1.00  0.00    -0.195 A  
BRANCH   4   9
HETATM    9  C   UNL     1     -11.548  13.143  66.722  1.00  0.00    -0.414 C  
HETATM   10  C   UNL     1     -11.360  11.716  66.128  1.00  0.00    -0.275 C  
HETATM   11  C   UNL     1     -12.766  13.855  66.071  1.00  0.00    -0.410 C  
HETATM   12  C   UNL     1     -11.420  14.658  64.117  1.00  0.00    -0.040 C  
HETATM   13  C   UNL     1     -12.538  12.411  64.031  1.00  0.00    -0.510 C  
HETATM   14  C   UNL     1     -12.660  13.859  64.537  1.00  0.00    -0.246 C  
HETATM   15  C   UNL     1     -10.166  14.008  64.710  1.00  0.00    -0.332 C  
HETATM   16  C   UNL     1     -11.265  11.756  64.592  1.00  0.00    -0.349 C  
HETATM   17  C   UNL     1     -10.039  12.578  64.169  1.00  0.00    -0.311 C  
HETATM   18  C   UNL     1     -10.285  13.959  66.245  1.00  0.00    -0.299 C  
ENDBRANCH   4   9
BRANCH   7  19
HETATM   19  C   UNL     1     -11.798  10.193  70.809  1.00  0.00    -0.443 A  
HETATM   20  C   UNL     1     -11.598   6.360  72.605  1.00  0.00    -0.193 A  
HETATM   21  C   UNL     1     -10.758   7.979  70.991  1.00  0.00    -0.245 A  
HETATM   22  C   UNL     1     -12.678   8.527  72.367  1.00  0.00    -0.394 A  
HETATM   23  C   UNL     1     -12.718   9.797  71.797  1.00  0.00    -0.519 A  
HETATM   24  C   UNL     1     -10.835   9.254  70.405  1.00  0.00    -0.302 A  
HETATM   25  C   UNL     1     -11.691   7.614  71.987  1.00  0.00    -0.340 A  
HETATM   26  C   UNL     1     -10.586   5.467  72.239  1.00  0.00    -0.280 A  
HETATM   27  C   UNL     1      -9.659   5.829  71.256  1.00  0.00    -0.198 A  
HETATM   28  C   UNL     1     -10.411   4.160  72.920  1.00  0.00    -0.172 C  
HETATM   29  O   UNL     1      -9.321   3.636  73.067  1.00  0.00    -0.101 OA 
HETATM   30  C   UNL     1      -9.751   7.072  70.628  1.00  0.00    -0.174 A  
HETATM   31  O   UNL     1     -11.565   3.594  73.332  1.00  0.00    -0.153 OA 
ENDBRANCH   7  19
ENDBRANCH   2   3
TORSDOF 3
ENDMDL
MODEL        4
REMARK 921   NORMALIZED FREE ENERGY PREDICTED BY IDOCK:   -7.96 KCAL/MOL
REMARK 922        TOTAL FREE ENERGY PREDICTED BY IDOCK:  -10.14 KCAL/MOL
REMARK 923 INTER-LIGAND FREE ENERGY PREDICTED BY IDOCK:   -9.43 KCAL/MOL
REMARK 924 INTRA-LIGAND FREE ENERGY PREDICTED BY IDOCK:   -0.71 KCAL/MOL
REMARK 927      BINDING AFFINITY PREDICTED BY RF-SCORE:    0.00 PKD
ROOT
HETATM    1  C   UNL     1      -9.507   3.924  67.503  1.00  0.00    -0.190 C  
HETATM    2  O   UNL     1      -9.297   5.007  68.413  1.00  0.00    -0.115 OA 
ENDROOT
BRANCH   2   3
HETATM    3  C   UNL     1      -9.459   6.272  67.902  1.00  0.00    -0.115 A  
HETATM    4  C   UNL     1      -9.819   7.328  68.782  1.00  0.00    -0.161 A  
HETATM    5  C   UNL     1      -9.961   8.607  68.203  1.00  0.00    -0.210 A  
HETATM    6  C   UNL     1      -9.322   6.521  66.526  1.00  0.00    -0.188 A  
HETATM    7  C   UNL     1      -9.846   8.868  66.826  1.00  0.00    -0.308 A  
HETATM    8  C   UNL     1      -9.523   7.794  65.998  1.00  0.00    -0.058 A  
BRANCH   4   9
HETATM    9  C   UNL     1     -10.118   7.141  70.290  1.00  0.00    -0.195 C  
HETATM   10  C   UNL     1      -9.998   8.513  71.016  1.00  0.00    -0.255 C  
HETATM   11  C   UNL     1     -11.521   6.514  70.522  1.00  0.00    -0.448 C  
HETATM   12  C   UNL     1     -10.849   5.494  72.708  1.00  0.00    -0.308 C  
HETATM   13  C   UNL     1     -11.772   7.828  72.644  1.00  0.00    -0.364 C  
HETATM   14  C   UNL     1     -11.854   6.425  72.020  1.00  0.00    -0.382 C  
HETATM   15  C   UNL     1      -9.432   6.053  72.537  1.00  0.00    -0.153 C  
HETATM   16  C   UNL     1     -10.347   8.389  72.510  1.00  0.00    -0.371 C  
HETATM   17  C   UNL     1      -9.357   7.436  73.196  1.00  0.00    -0.235 C  
HETATM   18  C   UNL     1      -9.107   6.188  71.038  1.00  0.00    -0.151 C  
ENDBRANCH   4   9
BRANCH   7  19
HETATM   19  C   UNL     1     -10.120  10.212  66.284  1.00  0.00    -0.303 A  
HETATM   20  C   UNL     1     -10.675  14.096  64.685  1.00  0.00    -0.408 A  
HETATM   21  C   UNL     1     -10.521  12.610  66.608  1.00  0.00    -0.261 A  
HETATM   22  C   UNL     1     -10.357  11.706  64.364  1.00  0.00    -0.362 A  
HETATM   23  C   UNL     1     -10.141  10.437  64.896  1.00  0.00    -0.382 A  
HETATM   24  C   UNL     1     -10.335  11.316  67.125  1.00  0.00    -0.244 A  
HETATM   25  C   UNL     1     -10.529  12.805  65.209  1.00  0.00    -0.312 A  
HETATM   26  C   UNL     1     -10.815  15.193  65.542  1.00  0.00    -0.373 A  
HETATM   27  C   UNL     1     -10.803  15.001  66.927  1.00  0.00    -0.315 A  
HETATM   28  C   UNL     1     -10.900  16.582  65.027  1.00  0.00    -0.229 C  
HETATM   29  O   UNL     1     -10.466  17.540  65.644  1.00  0.00    -0.588 OA 
HETATM   30  C   UNL     1     -10.669  13.717  67.457  1.00  0.00    -0.262 A  
HETATM   31  O   UNL     1     -11.523  16.692  63.836  1.00  0.00    -1.186 OA 
ENDBRANCH   7  19
ENDBRANCH   2   3
TORSDOF 3
ENDMDL
MODEL        5
REMARK 921   NORMALIZED FREE ENERGY PREDICTED BY IDOCK:   -7.82 KCAL/MOL
REMARK 922        TOTAL FREE ENERGY PREDICTED BY IDOCK:   -9.98 KCAL/MOL
REMARK 923 INTER-LIGAND FREE ENERGY PREDICTED BY IDOCK:   -9.35 KCAL/MOL
REMARK 924 INTRA-LIGAND FREE ENERGY PREDICTED BY IDOCK:   -0.63 KCAL/MOL
REMARK 927      BINDING AFFINITY PREDICTED BY RF-SCORE:    0.00 PKD
ROOT
HETATM    1  C   UNL     1     -14.281   8.618  72.506  1.00  0.00    -0.291 C  
HETATM    2  O   UNL     1     -12.916   9.027  72.388  1.00  0.00    -0.408 OA 
ENDROOT
BRANCH   2   3
HETATM    3  C   UNL     1     -12.675  10.119  71.589  1.00  0.00    -0.447 A  
HETATM    4  C   UNL     1     -11.801   9.976  70.478  1.00  0.00    -0.387 A  
HETATM    5  C   UNL     1     -11.599  11.128  69.686  1.00  0.00    -0.398 A  
HETATM    6  C   UNL     1     -13.239  11.371  71.882  1.00  0.00    -0.485 A  
HETATM    7  C   UNL     1     -12.141  12.391  69.978  1.00  0.00    -0.335 A  
HETATM    8  C   UNL     1     -12.968  12.489  71.097  1.00  0.00    -0.237 A  
BRANCH   4   9
HETATM    9  C   UNL     1     -11.029   8.677  70.138  1.00  0.00    -0.234 C  
HETATM   10  C   UNL     1     -10.516   8.749  68.670  1.00  0.00    -0.213 C  
HETATM   11  C   UNL     1      -9.851   8.437  71.123  1.00  0.00    -0.242 C  
HETATM   12  C   UNL     1      -9.913   5.954  70.798  1.00  0.00    -0.241 C  
HETATM   13  C   UNL     1      -8.510   7.383  69.283  1.00  0.00    -0.136 C  
HETATM   14  C   UNL     1      -9.027   7.203  70.721  1.00  0.00    -0.152 C  
HETATM   15  C   UNL     1     -11.098   6.106  69.838  1.00  0.00    -0.481 C  
HETATM   16  C   UNL     1      -9.689   7.504  68.303  1.00  0.00    -0.163 C  
HETATM   17  C   UNL     1     -10.568   6.249  68.406  1.00  0.00    -0.316 C  
HETATM   18  C   UNL     1     -11.904   7.367  70.206  1.00  0.00    -0.037 C  
ENDBRANCH   4   9
BRANCH   7  19
HETATM   19  C   UNL     1     -11.792  13.571  69.165  1.00  0.00    -0.386 A  
HETATM   20  C   UNL     1     -10.579  16.863  66.789  1.00  0.00    -0.201 A  
HETATM   21  C   UNL     1     -11.006  15.887  68.979  1.00  0.00    -0.277 A  
HETATM   22  C   UNL     1     -11.434  14.593  66.973  1.00  0.00    -0.379 A  
HETATM   23  C   UNL     1     -11.801  13.503  67.760  1.00  0.00    -0.398 A  
HETATM   24  C   UNL     1     -11.410  14.787  69.754  1.00  0.00    -0.319 A  
HETATM   25  C   UNL     1     -11.017  15.785  67.570  1.00  0.00    -0.293 A  
HETATM   26  C   UNL     1     -10.132  18.040  67.399  1.00  0.00    -0.354 A  
HETATM   27  C   UNL     1     -10.118  18.140  68.793  1.00  0.00    -0.392 A  
HETATM   28  C   UNL     1      -9.594  19.175  66.608  1.00  0.00    -0.346 C  
HETATM   29  O   UNL     1      -8.724  19.916  67.031  1.00  0.00    -0.308 OA 
HETATM   30  C   UNL     1     -10.562  17.075  69.578  1.00  0.00    -0.168 A  
HETATM   31  O   UNL     1     -10.174  19.330  65.400  1.00  0.00    -0.328 OA 
ENDBRANCH   7  19
ENDBRANCH   2   3
TORSDOF 3
ENDMDL
MODEL        6
REMARK 921   NORMALIZED FREE ENERGY PREDICTED BY IDOCK:   -7.69 KCAL/MOL
REMARK 922        TOTAL FREE ENERGY PREDICTED BY IDOCK:   -9.83 KCAL/MOL
REMARK 923 INTER-LIGAND FREE ENERGY PREDICTED BY IDOCK:   -9.10 KCAL/MOL
REMARK 924 INTRA-LIGAND FREE ENERGY PREDICTED BY IDOCK:   -0.72 KCAL/MOL
REMARK 927      BINDING AFFINITY PREDICTED BY RF-SCORE:    0.00 PKD
ROOT
HETATM    1  C   UNL     1      -9.501   3.900  67.730  1.00  0.00    -0.179 C  
HETATM    2  O   UNL     1      -9.183   5.000  68.587  1.00  0.00    -0.112 OA 
ENDROOT
BRANCH   2   3
HETATM    3  C   UNL     1      -9.365   6.255  68.058  1.00  0.00    -0.114 A  
HETATM    4  C   UNL     1      -9.773   7.309  68.918  1.00  0.00    -0.148 A  
HETATM    5  C   UNL     1      -9.934   8.579  68.322  1.00  0.00    -0.211 A  
HETATM    6  C   UNL     1      -9.199   6.494  66.684  1.00  0.00    -0.172 A  
HETATM    7  C   UNL     1      -9.790   8.829  66.947  1.00  0.00    -0.295 A  
HETATM    8  C   UNL     1      -9.419   7.755  66.138  1.00  0.00    -0.135 A  
BRANCH   4   9
HETATM    9  C   UNL     1     -10.105   7.130  70.420  1.00  0.00    -0.199 C  
HETATM   10  C   UNL     1     -11.441   6.344  70.565  1.00  0.00    -0.444 C  
HETATM   11  C   UNL     1      -8.956   6.408  71.178  1.00  0.00    -0.146 C  
HETATM   12  C   UNL     1      -9.548   7.478  73.364  1.00  0.00    -0.323 C  
HETATM   13  C   UNL     1     -10.627   5.311  72.695  1.00  0.00    -0.278 C  
HETATM   14  C   UNL     1      -9.333   6.141  72.644  1.00  0.00    -0.146 C  
HETATM   15  C   UNL     1     -10.683   8.250  72.682  1.00  0.00    -0.384 C  
HETATM   16  C   UNL     1     -11.784   6.087  72.044  1.00  0.00    -0.315 C  
HETATM   17  C   UNL     1     -11.974   7.426  72.772  1.00  0.00    -0.017 C  
HETATM   18  C   UNL     1     -10.334   8.481  71.200  1.00  0.00    -0.273 C  
ENDBRANCH   4   9
BRANCH   7  19
HETATM   19  C   UNL     1     -10.084  10.160  66.384  1.00  0.00    -0.300 A  
HETATM   20  C   UNL     1     -10.699  14.010  64.724  1.00  0.00    -0.442 A  
HETATM   21  C   UNL     1     -10.519  12.558  66.670  1.00  0.00    -0.252 A  
HETATM   22  C   UNL     1     -10.347  11.620  64.441  1.00  0.00    -0.362 A  
HETATM   23  C   UNL     1     -10.112  10.362  64.993  1.00  0.00    -0.379 A  
HETATM   24  C   UNL     1     -10.313  11.275  67.207  1.00  0.00    -0.236 A  
HETATM   25  C   UNL     1     -10.533  12.729  65.269  1.00  0.00    -0.312 A  
HETATM   26  C   UNL     1     -10.851  15.119  65.564  1.00  0.00    -0.373 A  
HETATM   27  C   UNL     1     -10.834  14.949  66.952  1.00  0.00    -0.319 A  
HETATM   28  C   UNL     1     -10.957  16.498  65.027  1.00  0.00    -0.210 C  
HETATM   29  O   UNL     1     -10.535  17.471  65.627  1.00  0.00    -0.588 OA 
HETATM   30  C   UNL     1     -10.680  13.676  67.502  1.00  0.00    -0.266 A  
HETATM   31  O   UNL     1     -11.585  16.580  63.836  1.00  0.00    -1.175 OA 
ENDBRANCH   7  19
ENDBRANCH   2   3
TORSDOF 3
ENDMDL
MODEL        7
REMARK 921   NORMALIZED FREE ENERGY PREDICTED BY IDOCK:   -7.68 KCAL/MOL
REMARK 922        TOTAL FREE ENERGY PREDICTED BY IDOCK:   -9.81 KCAL/MOL
REMARK 923 INTER-LIGAND FREE ENERGY PREDICTED BY IDOCK:   -9.14 KCAL/MOL
REMARK 924 INTRA-LIGAND FREE ENERGY PREDICTED BY IDOCK:   -0.67 KCAL/MOL
REMARK 927      BINDING AFFINITY PREDICTED BY RF-SCORE:    0.00 PKD
ROOT
HETATM    1  C   UNL     1     -11.030   7.927  72.800  1.00  0.00    -0.393 C  
HETATM    2  O   UNL     1     -11.814   7.966  71.605  1.00  0.00    -0.268 OA 
ENDROOT
BRANCH   2   3
HETATM    3  C   UNL     1     -11.768   9.136  70.886  1.00  0.00    -0.284 A  
HETATM    4  C   UNL     1     -11.106   9.144  69.629  1.00  0.00    -0.103 A  
HETATM    5  C   UNL     1     -11.100  10.371  68.930  1.00  0.00    -0.296 A  
HETATM    6  C   UNL     1     -12.319  10.323  71.396  1.00  0.00    -0.502 A  
HETATM    7  C   UNL     1     -11.630  11.570  69.436  1.00  0.00    -0.388 A  
HETATM    8  C   UNL     1     -12.241  11.520  70.689  1.00  0.00    -0.473 A  
BRANCH   4   9
HETATM    9  C   UNL     1     -10.357   7.927  69.031  1.00  0.00    -0.223 C  
HETATM   10  C   UNL     1     -10.261   8.086  67.485  1.00  0.00    -0.311 C  
HETATM   11  C   UNL     1      -8.945   7.761  69.657  1.00  0.00    -0.143 C  
HETATM   12  C   UNL     1      -8.904   5.292  69.233  1.00  0.00    -0.115 C  
HETATM   13  C   UNL     1      -8.067   6.881  67.477  1.00  0.00    -0.116 C  
HETATM   14  C   UNL     1      -8.167   6.615  68.989  1.00  0.00    -0.117 C  
HETATM   15  C   UNL     1     -10.309   5.370  68.628  1.00  0.00    -0.229 C  
HETATM   16  C   UNL     1      -9.470   6.928  66.850  1.00  0.00    -0.194 C  
HETATM   17  C   UNL     1     -10.193   5.599  67.116  1.00  0.00    -0.255 C  
HETATM   18  C   UNL     1     -11.080   6.544  69.260  1.00  0.00    -0.393 C  
ENDBRANCH   4   9
BRANCH   7  19
HETATM   19  C   UNL     1     -11.484  12.836  68.693  1.00  0.00    -0.341 A  
HETATM   20  C   UNL     1     -10.849  16.402  66.496  1.00  0.00    -0.073 A  
HETATM   21  C   UNL     1     -10.979  15.235  68.629  1.00  0.00    -0.257 A  
HETATM   22  C   UNL     1     -11.428  14.041  66.567  1.00  0.00    -0.368 A  
HETATM   23  C   UNL     1     -11.603  12.864  67.292  1.00  0.00    -0.416 A  
HETATM   24  C   UNL     1     -11.191  14.044  69.345  1.00  0.00    -0.283 A  
HETATM   25  C   UNL     1     -11.097  15.229  67.222  1.00  0.00    -0.325 A  
HETATM   26  C   UNL     1     -10.486  17.579  67.160  1.00  0.00    -0.312 A  
HETATM   27  C   UNL     1     -10.366  17.584  68.553  1.00  0.00    -0.380 A  
HETATM   28  C   UNL     1     -10.146  18.821  66.422  1.00  0.00    -0.404 C  
HETATM   29  O   UNL     1      -9.331  19.627  66.833  1.00  0.00    -0.321 OA 
HETATM   30  C   UNL     1     -10.621  16.423  69.284  1.00  0.00    -0.311 A  
HETATM   31  O   UNL     1     -10.839  18.989  65.277  1.00  0.00    -0.540 OA 
ENDBRANCH   7  19
ENDBRANCH   2   3
TORSDOF 3
ENDMDL
MODEL        8
REMARK 921   NORMALIZED FREE ENERGY PREDICTED BY IDOCK:   -7.61 KCAL/MOL
REMARK 922        TOTAL FREE ENERGY PREDICTED BY IDOCK:   -9.73 KCAL/MOL
REMARK 923 INTER-LIGAND FREE ENERGY PREDICTED BY IDOCK:   -9.13 KCAL/MOL
REMARK 924 INTRA-LIGAND FREE ENERGY PREDICTED BY IDOCK:   -0.60 KCAL/MOL
REMARK 927      BINDING AFFINITY PREDICTED BY RF-SCORE:    0.00 PKD
ROOT
HETATM    1  C   UNL     1     -13.834   7.112  72.053  1.00  0.00    -0.098 C  
HETATM    2  O   UNL     1     -12.564   7.759  72.171  1.00  0.00    -0.288 OA 
ENDROOT
BRANCH   2   3
HETATM    3  C   UNL     1     -12.379   8.880  71.399  1.00  0.00    -0.313 A  
HETATM    4  C   UNL     1     -11.385   8.858  70.383  1.00  0.00    -0.229 A  
HETATM    5  C   UNL     1     -11.246  10.034  69.614  1.00  0.00    -0.285 A  
HETATM    6  C   UNL     1     -13.120  10.051  71.630  1.00  0.00    -0.547 A  
HETATM    7  C   UNL     1     -11.967  11.218  69.848  1.00  0.00    -0.440 A  
HETATM    8  C   UNL     1     -12.909  11.201  70.876  1.00  0.00    -0.374 A  
BRANCH   4   9
HETATM    9  C   UNL     1     -10.428   7.667  70.126  1.00  0.00    -0.227 C  
HETATM   10  C   UNL     1     -11.262   6.398  69.783  1.00  0.00    -0.484 C  
HETATM   11  C   UNL     1      -9.413   7.983  68.993  1.00  0.00    -0.151 C  
HETATM   12  C   UNL     1      -7.700   6.401  69.906  1.00  0.00    -0.109 C  
HETATM   13  C   UNL     1      -9.432   5.576  68.286  1.00  0.00    -0.137 C  
HETATM   14  C   UNL     1      -8.534   6.764  68.672  1.00  0.00    -0.123 C  
HETATM   15  C   UNL     1      -8.633   6.059  71.073  1.00  0.00    -0.131 C  
HETATM   16  C   UNL     1     -10.351   5.199  69.459  1.00  0.00    -0.292 C  
HETATM   17  C   UNL     1      -9.496   4.852  70.687  1.00  0.00    -0.237 C  
HETATM   18  C   UNL     1      -9.550   7.261  71.371  1.00  0.00    -0.165 C  
ENDBRANCH   4   9
BRANCH   7  19
HETATM   19  C   UNL     1     -11.685  12.441  69.072  1.00  0.00    -0.372 A  
HETATM   20  C   UNL     1     -10.653  15.877  66.817  1.00  0.00    -0.309 A  
HETATM   21  C   UNL     1     -11.113  14.824  68.965  1.00  0.00    -0.268 A  
HETATM   22  C   UNL     1     -11.298  13.534  66.920  1.00  0.00    -0.350 A  
HETATM   23  C   UNL     1     -11.604  12.400  67.669  1.00  0.00    -0.421 A  
HETATM   24  C   UNL     1     -11.455  13.676  69.700  1.00  0.00    -0.286 A  
HETATM   25  C   UNL     1     -11.032  14.748  67.557  1.00  0.00    -0.304 A  
HETATM   26  C   UNL     1     -10.357  17.079  67.469  1.00  0.00    -0.329 A  
HETATM   27  C   UNL     1     -10.434  17.154  68.863  1.00  0.00    -0.346 A  
HETATM   28  C   UNL     1      -9.884  18.275  66.727  1.00  0.00    -0.341 C  
HETATM   29  O   UNL     1      -9.115  19.086  67.211  1.00  0.00    -0.279 OA 
HETATM   30  C   UNL     1     -10.820  16.037  69.606  1.00  0.00    -0.329 A  
HETATM   31  O   UNL     1     -10.404  18.397  65.488  1.00  0.00    -0.570 OA 
ENDBRANCH   7  19
ENDBRANCH   2   3
TORSDOF 3
ENDMDL
MODEL        9
REMARK 921   NORMALIZED FREE ENERGY PREDICTED BY IDOCK:   -7.59 KCAL/MOL
REMARK 922        TOTAL FREE ENERGY PREDICTED BY IDOCK:   -9.71 KCAL/MOL
REMARK 923 INTER-LIGAND FREE ENERGY PREDICTED BY IDOCK:   -8.97 KCAL/MOL
REMARK 924 INTRA-LIGAND FREE ENERGY PREDICTED BY IDOCK:   -0.74 KCAL/MOL
REMARK 927      BINDING AFFINITY PREDICTED BY RF-SCORE:    0.00 PKD
ROOT
HETATM    1  C   UNL     1     -13.207  15.268  71.516  1.00  0.00    -0.459 C  
HETATM    2  O   UNL     1     -13.008  14.444  70.364  1.00  0.00    -0.320 OA 
ENDROOT
BRANCH   2   3
HETATM    3  C   UNL     1     -12.647  13.140  70.605  1.00  0.00    -0.211 A  
HETATM    4  C   UNL     1     -11.675  12.531  69.767  1.00  0.00    -0.355 A  
HETATM    5  C   UNL     1     -11.336  11.194  70.068  1.00  0.00    -0.326 A  
HETATM    6  C   UNL     1     -13.256  12.396  71.629  1.00  0.00    -0.367 A  
HETATM    7  C   UNL     1     -11.950  10.432  71.076  1.00  0.00    -0.481 A  
HETATM    8  C   UNL     1     -12.921  11.063  71.853  1.00  0.00    -0.485 A  
BRANCH   4   9
HETATM    9  C   UNL     1     -11.034  13.217  68.535  1.00  0.00    -0.289 C  
HETATM   10  C   UNL     1     -12.135  13.503  67.471  1.00  0.00    -0.340 C  
HETATM   11  C   UNL     1     -10.294  14.525  68.929  1.00  0.00    -0.237 C  
HETATM   12  C   UNL     1      -8.709  14.366  66.996  1.00  0.00    -0.244 C  
HETATM   13  C   UNL     1     -10.906  15.552  66.723  1.00  0.00    -0.291 C  
HETATM   14  C   UNL     1      -9.748  15.255  67.691  1.00  0.00    -0.208 C  
HETATM   15  C   UNL     1      -9.367  13.053  66.560  1.00  0.00    -0.220 C  
HETATM   16  C   UNL     1     -11.555  14.241  66.250  1.00  0.00    -0.379 C  
HETATM   17  C   UNL     1     -10.496  13.363  65.568  1.00  0.00    -0.297 C  
HETATM   18  C   UNL     1      -9.958  12.337  67.790  1.00  0.00    -0.200 C  
ENDBRANCH   4   9
BRANCH   7  19
HETATM   19  C   UNL     1     -11.619   9.006  71.255  1.00  0.00    -0.387 A  
HETATM   20  C   UNL     1     -10.454   4.975  71.850  1.00  0.00    -0.255 A  
HETATM   21  C   UNL     1     -10.859   6.854  70.354  1.00  0.00    -0.297 A  
HETATM   22  C   UNL     1     -11.282   7.085  72.730  1.00  0.00    -0.294 A  
HETATM   23  C   UNL     1     -11.633   8.420  72.534  1.00  0.00    -0.426 A  
HETATM   24  C   UNL     1     -11.247   8.193  70.172  1.00  0.00    -0.134 A  
HETATM   25  C   UNL     1     -10.876   6.297  71.652  1.00  0.00    -0.298 A  
HETATM   26  C   UNL     1     -10.018   4.205  70.766  1.00  0.00    -0.192 A  
HETATM   27  C   UNL     1      -9.998   4.757  69.482  1.00  0.00    -0.287 A  
HETATM   28  C   UNL     1      -9.496   2.827  70.945  1.00  0.00    -0.154 C  
HETATM   29  O   UNL     1      -8.632   2.353  70.229  1.00  0.00    -0.048 OA 
HETATM   30  C   UNL     1     -10.426   6.070  69.275  1.00  0.00    -0.328 A  
HETATM   31  O   UNL     1     -10.083   2.141  71.947  1.00  0.00    -0.160 OA 
ENDBRANCH   7  19
ENDBRANCH   2   3
TORSDOF 3
ENDMDL
MODEL       10
REMARK 921   NORMALIZED FREE ENERGY PREDICTED BY IDOCK:   -7.56 KCAL/MOL
REMARK 922        TOTAL FREE ENERGY PREDICTED BY IDOCK:   -9.68 KCAL/MOL
REMARK 923 INTER-LIGAND FREE ENERGY PREDICTED BY IDOCK:   -8.98 KCAL/MOL
REMARK 924 INTRA-LIGAND FREE ENERGY PREDICTED BY IDOCK:   -0.69 KCAL/MOL
REMARK 927      BINDING AFFINITY PREDICTED BY RF-SCORE:    0.00 PKD
ROOT
HETATM    1  C   UNL     1     -12.304  14.290  63.978  1.00  0.00    -0.244 C  
HETATM    2  O   UNL     1     -11.537  14.768  65.086  1.00  0.00    -0.354 OA 
ENDROOT
BRANCH   2   3
HETATM    3  C   UNL     1     -11.290  13.864  66.091  1.00  0.00    -0.320 A  
HETATM    4  C   UNL     1     -10.527  14.278  67.215  1.00  0.00    -0.269 A  
HETATM    5  C   UNL     1     -10.314  13.310  68.221  1.00  0.00    -0.252 A  
HETATM    6  C   UNL     1     -11.739  12.536  65.998  1.00  0.00    -0.472 A  
HETATM    7  C   UNL     1     -10.739  11.974  68.132  1.00  0.00    -0.246 A  
HETATM    8  C   UNL     1     -11.458  11.606  66.995  1.00  0.00    -0.336 A  
BRANCH   4   9
HETATM    9  C   UNL     1      -9.879  15.678  67.360  1.00  0.00    -0.225 C  
HETATM   10  C   UNL     1      -9.212  15.796  68.762  1.00  0.00    -0.216 C  
HETATM   11  C   UNL     1      -8.845  15.949  66.233  1.00  0.00    -0.386 C  
HETATM   12  C   UNL     1      -9.160  18.431  66.362  1.00  0.00    -0.271 C  
HETATM   13  C   UNL     1      -7.452  17.305  67.819  1.00  0.00    -0.184 C  
HETATM   14  C   UNL     1      -8.132  17.296  66.439  1.00  0.00    -0.328 C  
HETATM   15  C   UNL     1     -10.213  18.243  67.459  1.00  0.00    -0.384 C  
HETATM   16  C   UNL     1      -8.501  17.152  68.932  1.00  0.00    -0.187 C  
HETATM   17  C   UNL     1      -9.525  18.291  68.829  1.00  0.00    -0.298 C  
HETATM   18  C   UNL     1     -10.901  16.876  67.286  1.00  0.00    -0.131 C  
ENDBRANCH   4   9
BRANCH   7  19
HETATM   19  C   UNL     1     -10.381  10.994  69.175  1.00  0.00    -0.210 A  
HETATM   20  C   UNL     1      -9.353   8.013  72.005  1.00  0.00    -0.237 A  
HETATM   21  C   UNL     1     -11.009   9.498  71.015  1.00  0.00    -0.424 A  
HETATM   22  C   UNL     1      -8.714   9.553  70.234  1.00  0.00    -0.270 A  
HETATM   23  C   UNL     1      -9.065  10.510  69.284  1.00  0.00    -0.161 A  
HETATM   24  C   UNL     1     -11.336  10.487  70.070  1.00  0.00    -0.392 A  
HETATM   25  C   UNL     1      -9.681   9.026  71.093  1.00  0.00    -0.369 A  
HETATM   26  C   UNL     1     -10.337   7.469  72.838  1.00  0.00    -0.349 A  
HETATM   27  C   UNL     1     -11.653   7.934  72.757  1.00  0.00    -0.387 A  
HETATM   28  C   UNL     1     -10.045   6.347  73.764  1.00  0.00    -0.266 C  
HETATM   29  O   UNL     1     -10.874   5.503  74.056  1.00  0.00    -0.242 OA 
HETATM   30  C   UNL     1     -11.985   8.950  71.860  1.00  0.00    -0.441 A  
HETATM   31  O   UNL     1      -8.795   6.362  74.273  1.00  0.00    -0.133 OA 
ENDBRANCH   7  19
ENDBRANCH   2   3
TORSDOF 3
ENDMDL
MODEL       11
REMARK 921   NORMALIZED FREE ENERGY PREDICTED BY IDOCK:   -7.55 KCAL/MOL
REMARK 922        TOTAL FREE ENERGY PREDICTED BY IDOCK:   -9.66 KCAL/MOL
REMARK 923 INTER-LIGAND FREE ENERGY PREDICTED BY IDOCK:   -9.04 KCAL/MOL
REMARK 924 INTRA-LIGAND FREE ENERGY PREDICTED BY IDOCK:   -0.63 KCAL/MOL
REMARK 927      BINDING AFFINITY PREDICTED BY RF-SCORE:    0.00 PKD
ROOT
HETATM    1  C   UNL     1     -11.450   6.943  72.760  1.00  0.00    -0.145 C  
HETATM    2  O   UNL     1     -12.242   7.288  71.620  1.00  0.00    -0.308 OA 
ENDROOT
BRANCH   2   3
HETATM    3  C   UNL     1     -12.149   8.588  71.186  1.00  0.00    -0.252 A  
HETATM    4  C   UNL     1     -11.399   8.867  70.012  1.00  0.00    -0.050 A  
HETATM    5  C   UNL     1     -11.347  10.219  69.606  1.00  0.00    -0.315 A  
HETATM    6  C   UNL     1     -12.740   9.638  71.908  1.00  0.00    -0.499 A  
HETATM    7  C   UNL     1     -11.916  11.281  70.329  1.00  0.00    -0.466 A  
HETATM    8  C   UNL     1     -12.616  10.961  71.492  1.00  0.00    -0.480 A  
BRANCH   4   9
HETATM    9  C   UNL     1     -10.605   7.805  69.212  1.00  0.00    -0.199 C  
HETATM   10  C   UNL     1     -10.501   8.249  67.723  1.00  0.00    -0.280 C  
HETATM   11  C   UNL     1      -9.193   7.570  69.817  1.00  0.00    -0.147 C  
HETATM   12  C   UNL     1      -9.066   5.225  68.948  1.00  0.00    -0.136 C  
HETATM   13  C   UNL     1      -8.268   7.135  67.526  1.00  0.00    -0.117 C  
HETATM   14  C   UNL     1      -8.372   6.592  68.962  1.00  0.00    -0.120 C  
HETATM   15  C   UNL     1     -10.469   5.368  68.348  1.00  0.00    -0.191 C  
HETATM   16  C   UNL     1      -9.666   7.252  66.898  1.00  0.00    -0.252 C  
HETATM   17  C   UNL     1     -10.347   5.875  66.905  1.00  0.00    -0.304 C  
HETATM   18  C   UNL     1     -11.283   6.382  69.172  1.00  0.00    -0.421 C  
ENDBRANCH   4   9
BRANCH   7  19
HETATM   19  C   UNL     1     -11.723  12.679  69.899  1.00  0.00    -0.320 A  
HETATM   20  C   UNL     1     -11.374  16.682  68.552  1.00  0.00    -0.152 A  
HETATM   21  C   UNL     1     -10.751  14.334  68.371  1.00  0.00    -0.257 A  
HETATM   22  C   UNL     1     -12.274  15.051  70.116  1.00  0.00    -0.392 A  
HETATM   23  C   UNL     1     -12.411  13.728  70.534  1.00  0.00    -0.429 A  
HETATM   24  C   UNL     1     -10.877  13.011  68.828  1.00  0.00    -0.277 A  
HETATM   25  C   UNL     1     -11.462  15.365  69.024  1.00  0.00    -0.349 A  
HETATM   26  C   UNL     1     -10.582  16.979  67.438  1.00  0.00    -0.289 A  
HETATM   27  C   UNL     1      -9.881  15.958  66.789  1.00  0.00    -0.254 A  
HETATM   28  C   UNL     1     -10.520  18.347  66.865  1.00  0.00    -0.389 C  
HETATM   29  O   UNL     1     -10.355  18.554  65.676  1.00  0.00    -0.594 OA 
HETATM   30  C   UNL     1      -9.956  14.646  67.258  1.00  0.00    -0.235 A  
HETATM   31  O   UNL     1     -10.632  19.333  67.779  1.00  0.00    -0.419 OA 
ENDBRANCH   7  19
ENDBRANCH   2   3
TORSDOF 3
ENDMDL
MODEL       12
REMARK 921   NORMALIZED FREE ENERGY PREDICTED BY IDOCK:   -7.54 KCAL/MOL
REMARK 922        TOTAL FREE ENERGY PREDICTED BY IDOCK:   -9.65 KCAL/MOL
REMARK 923 INTER-LIGAND FREE ENERGY PREDICTED BY IDOCK:   -8.95 KCAL/MOL
REMARK 924 INTRA-LIGAND FREE ENERGY PREDICTED BY IDOCK:   -0.70 KCAL/MOL
REMARK 927      BINDING AFFINITY PREDICTED BY RF-SCORE:    0.00 PKD
ROOT
HETATM    1  C   UNL     1     -11.171   5.541  73.448  1.00  0.00    -0.158 C  
HETATM    2  O   UNL     1     -10.775   6.885  73.731  1.00  0.00    -0.347 OA 
ENDROOT
BRANCH   2   3
HETATM    3  C   UNL     1     -10.922   7.791  72.709  1.00  0.00    -0.388 A  
HETATM    4  C   UNL     1      -9.759   8.305  72.074  1.00  0.00    -0.322 A  
HETATM    5  C   UNL     1      -9.971   9.224  71.023  1.00  0.00    -0.364 A  
HETATM    6  C   UNL     1     -12.193   8.246  72.319  1.00  0.00    -0.428 A  
HETATM    7  C   UNL     1     -11.235   9.702  70.637  1.00  0.00    -0.385 A  
HETATM    8  C   UNL     1     -12.345   9.192  71.310  1.00  0.00    -0.382 A  
BRANCH   4   9
HETATM    9  C   UNL     1      -8.310   7.969  72.506  1.00  0.00    -0.211 C  
HETATM   10  C   UNL     1      -7.310   8.811  71.662  1.00  0.00    -0.098 C  
HETATM   11  C   UNL     1      -8.095   8.217  74.025  1.00  0.00    -0.312 C  
HETATM   12  C   UNL     1      -6.266   6.512  74.177  1.00  0.00    -0.065 C  
HETATM   13  C   UNL     1      -5.717   8.891  73.591  1.00  0.00    -0.107 C  
HETATM   14  C   UNL     1      -6.630   7.980  74.429  1.00  0.00    -0.133 C  
HETATM   15  C   UNL     1      -6.439   6.189  72.689  1.00  0.00    -0.063 C  
HETATM   16  C   UNL     1      -5.855   8.556  72.097  1.00  0.00    -0.059 C  
HETATM   17  C   UNL     1      -5.497   7.080  71.870  1.00  0.00    -0.036 C  
HETATM   18  C   UNL     1      -7.894   6.468  72.265  1.00  0.00    -0.101 C  
ENDBRANCH   4   9
BRANCH   7  19
HETATM   19  C   UNL     1     -11.366  10.747  69.603  1.00  0.00    -0.362 A  
HETATM   20  C   UNL     1     -11.974  13.711  66.637  1.00  0.00    -0.458 A  
HETATM   21  C   UNL     1     -11.274  11.463  67.259  1.00  0.00    -0.370 A  
HETATM   22  C   UNL     1     -11.989  13.024  68.971  1.00  0.00    -0.312 A  
HETATM   23  C   UNL     1     -11.819  12.036  69.937  1.00  0.00    -0.405 A  
HETATM   24  C   UNL     1     -11.078  10.489  68.253  1.00  0.00    -0.340 A  
HETATM   25  C   UNL     1     -11.738  12.746  67.625  1.00  0.00    -0.422 A  
HETATM   26  C   UNL     1     -11.750  13.410  65.290  1.00  0.00    -0.346 A  
HETATM   27  C   UNL     1     -11.295  12.139  64.926  1.00  0.00    -0.378 A  
HETATM   28  C   UNL     1     -12.057  14.380  64.210  1.00  0.00    -0.436 C  
HETATM   29  O   UNL     1     -12.422  14.035  63.100  1.00  0.00    -0.733 OA 
HETATM   30  C   UNL     1     -11.047  11.175  65.905  1.00  0.00    -0.105 A  
HETATM   31  O   UNL     1     -11.866  15.670  64.557  1.00  0.00    -0.325 OA 
ENDBRANCH   7  19
ENDBRANCH   2   3
TORSDOF 3
ENDMDL
MODEL       13
REMARK 921   NORMALIZED FREE ENERGY PREDICTED BY IDOCK:   -7.54 KCAL/MOL
REMARK 922        TOTAL FREE ENERGY PREDICTED BY IDOCK:   -9.65 KCAL/MOL
REMARK 923 INTER-LIGAND FREE ENERGY PREDICTED BY IDOCK:   -8.93 KCAL/MOL
REMARK 924 INTRA-LIGAND FREE ENERGY PREDICTED BY IDOCK:   -0.72 KCAL/MOL
REMARK 927      BINDING AFFINITY PREDICTED BY RF-SCORE:    0.00 PKD
ROOT
HETATM    1  C   UNL     1     -13.162  15.515  71.386  1.00  0.00    -0.510 C  
HETATM    2  O   UNL     1     -12.975  14.673  70.245  1.00  0.00    -0.285 OA 
ENDROOT
BRANCH   2   3
HETATM    3  C   UNL     1     -12.614  13.372  70.502  1.00  0.00    -0.211 A  
HETATM    4  C   UNL     1     -11.717  12.720  69.613  1.00  0.00    -0.372 A  
HETATM    5  C   UNL     1     -11.373  11.389  69.932  1.00  0.00    -0.300 A  
HETATM    6  C   UNL     1     -13.152  12.672  71.594  1.00  0.00    -0.421 A  
HETATM    7  C   UNL     1     -11.919  10.670  71.010  1.00  0.00    -0.442 A  
HETATM    8  C   UNL     1     -12.818  11.343  71.837  1.00  0.00    -0.381 A  
BRANCH   4   9
HETATM    9  C   UNL     1     -11.164  13.355  68.313  1.00  0.00    -0.310 C  
HETATM   10  C   UNL     1     -10.347  14.632  68.667  1.00  0.00    -0.246 C  
HETATM   11  C   UNL     1     -10.294  12.348  67.510  1.00  0.00    -0.223 C  
HETATM   12  C   UNL     1     -10.776  13.472  65.324  1.00  0.00    -0.328 C  
HETATM   13  C   UNL     1      -8.829  14.225  66.719  1.00  0.00    -0.207 C  
HETATM   14  C   UNL     1      -9.664  13.012  66.275  1.00  0.00    -0.265 C  
HETATM   15  C   UNL     1     -11.676  14.485  66.040  1.00  0.00    -0.347 C  
HETATM   16  C   UNL     1      -9.724  15.266  67.409  1.00  0.00    -0.208 C  
HETATM   17  C   UNL     1     -10.837  15.703  66.445  1.00  0.00    -0.252 C  
HETATM   18  C   UNL     1     -12.275  13.842  67.305  1.00  0.00    -0.315 C  
ENDBRANCH   4   9
BRANCH   7  19
HETATM   19  C   UNL     1     -11.594   9.246  71.212  1.00  0.00    -0.419 A  
HETATM   20  C   UNL     1     -10.446   5.220  71.866  1.00  0.00    -0.282 A  
HETATM   21  C   UNL     1     -10.866   7.071  70.341  1.00  0.00    -0.283 A  
HETATM   22  C   UNL     1     -11.243   7.353  72.719  1.00  0.00    -0.380 A  
HETATM   23  C   UNL     1     -11.588   8.686  72.502  1.00  0.00    -0.310 A  
HETATM   24  C   UNL     1     -11.248   8.409  70.139  1.00  0.00    -0.136 A  
HETATM   25  C   UNL     1     -10.862   6.540  71.650  1.00  0.00    -0.281 A  
HETATM   26  C   UNL     1     -10.035   4.425  70.791  1.00  0.00    -0.247 A  
HETATM   27  C   UNL     1     -10.035   4.951  69.495  1.00  0.00    -0.295 A  
HETATM   28  C   UNL     1      -9.519   3.047  70.988  1.00  0.00    -0.158 C  
HETATM   29  O   UNL     1      -8.672   2.553  70.265  1.00  0.00    -0.060 OA 
HETATM   30  C   UNL     1     -10.458   6.262  69.270  1.00  0.00    -0.298 A  
HETATM   31  O   UNL     1     -10.092   2.386  72.015  1.00  0.00    -0.162 OA 
ENDBRANCH   7  19
ENDBRANCH   2   3
TORSDOF 3
ENDMDL
MODEL       14
REMARK 921   NORMALIZED FREE ENERGY PREDICTED BY IDOCK:   -7.53 KCAL/MOL
REMARK 922        TOTAL FREE ENERGY PREDICTED BY IDOCK:   -9.65 KCAL/MOL
REMARK 923 INTER-LIGAND FREE ENERGY PREDICTED BY IDOCK:   -8.93 KCAL/MOL
REMARK 924 INTRA-LIGAND FREE ENERGY PREDICTED BY IDOCK:   -0.72 KCAL/MOL
REMARK 927      BINDING AFFINITY PREDICTED BY RF-SCORE:    0.00 PKD
ROOT
HETATM    1  C   UNL     1     -13.292  15.637  71.443  1.00  0.00    -0.433 C  
HETATM    2  O   UNL     1     -13.031  14.764  70.341  1.00  0.00    -0.322 OA 
ENDROOT
BRANCH   2   3
HETATM    3  C   UNL     1     -12.752  13.456  70.654  1.00  0.00    -0.176 A  
HETATM    4  C   UNL     1     -11.816  12.743  69.858  1.00  0.00    -0.371 A  
HETATM    5  C   UNL     1     -11.561  11.406  70.233  1.00  0.00    -0.334 A  
HETATM    6  C   UNL     1     -13.410  12.808  71.713  1.00  0.00    -0.436 A  
HETATM    7  C   UNL     1     -12.226  10.739  71.276  1.00  0.00    -0.426 A  
HETATM    8  C   UNL     1     -13.159  11.471  72.010  1.00  0.00    -0.430 A  
BRANCH   4   9
HETATM    9  C   UNL     1     -11.129  13.321  68.595  1.00  0.00    -0.301 C  
HETATM   10  C   UNL     1      -9.977  12.371  68.152  1.00  0.00    -0.215 C  
HETATM   11  C   UNL     1     -12.144  13.533  67.438  1.00  0.00    -0.360 C  
HETATM   12  C   UNL     1     -10.790  15.374  66.412  1.00  0.00    -0.303 C  
HETATM   13  C   UNL     1     -10.363  12.987  65.757  1.00  0.00    -0.296 C  
HETATM   14  C   UNL     1     -11.441  14.009  66.156  1.00  0.00    -0.350 C  
HETATM   15  C   UNL     1      -9.758  15.246  67.538  1.00  0.00    -0.204 C  
HETATM   16  C   UNL     1      -9.301  12.873  66.863  1.00  0.00    -0.240 C  
HETATM   17  C   UNL     1      -8.671  14.251  67.111  1.00  0.00    -0.243 C  
HETATM   18  C   UNL     1     -10.446  14.725  68.814  1.00  0.00    -0.250 C  
ENDBRANCH   4   9
BRANCH   7  19
HETATM   19  C   UNL     1     -11.984   9.308  71.535  1.00  0.00    -0.439 A  
HETATM   20  C   UNL     1     -11.404   5.218  72.482  1.00  0.00    -0.245 A  
HETATM   21  C   UNL     1     -10.534   7.486  72.308  1.00  0.00    -0.275 A  
HETATM   22  C   UNL     1     -12.816   7.011  71.640  1.00  0.00    -0.408 A  
HETATM   23  C   UNL     1     -13.011   8.362  71.362  1.00  0.00    -0.248 A  
HETATM   24  C   UNL     1     -10.741   8.840  71.991  1.00  0.00    -0.417 A  
HETATM   25  C   UNL     1     -11.588   6.563  72.132  1.00  0.00    -0.349 A  
HETATM   26  C   UNL     1     -10.180   4.787  73.004  1.00  0.00    -0.218 A  
HETATM   27  C   UNL     1      -9.138   5.702  73.182  1.00  0.00    -0.126 A  
HETATM   28  C   UNL     1      -9.970   3.388  73.453  1.00  0.00    -0.116 C  
HETATM   29  O   UNL     1      -9.225   3.098  74.372  1.00  0.00    -0.084 OA 
HETATM   30  C   UNL     1      -9.309   7.040  72.827  1.00  0.00    -0.158 A  
HETATM   31  O   UNL     1     -10.653   2.471  72.737  1.00  0.00    -0.157 OA 
ENDBRANCH   7  19
ENDBRANCH   2   3
TORSDOF 3
ENDMDL
MODEL       15
REMARK 921   NORMALIZED FREE ENERGY PREDICTED BY IDOCK:   -7.53 KCAL/MOL
REMARK 922        TOTAL FREE ENERGY PREDICTED BY IDOCK:   -9.64 KCAL/MOL
REMARK 923 INTER-LIGAND FREE ENERGY PREDICTED BY IDOCK:   -8.84 KCAL/MOL
REMARK 924 INTRA-LIGAND FREE ENERGY PREDICTED BY IDOCK:   -0.80 KCAL/MOL
REMARK 927      BINDING AFFINITY PREDICTED BY RF-SCORE:    0.00 PKD
ROOT
HETATM    1  C   UNL     1     -10.257   4.994  66.983  1.00  0.00    -0.208 C  
HETATM    2  O   UNL     1      -9.738   5.928  67.934  1.00  0.00    -0.113 OA 
ENDROOT
BRANCH   2   3
HETATM    3  C   UNL     1      -9.814   7.255  67.586  1.00  0.00    -0.151 A  
HETATM    4  C   UNL     1     -10.167   8.206  68.580  1.00  0.00    -0.233 A  
HETATM    5  C   UNL     1     -10.218   9.556  68.168  1.00  0.00    -0.231 A  
HETATM    6  C   UNL     1      -9.594   7.671  66.262  1.00  0.00    -0.155 A  
HETATM    7  C   UNL     1     -10.021   9.984  66.844  1.00  0.00    -0.263 A  
HETATM    8  C   UNL     1      -9.707   9.010  65.897  1.00  0.00    -0.306 A  
BRANCH   4   9
HETATM    9  C   UNL     1     -10.551   7.843  70.036  1.00  0.00    -0.242 C  
HETATM   10  C   UNL     1     -10.821   9.148  70.841  1.00  0.00    -0.345 C  
HETATM   11  C   UNL     1     -11.785   6.900  70.083  1.00  0.00    -0.306 C  
HETATM   12  C   UNL     1     -11.098   5.895  72.273  1.00  0.00    -0.330 C  
HETATM   13  C   UNL     1     -12.528   7.959  72.233  1.00  0.00    -0.265 C  
HETATM   14  C   UNL     1     -12.225   6.625  71.531  1.00  0.00    -0.391 C  
HETATM   15  C   UNL     1      -9.841   6.771  72.283  1.00  0.00    -0.166 C  
HETATM   16  C   UNL     1     -11.266   8.836  72.282  1.00  0.00    -0.343 C  
HETATM   17  C   UNL     1     -10.149   8.082  73.018  1.00  0.00    -0.351 C  
HETATM   18  C   UNL     1      -9.420   7.090  70.836  1.00  0.00    -0.160 C  
ENDBRANCH   4   9
BRANCH   7  19
HETATM   19  C   UNL     1     -10.202  11.400  66.472  1.00  0.00    -0.259 A  
HETATM   20  C   UNL     1     -10.493  15.475  65.346  1.00  0.00    -0.429 A  
HETATM   21  C   UNL     1     -10.364  13.771  67.081  1.00  0.00    -0.261 A  
HETATM   22  C   UNL     1     -10.412  13.119  64.746  1.00  0.00    -0.390 A  
HETATM   23  C   UNL     1     -10.283  11.783  65.121  1.00  0.00    -0.309 A  
HETATM   24  C   UNL     1     -10.267  12.415  67.440  1.00  0.00    -0.215 A  
HETATM   25  C   UNL     1     -10.435  14.124  65.716  1.00  0.00    -0.320 A  
HETATM   26  C   UNL     1     -10.483  16.474  66.325  1.00  0.00    -0.285 A  
HETATM   27  C   UNL     1     -10.409  16.125  67.677  1.00  0.00    -0.288 A  
HETATM   28  C   UNL     1     -10.471  17.915  65.972  1.00  0.00    -0.293 C  
HETATM   29  O   UNL     1      -9.917  18.756  66.659  1.00  0.00    -0.322 OA 
HETATM   30  C   UNL     1     -10.362  14.781  68.054  1.00  0.00    -0.237 A  
HETATM   31  O   UNL     1     -11.149  18.212  64.844  1.00  0.00    -0.673 OA 
ENDBRANCH   7  19
ENDBRANCH   2   3
TORSDOF 3
ENDMDL
MODEL       16
REMARK 921   NORMALIZED FREE ENERGY PREDICTED BY IDOCK:   -7.46 KCAL/MOL
REMARK 922        TOTAL FREE ENERGY PREDICTED BY IDOCK:   -9.56 KCAL/MOL
REMARK 923 INTER-LIGAND FREE ENERGY PREDICTED BY IDOCK:   -8.94 KCAL/MOL
REMARK 924 INTRA-LIGAND FREE ENERGY PREDICTED BY IDOCK:   -0.62 KCAL/MOL
REMARK 927      BINDING AFFINITY PREDICTED BY RF-SCORE:    0.00 PKD
ROOT
HETATM    1  C   UNL     1      -9.494   3.932  67.748  1.00  0.00    -0.179 C  
HETATM    2  O   UNL     1      -8.962   5.040  68.478  1.00  0.00    -0.103 OA 
ENDROOT
BRANCH   2   3
HETATM    3  C   UNL     1      -9.194   6.286  67.948  1.00  0.00    -0.116 A  
HETATM    4  C   UNL     1      -9.653   7.322  68.805  1.00  0.00    -0.142 A  
HETATM    5  C   UNL     1      -9.864   8.584  68.208  1.00  0.00    -0.190 A  
HETATM    6  C   UNL     1      -9.030   6.532  66.575  1.00  0.00    -0.152 A  
HETATM    7  C   UNL     1      -9.723   8.839  66.833  1.00  0.00    -0.273 A  
HETATM    8  C   UNL     1      -9.300   7.783  66.027  1.00  0.00    -0.102 A  
BRANCH   4   9
HETATM    9  C   UNL     1      -9.987   7.128  70.305  1.00  0.00    -0.191 C  
HETATM   10  C   UNL     1      -8.855   6.305  70.985  1.00  0.00    -0.136 C  
HETATM   11  C   UNL     1     -10.189   8.490  71.027  1.00  0.00    -0.255 C  
HETATM   12  C   UNL     1     -11.711   7.499  72.752  1.00  0.00    -0.232 C  
HETATM   13  C   UNL     1      -9.229   7.528  73.136  1.00  0.00    -0.244 C  
HETATM   14  C   UNL     1     -10.419   8.296  72.534  1.00  0.00    -0.406 C  
HETATM   15  C   UNL     1     -11.587   6.128  72.079  1.00  0.00    -0.364 C  
HETATM   16  C   UNL     1      -9.112   6.137  72.494  1.00  0.00    -0.138 C  
HETATM   17  C   UNL     1     -10.420   5.361  72.714  1.00  0.00    -0.255 C  
HETATM   18  C   UNL     1     -11.310   6.313  70.575  1.00  0.00    -0.428 C  
ENDBRANCH   4   9
BRANCH   7  19
HETATM   19  C   UNL     1     -10.070  10.157  66.268  1.00  0.00    -0.303 A  
HETATM   20  C   UNL     1     -10.843  13.966  64.580  1.00  0.00    -0.420 A  
HETATM   21  C   UNL     1     -10.486  12.560  66.536  1.00  0.00    -0.258 A  
HETATM   22  C   UNL     1     -10.510  11.570  64.322  1.00  0.00    -0.393 A  
HETATM   23  C   UNL     1     -10.223  10.326  64.880  1.00  0.00    -0.261 A  
HETATM   24  C   UNL     1     -10.228  11.290  67.082  1.00  0.00    -0.235 A  
HETATM   25  C   UNL     1     -10.625  12.698  65.137  1.00  0.00    -0.324 A  
HETATM   26  C   UNL     1     -10.924  15.094  65.404  1.00  0.00    -0.381 A  
HETATM   27  C   UNL     1     -10.782  14.957  66.788  1.00  0.00    -0.312 A  
HETATM   28  C   UNL     1     -11.082  16.460  64.847  1.00  0.00    -0.239 C  
HETATM   29  O   UNL     1     -10.612  17.447  65.384  1.00  0.00    -0.638 OA 
HETATM   30  C   UNL     1     -10.576  13.697  67.352  1.00  0.00    -0.260 A  
HETATM   31  O   UNL     1     -11.814  16.513  63.715  1.00  0.00    -1.011 OA 
ENDBRANCH   7  19
ENDBRANCH   2   3
TORSDOF 3
ENDMDL
MODEL       17
REMARK 921   NORMALIZED FREE ENERGY PREDICTED BY IDOCK:   -7.44 KCAL/MOL
REMARK 922        TOTAL FREE ENERGY PREDICTED BY IDOCK:   -9.53 KCAL/MOL
REMARK 923 INTER-LIGAND FREE ENERGY PREDICTED BY IDOCK:   -8.88 KCAL/MOL
REMARK 924 INTRA-LIGAND FREE ENERGY PREDICTED BY IDOCK:   -0.65 KCAL/MOL
REMARK 927      BINDING AFFINITY PREDICTED BY RF-SCORE:    0.00 PKD
ROOT
HETATM    1  C   UNL     1     -12.353  15.445  64.012  1.00  0.00     0.116 C  
HETATM    2  O   UNL     1     -11.241  15.463  64.910  1.00  0.00    -0.401 OA 
ENDROOT
BRANCH   2   3
HETATM    3  C   UNL     1     -11.265  14.537  65.925  1.00  0.00    -0.331 A  
HETATM    4  C   UNL     1     -10.583  14.830  67.137  1.00  0.00    -0.285 A  
HETATM    5  C   UNL     1     -10.650  13.847  68.149  1.00  0.00    -0.258 A  
HETATM    6  C   UNL     1     -11.909  13.300  65.764  1.00  0.00    -0.428 A  
HETATM    7  C   UNL     1     -11.274  12.597  67.994  1.00  0.00    -0.308 A  
HETATM    8  C   UNL     1     -11.904  12.344  66.776  1.00  0.00    -0.385 A  
BRANCH   4   9
HETATM    9  C   UNL     1      -9.738  16.106  67.375  1.00  0.00    -0.233 C  
HETATM   10  C   UNL     1      -8.664  16.232  66.254  1.00  0.00    -0.370 C  
HETATM   11  C   UNL     1     -10.628  17.379  67.432  1.00  0.00    -0.308 C  
HETATM   12  C   UNL     1      -9.003  18.608  68.890  1.00  0.00    -0.215 C  
HETATM   13  C   UNL     1      -8.787  18.729  66.391  1.00  0.00    -0.298 C  
HETATM   14  C   UNL     1      -9.777  18.652  67.566  1.00  0.00    -0.336 C  
HETATM   15  C   UNL     1      -8.085  17.381  68.906  1.00  0.00    -0.183 C  
HETATM   16  C   UNL     1      -7.836  17.521  66.414  1.00  0.00    -0.329 C  
HETATM   17  C   UNL     1      -7.082  17.490  67.751  1.00  0.00    -0.187 C  
HETATM   18  C   UNL     1      -8.926  16.103  68.727  1.00  0.00    -0.236 C  
ENDBRANCH   4   9
BRANCH   7  19
HETATM   19  C   UNL     1     -11.206  11.580  69.060  1.00  0.00    -0.324 A  
HETATM   20  C   UNL     1     -10.963   8.831  72.275  1.00  0.00    -0.336 A  
HETATM   21  C   UNL     1      -9.975   9.858  70.301  1.00  0.00    -0.261 A  
HETATM   22  C   UNL     1     -12.212  10.481  70.998  1.00  0.00    -0.505 A  
HETATM   23  C   UNL     1     -12.274  11.407  69.959  1.00  0.00    -0.377 A  
HETATM   24  C   UNL     1     -10.069  10.775  69.239  1.00  0.00    -0.200 A  
HETATM   25  C   UNL     1     -11.061   9.714  71.191  1.00  0.00    -0.444 A  
HETATM   26  C   UNL     1      -9.792   8.092  72.478  1.00  0.00    -0.330 A  
HETATM   27  C   UNL     1      -8.715   8.237  71.598  1.00  0.00    -0.213 A  
HETATM   28  C   UNL     1      -9.623   7.202  73.653  1.00  0.00    -0.246 C  
HETATM   29  O   UNL     1      -8.540   7.005  74.178  1.00  0.00    -0.142 OA 
HETATM   30  C   UNL     1      -8.809   9.106  70.510  1.00  0.00    -0.263 A  
HETATM   31  O   UNL     1     -10.763   6.611  74.067  1.00  0.00    -0.262 OA 
ENDBRANCH   7  19
ENDBRANCH   2   3
TORSDOF 3
ENDMDL
MODEL       18
REMARK 921   NORMALIZED FREE ENERGY PREDICTED BY IDOCK:   -7.43 KCAL/MOL
REMARK 922        TOTAL FREE ENERGY PREDICTED BY IDOCK:   -9.52 KCAL/MOL
REMARK 923 INTER-LIGAND FREE ENERGY PREDICTED BY IDOCK:   -8.80 KCAL/MOL
REMARK 924 INTRA-LIGAND FREE ENERGY PREDICTED BY IDOCK:   -0.73 KCAL/MOL
REMARK 927      BINDING AFFINITY PREDICTED BY RF-SCORE:    0.00 PKD
ROOT
HETATM    1  C   UNL     1     -10.465   7.080  73.527  1.00  0.00    -0.375 C  
HETATM    2  O   UNL     1     -10.973   6.766  72.228  1.00  0.00    -0.228 OA 
ENDROOT
BRANCH   2   3
HETATM    3  C   UNL     1     -11.059   7.810  71.339  1.00  0.00    -0.238 A  
HETATM    4  C   UNL     1     -10.425   7.689  70.074  1.00  0.00    -0.229 A  
HETATM    5  C   UNL     1     -10.554   8.788  69.197  1.00  0.00    -0.200 A  
HETATM    6  C   UNL     1     -11.718   9.003  71.682  1.00  0.00    -0.431 A  
HETATM    7  C   UNL     1     -11.194   9.994  69.534  1.00  0.00    -0.254 A  
HETATM    8  C   UNL     1     -11.774  10.078  70.800  1.00  0.00    -0.437 A  
BRANCH   4   9
HETATM    9  C   UNL     1      -9.568   6.473  69.642  1.00  0.00    -0.155 C  
HETATM   10  C   UNL     1      -8.306   6.380  70.549  1.00  0.00    -0.129 C  
HETATM   11  C   UNL     1     -10.383   5.151  69.695  1.00  0.00    -0.316 C  
HETATM   12  C   UNL     1      -8.982   4.061  67.927  1.00  0.00    -0.152 C  
HETATM   13  C   UNL     1      -8.315   3.886  70.342  1.00  0.00    -0.080 C  
HETATM   14  C   UNL     1      -9.502   3.935  69.365  1.00  0.00    -0.260 C  
HETATM   15  C   UNL     1      -8.150   5.341  67.794  1.00  0.00    -0.099 C  
HETATM   16  C   UNL     1      -7.451   5.149  70.196  1.00  0.00    -0.063 C  
HETATM   17  C   UNL     1      -6.952   5.261  68.748  1.00  0.00    -0.060 C  
HETATM   18  C   UNL     1      -9.013   6.561  68.168  1.00  0.00    -0.116 C  
ENDBRANCH   4   9
BRANCH   7  19
HETATM   19  C   UNL     1     -11.190  11.138  68.604  1.00  0.00    -0.314 A  
HETATM   20  C   UNL     1     -10.953  14.379  65.884  1.00  0.00    -0.312 A  
HETATM   21  C   UNL     1     -11.010  13.547  68.172  1.00  0.00    -0.275 A  
HETATM   22  C   UNL     1     -11.211  11.999  66.316  1.00  0.00    -0.394 A  
HETATM   23  C   UNL     1     -11.255  10.935  67.214  1.00  0.00    -0.307 A  
HETATM   24  C   UNL     1     -11.088  12.462  69.063  1.00  0.00    -0.288 A  
HETATM   25  C   UNL     1     -11.070  13.308  66.781  1.00  0.00    -0.313 A  
HETATM   26  C   UNL     1     -10.779  15.682  66.361  1.00  0.00    -0.291 A  
HETATM   27  C   UNL     1     -10.716  15.918  67.738  1.00  0.00    -0.320 A  
HETATM   28  C   UNL     1     -10.579  16.831  65.443  1.00  0.00    -0.203 C  
HETATM   29  O   UNL     1      -9.897  17.797  65.738  1.00  0.00    -0.541 OA 
HETATM   30  C   UNL     1     -10.841  14.859  68.638  1.00  0.00    -0.253 A  
HETATM   31  O   UNL     1     -11.242  16.724  64.273  1.00  0.00    -1.163 OA 
ENDBRANCH   7  19
ENDBRANCH   2   3
TORSDOF 3
ENDMDL
MODEL       19
REMARK 921   NORMALIZED FREE ENERGY PREDICTED BY IDOCK:   -7.42 KCAL/MOL
REMARK 922        TOTAL FREE ENERGY PREDICTED BY IDOCK:   -9.51 KCAL/MOL
REMARK 923 INTER-LIGAND FREE ENERGY PREDICTED BY IDOCK:   -8.79 KCAL/MOL
REMARK 924 INTRA-LIGAND FREE ENERGY PREDICTED BY IDOCK:   -0.72 KCAL/MOL
REMARK 927      BINDING AFFINITY PREDICTED BY RF-SCORE:    0.00 PKD
ROOT
HETATM    1  C   UNL     1      -8.817   6.119  66.845  1.00  0.00    -0.117 C  
HETATM    2  O   UNL     1     -10.022   6.764  67.266  1.00  0.00    -0.136 OA 
ENDROOT
BRANCH   2   3
HETATM    3  C   UNL     1     -10.032   8.137  67.198  1.00  0.00    -0.236 A  
HETATM    4  C   UNL     1     -10.245   8.881  68.389  1.00  0.00    -0.231 A  
HETATM    5  C   UNL     1     -10.234  10.288  68.261  1.00  0.00    -0.184 A  
HETATM    6  C   UNL     1      -9.883   8.804  65.971  1.00  0.00    -0.234 A  
HETATM    7  C   UNL     1     -10.106  10.967  67.038  1.00  0.00    -0.232 A  
HETATM    8  C   UNL     1      -9.931  10.193  65.892  1.00  0.00    -0.334 A  
BRANCH   4   9
HETATM    9  C   UNL     1     -10.544   8.248  69.771  1.00  0.00    -0.228 C  
HETATM   10  C   UNL     1      -9.222   7.707  70.390  1.00  0.00    -0.156 C  
HETATM   11  C   UNL     1     -11.227   9.263  70.729  1.00  0.00    -0.351 C  
HETATM   12  C   UNL     1     -12.375   7.459  72.034  1.00  0.00    -0.301 C  
HETATM   13  C   UNL     1     -10.070   8.209  72.691  1.00  0.00    -0.379 C  
HETATM   14  C   UNL     1     -11.429   8.662  72.130  1.00  0.00    -0.443 C  
HETATM   15  C   UNL     1     -11.763   6.399  71.112  1.00  0.00    -0.359 C  
HETATM   16  C   UNL     1      -9.459   7.121  71.794  1.00  0.00    -0.160 C  
HETATM   17  C   UNL     1     -10.427   5.932  71.702  1.00  0.00    -0.285 C  
HETATM   18  C   UNL     1     -11.515   7.006  69.718  1.00  0.00    -0.177 C  
ENDBRANCH   4   9
BRANCH   7  19
HETATM   19  C   UNL     1     -10.218  12.437  66.973  1.00  0.00    -0.232 A  
HETATM   20  C   UNL     1     -10.301  16.669  66.773  1.00  0.00    -0.295 A  
HETATM   21  C   UNL     1     -10.476  14.615  68.071  1.00  0.00    -0.236 A  
HETATM   22  C   UNL     1     -10.125  14.506  65.674  1.00  0.00    -0.384 A  
HETATM   23  C   UNL     1     -10.065  13.116  65.751  1.00  0.00    -0.290 A  
HETATM   24  C   UNL     1     -10.444  13.211  68.123  1.00  0.00    -0.255 A  
HETATM   25  C   UNL     1     -10.311  15.268  66.830  1.00  0.00    -0.279 A  
HETATM   26  C   UNL     1     -10.456  17.422  67.942  1.00  0.00    -0.383 A  
HETATM   27  C   UNL     1     -10.615  16.776  69.172  1.00  0.00    -0.343 A  
HETATM   28  C   UNL     1     -10.379  18.904  67.933  1.00  0.00    -0.404 C  
HETATM   29  O   UNL     1      -9.949  19.545  68.876  1.00  0.00    -0.439 OA 
HETATM   30  C   UNL     1     -10.636  15.382  69.235  1.00  0.00    -0.252 A  
HETATM   31  O   UNL     1     -10.855  19.474  66.807  1.00  0.00    -0.460 OA 
ENDBRANCH   7  19
ENDBRANCH   2   3
TORSDOF 3
ENDMDL
MODEL       20
REMARK 921   NORMALIZED FREE ENERGY PREDICTED BY IDOCK:   -7.36 KCAL/MOL
REMARK 922        TOTAL FREE ENERGY PREDICTED BY IDOCK:   -9.44 KCAL/MOL
REMARK 923 INTER-LIGAND FREE ENERGY PREDICTED BY IDOCK:   -8.78 KCAL/MOL
REMARK 924 INTRA-LIGAND FREE ENERGY PREDICTED BY IDOCK:   -0.66 KCAL/MOL
REMARK 927      BINDING AFFINITY PREDICTED BY RF-SCORE:    0.00 PKD
ROOT
HETATM    1  C   UNL     1      -9.047   6.580  66.790  1.00  0.00    -0.144 C  
HETATM    2  O   UNL     1     -10.238   7.182  67.303  1.00  0.00    -0.194 OA 
ENDROOT
BRANCH   2   3
HETATM    3  C   UNL     1     -10.217   8.549  67.441  1.00  0.00    -0.261 A  
HETATM    4  C   UNL     1     -10.312   9.110  68.743  1.00  0.00    -0.235 A  
HETATM    5  C   UNL     1     -10.275  10.519  68.825  1.00  0.00    -0.205 A  
HETATM    6  C   UNL     1     -10.151   9.391  66.318  1.00  0.00    -0.328 A  
HETATM    7  C   UNL     1     -10.229  11.373  67.710  1.00  0.00    -0.202 A  
HETATM    8  C   UNL     1     -10.168  10.777  66.451  1.00  0.00    -0.294 A  
BRANCH   4   9
HETATM    9  C   UNL     1     -10.515   8.280  70.036  1.00  0.00    -0.231 C  
HETATM   10  C   UNL     1     -10.988   9.219  71.184  1.00  0.00    -0.409 C  
HETATM   11  C   UNL     1     -11.527   7.121  69.819  1.00  0.00    -0.097 C  
HETATM   12  C   UNL     1     -10.503   5.715  71.621  1.00  0.00    -0.286 C  
HETATM   13  C   UNL     1     -12.320   7.352  72.187  1.00  0.00    -0.239 C  
HETATM   14  C   UNL     1     -11.802   6.364  71.129  1.00  0.00    -0.325 C  
HETATM   15  C   UNL     1      -9.451   6.800  71.874  1.00  0.00    -0.146 C  
HETATM   16  C   UNL     1     -11.262   8.428  72.477  1.00  0.00    -0.406 C  
HETATM   17  C   UNL     1      -9.968   7.755  72.957  1.00  0.00    -0.356 C  
HETATM   18  C   UNL     1      -9.203   7.593  70.577  1.00  0.00    -0.159 C  
ENDBRANCH   4   9
BRANCH   7  19
HETATM   19  C   UNL     1     -10.306  12.836  67.874  1.00  0.00    -0.228 A  
HETATM   20  C   UNL     1     -10.743  17.034  68.251  1.00  0.00    -0.372 A  
HETATM   21  C   UNL     1      -9.807  15.108  67.092  1.00  0.00    -0.228 A  
HETATM   22  C   UNL     1     -11.172  14.784  69.070  1.00  0.00    -0.286 A  
HETATM   23  C   UNL     1     -11.052  13.404  68.922  1.00  0.00    -0.307 A  
HETATM   24  C   UNL     1      -9.671  13.713  66.979  1.00  0.00    -0.251 A  
HETATM   25  C   UNL     1     -10.570  15.647  68.151  1.00  0.00    -0.274 A  
HETATM   26  C   UNL     1     -10.163  17.887  67.306  1.00  0.00    -0.360 A  
HETATM   27  C   UNL     1      -9.410  17.353  66.255  1.00  0.00    -0.240 A  
HETATM   28  C   UNL     1     -10.383  19.354  67.336  1.00  0.00    -0.446 C  
HETATM   29  O   UNL     1     -10.412  20.035  66.326  1.00  0.00    -0.454 OA 
HETATM   30  C   UNL     1      -9.224  15.973  66.155  1.00  0.00    -0.388 A  
HETATM   31  O   UNL     1     -10.517  19.866  68.577  1.00  0.00    -0.423 OA 
ENDBRANCH   7  19
ENDBRANCH   2   3
TORSDOF 3
ENDMDL
MODEL       21
REMARK 921   NORMALIZED FREE ENERGY PREDICTED BY IDOCK:   -7.32 KCAL/MOL
REMARK 922        TOTAL FREE ENERGY PREDICTED BY IDOCK:   -9.39 KCAL/MOL
REMARK 923 INTER-LIGAND FREE ENERGY PREDICTED BY IDOCK:   -8.78 KCAL/MOL
REMARK 924 INTRA-LIGAND FREE ENERGY PREDICTED BY IDOCK:   -0.61 KCAL/MOL
REMARK 927      BINDING AFFINITY PREDICTED BY RF-SCORE:    0.00 PKD
ROOT
HETATM    1  C   UNL     1      -9.303   6.497  66.468  1.00  0.00    -0.159 C  
HETATM    2  O   UNL     1     -10.288   7.069  67.333  1.00  0.00    -0.191 OA 
ENDROOT
BRANCH   2   3
HETATM    3  C   UNL     1     -10.275   8.438  67.447  1.00  0.00    -0.260 A  
HETATM    4  C   UNL     1     -10.313   9.019  68.744  1.00  0.00    -0.236 A  
HETATM    5  C   UNL     1     -10.287  10.429  68.801  1.00  0.00    -0.213 A  
HETATM    6  C   UNL     1     -10.273   9.261  66.309  1.00  0.00    -0.273 A  
HETATM    7  C   UNL     1     -10.304  11.265  67.671  1.00  0.00    -0.212 A  
HETATM    8  C   UNL     1     -10.298  10.649  66.420  1.00  0.00    -0.291 A  
BRANCH   4   9
HETATM    9  C   UNL     1     -10.443   8.209  70.057  1.00  0.00    -0.231 C  
HETATM   10  C   UNL     1      -9.045   7.665  70.472  1.00  0.00    -0.151 C  
HETATM   11  C   UNL     1     -11.063   9.065  71.198  1.00  0.00    -0.371 C  
HETATM   12  C   UNL     1     -11.999   7.060  72.372  1.00  0.00    -0.179 C  
HETATM   13  C   UNL     1      -9.670   7.842  72.889  1.00  0.00    -0.339 C  
HETATM   14  C   UNL     1     -11.096   8.290  72.525  1.00  0.00    -0.439 C  
HETATM   15  C   UNL     1     -11.445   6.151  71.269  1.00  0.00    -0.311 C  
HETATM   16  C   UNL     1      -9.113   6.903  71.808  1.00  0.00    -0.138 C  
HETATM   17  C   UNL     1     -10.038   5.685  71.663  1.00  0.00    -0.245 C  
HETATM   18  C   UNL     1     -11.365   6.935  69.945  1.00  0.00    -0.321 C  
ENDBRANCH   4   9
BRANCH   7  19
HETATM   19  C   UNL     1     -10.388  12.731  67.815  1.00  0.00    -0.222 A  
HETATM   20  C   UNL     1     -10.837  16.934  68.114  1.00  0.00    -0.351 A  
HETATM   21  C   UNL     1      -9.803  14.993  67.068  1.00  0.00    -0.241 A  
HETATM   22  C   UNL     1     -11.356  14.693  68.905  1.00  0.00    -0.305 A  
HETATM   23  C   UNL     1     -11.230  13.311  68.781  1.00  0.00    -0.317 A  
HETATM   24  C   UNL     1      -9.665  13.597  66.979  1.00  0.00    -0.251 A  
HETATM   25  C   UNL     1     -10.663  15.545  68.043  1.00  0.00    -0.283 A  
HETATM   26  C   UNL     1     -10.162  17.775  67.223  1.00  0.00    -0.350 A  
HETATM   27  C   UNL     1      -9.314  17.229  66.255  1.00  0.00    -0.248 A  
HETATM   28  C   UNL     1     -10.376  19.244  67.220  1.00  0.00    -0.436 C  
HETATM   29  O   UNL     1     -10.303  19.916  66.206  1.00  0.00    -0.459 OA 
HETATM   30  C   UNL     1      -9.126  15.847  66.185  1.00  0.00    -0.385 A  
HETATM   31  O   UNL     1     -10.628  19.767  68.437  1.00  0.00    -0.372 OA 
ENDBRANCH   7  19
ENDBRANCH   2   3
TORSDOF 3
ENDMDL
MODEL       22
REMARK 921   NORMALIZED FREE ENERGY PREDICTED BY IDOCK:   -7.23 KCAL/MOL
REMARK 922        TOTAL FREE ENERGY PREDICTED BY IDOCK:   -9.29 KCAL/MOL
REMARK 923 INTER-LIGAND FREE ENERGY PREDICTED BY IDOCK:   -8.55 KCAL/MOL
REMARK 924 INTRA-LIGAND FREE ENERGY PREDICTED BY IDOCK:   -0.74 KCAL/MOL
REMARK 927      BINDING AFFINITY PREDICTED BY RF-SCORE:    0.00 PKD
ROOT
HETATM    1  C   UNL     1      -8.424   6.143  67.455  1.00  0.00    -0.108 C  
HETATM    2  O   UNL     1      -9.733   6.718  67.412  1.00  0.00    -0.126 OA 
ENDROOT
BRANCH   2   3
HETATM    3  C   UNL     1      -9.793   8.088  67.330  1.00  0.00    -0.197 A  
HETATM    4  C   UNL     1     -10.178   8.829  68.479  1.00  0.00    -0.220 A  
HETATM    5  C   UNL     1     -10.212  10.234  68.339  1.00  0.00    -0.189 A  
HETATM    6  C   UNL     1      -9.526   8.755  66.123  1.00  0.00    -0.315 A  
HETATM    7  C   UNL     1      -9.967  10.912  67.133  1.00  0.00    -0.221 A  
HETATM    8  C   UNL     1      -9.622  10.140  66.024  1.00  0.00    -0.265 A  
BRANCH   4   9
HETATM    9  C   UNL     1     -10.615   8.190  69.821  1.00  0.00    -0.231 C  
HETATM   10  C   UNL     1     -11.223   9.287  70.743  1.00  0.00    -0.351 C  
HETATM   11  C   UNL     1     -11.626   7.031  69.601  1.00  0.00    -0.058 C  
HETATM   12  C   UNL     1     -10.955   5.869  71.716  1.00  0.00    -0.327 C  
HETATM   13  C   UNL     1     -12.771   7.603  71.759  1.00  0.00    -0.356 C  
HETATM   14  C   UNL     1     -12.134   6.469  70.939  1.00  0.00    -0.293 C  
HETATM   15  C   UNL     1      -9.913   6.959  71.988  1.00  0.00    -0.179 C  
HETATM   16  C   UNL     1     -11.728   8.689  72.069  1.00  0.00    -0.439 C  
HETATM   17  C   UNL     1     -10.554   8.064  72.837  1.00  0.00    -0.399 C  
HETATM   18  C   UNL     1      -9.433   7.560  70.654  1.00  0.00    -0.164 C  
ENDBRANCH   4   9
BRANCH   7  19
HETATM   19  C   UNL     1     -10.131  12.375  67.041  1.00  0.00    -0.223 A  
HETATM   20  C   UNL     1     -10.372  16.594  66.730  1.00  0.00    -0.295 A  
HETATM   21  C   UNL     1     -10.312  14.581  68.099  1.00  0.00    -0.232 A  
HETATM   22  C   UNL     1     -10.273  14.402  65.681  1.00  0.00    -0.371 A  
HETATM   23  C   UNL     1     -10.160  13.017  65.790  1.00  0.00    -0.294 A  
HETATM   24  C   UNL     1     -10.231  13.180  68.187  1.00  0.00    -0.239 A  
HETATM   25  C   UNL     1     -10.331  15.197  66.828  1.00  0.00    -0.273 A  
HETATM   26  C   UNL     1     -10.397  17.381  67.887  1.00  0.00    -0.369 A  
HETATM   27  C   UNL     1     -10.375  16.772  69.145  1.00  0.00    -0.326 A  
HETATM   28  C   UNL     1     -10.369  18.864  67.825  1.00  0.00    -0.421 C  
HETATM   29  O   UNL     1      -9.840  19.547  68.684  1.00  0.00    -0.398 OA 
HETATM   30  C   UNL     1     -10.344  15.380  69.251  1.00  0.00    -0.253 A  
HETATM   31  O   UNL     1     -11.004  19.383  66.754  1.00  0.00    -0.421 OA 
ENDBRANCH   7  19
ENDBRANCH   2   3
TORSDOF 3
ENDMDL
MODEL       23
REMARK 921   NORMALIZED FREE ENERGY PREDICTED BY IDOCK:   -7.22 KCAL/MOL
REMARK 922        TOTAL FREE ENERGY PREDICTED BY IDOCK:   -9.27 KCAL/MOL
REMARK 923 INTER-LIGAND FREE ENERGY PREDICTED BY IDOCK:   -8.68 KCAL/MOL
REMARK 924 INTRA-LIGAND FREE ENERGY PREDICTED BY IDOCK:   -0.59 KCAL/MOL
REMARK 927      BINDING AFFINITY PREDICTED BY RF-SCORE:    0.00 PKD
ROOT
HETATM    1  C   UNL     1      -9.308   6.075  66.391  1.00  0.00    -0.154 C  
HETATM    2  O   UNL     1      -9.949   6.758  67.471  1.00  0.00    -0.128 OA 
ENDROOT
BRANCH   2   3
HETATM    3  C   UNL     1      -9.972   8.130  67.396  1.00  0.00    -0.209 A  
HETATM    4  C   UNL     1     -10.228   8.878  68.576  1.00  0.00    -0.223 A  
HETATM    5  C   UNL     1     -10.228  10.284  68.442  1.00  0.00    -0.189 A  
HETATM    6  C   UNL     1      -9.793   8.792  66.170  1.00  0.00    -0.297 A  
HETATM    7  C   UNL     1     -10.070  10.959  67.219  1.00  0.00    -0.225 A  
HETATM    8  C   UNL     1      -9.852  10.180  66.083  1.00  0.00    -0.297 A  
BRANCH   4   9
HETATM    9  C   UNL     1     -10.563   8.248  69.951  1.00  0.00    -0.232 C  
HETATM   10  C   UNL     1     -11.542   7.055  69.750  1.00  0.00    -0.122 C  
HETATM   11  C   UNL     1      -9.280   7.789  70.698  1.00  0.00    -0.161 C  
HETATM   12  C   UNL     1     -10.338   8.053  72.953  1.00  0.00    -0.397 C  
HETATM   13  C   UNL     1     -10.542   5.876  71.718  1.00  0.00    -0.286 C  
HETATM   14  C   UNL     1      -9.623   7.073  72.015  1.00  0.00    -0.149 C  
HETATM   15  C   UNL     1     -11.630   8.545  72.292  1.00  0.00    -0.444 C  
HETATM   16  C   UNL     1     -11.858   6.357  71.086  1.00  0.00    -0.325 C  
HETATM   17  C   UNL     1     -12.550   7.345  72.036  1.00  0.00    -0.262 C  
HETATM   18  C   UNL     1     -11.299   9.223  70.949  1.00  0.00    -0.373 C  
ENDBRANCH   4   9
BRANCH   7  19
HETATM   19  C   UNL     1     -10.195  12.426  67.143  1.00  0.00    -0.226 A  
HETATM   20  C   UNL     1     -10.316  16.655  66.905  1.00  0.00    -0.299 A  
HETATM   21  C   UNL     1     -10.435  14.614  68.228  1.00  0.00    -0.236 A  
HETATM   22  C   UNL     1     -10.157  14.483  65.822  1.00  0.00    -0.365 A  
HETATM   23  C   UNL     1     -10.085  13.094  65.911  1.00  0.00    -0.292 A  
HETATM   24  C   UNL     1     -10.392  13.210  68.292  1.00  0.00    -0.256 A  
HETATM   25  C   UNL     1     -10.314  15.256  66.975  1.00  0.00    -0.277 A  
HETATM   26  C   UNL     1     -10.441  17.419  68.071  1.00  0.00    -0.383 A  
HETATM   27  C   UNL     1     -10.557  16.784  69.311  1.00  0.00    -0.336 A  
HETATM   28  C   UNL     1     -10.376  18.902  68.045  1.00  0.00    -0.389 C  
HETATM   29  O   UNL     1      -9.922  19.556  68.967  1.00  0.00    -0.442 OA 
HETATM   30  C   UNL     1     -10.566  15.391  69.388  1.00  0.00    -0.251 A  
HETATM   31  O   UNL     1     -10.890  19.457  66.928  1.00  0.00    -0.460 OA 
ENDBRANCH   7  19
ENDBRANCH   2   3
TORSDOF 3
ENDMDL
MODEL       24
REMARK 921   NORMALIZED FREE ENERGY PREDICTED BY IDOCK:   -7.21 KCAL/MOL
REMARK 922        TOTAL FREE ENERGY PREDICTED BY IDOCK:   -9.26 KCAL/MOL
REMARK 923 INTER-LIGAND FREE ENERGY PREDICTED BY IDOCK:   -8.53 KCAL/MOL
REMARK 924 INTRA-LIGAND FREE ENERGY PREDICTED BY IDOCK:   -0.73 KCAL/MOL
REMARK 927      BINDING AFFINITY PREDICTED BY RF-SCORE:    0.00 PKD
ROOT
HETATM    1  C   UNL     1      -9.396   3.762  68.133  1.00  0.00    -0.173 C  
HETATM    2  O   UNL     1     -10.292   4.632  68.831  1.00  0.00    -0.043 OA 
ENDROOT
BRANCH   2   3
HETATM    3  C   UNL     1     -10.240   5.961  68.487  1.00  0.00    -0.192 A  
HETATM    4  C   UNL     1      -9.876   6.913  69.476  1.00  0.00    -0.163 A  
HETATM    5  C   UNL     1      -9.830   8.263  69.063  1.00  0.00    -0.176 A  
HETATM    6  C   UNL     1     -10.586   6.390  67.194  1.00  0.00    -0.389 A  
HETATM    7  C   UNL     1     -10.191   8.707  67.780  1.00  0.00    -0.282 A  
HETATM    8  C   UNL     1     -10.572   7.739  66.851  1.00  0.00    -0.347 A  
BRANCH   4   9
HETATM    9  C   UNL     1      -9.598   6.565  70.960  1.00  0.00    -0.185 C  
HETATM   10  C   UNL     1     -10.826   5.813  71.553  1.00  0.00    -0.316 C  
HETATM   11  C   UNL     1      -8.304   5.719  71.116  1.00  0.00    -0.123 C  
HETATM   12  C   UNL     1      -7.895   6.536  73.448  1.00  0.00    -0.091 C  
HETATM   13  C   UNL     1      -9.318   4.504  73.063  1.00  0.00    -0.138 C  
HETATM   14  C   UNL     1      -8.089   5.289  72.577  1.00  0.00    -0.103 C  
HETATM   15  C   UNL     1      -9.142   7.422  73.360  1.00  0.00    -0.234 C  
HETATM   16  C   UNL     1     -10.573   5.391  73.013  1.00  0.00    -0.274 C  
HETATM   17  C   UNL     1     -10.352   6.638  73.882  1.00  0.00    -0.385 C  
HETATM   18  C   UNL     1      -9.391   7.819  71.893  1.00  0.00    -0.195 C  
ENDBRANCH   4   9
BRANCH   7  19
HETATM   19  C   UNL     1     -10.224  10.146  67.459  1.00  0.00    -0.257 A  
HETATM   20  C   UNL     1     -10.546  14.281  66.587  1.00  0.00    -0.278 A  
HETATM   21  C   UNL     1     -10.365  11.974  65.828  1.00  0.00    -0.289 A  
HETATM   22  C   UNL     1     -10.326  12.473  68.200  1.00  0.00    -0.236 A  
HETATM   23  C   UNL     1     -10.254  11.111  68.482  1.00  0.00    -0.209 A  
HETATM   24  C   UNL     1     -10.259  10.606  66.132  1.00  0.00    -0.308 A  
HETATM   25  C   UNL     1     -10.401  12.917  66.879  1.00  0.00    -0.247 A  
HETATM   26  C   UNL     1     -10.653  14.711  65.261  1.00  0.00    -0.409 A  
HETATM   27  C   UNL     1     -10.621  13.777  64.221  1.00  0.00    -0.172 A  
HETATM   28  C   UNL     1     -10.880  16.136  64.916  1.00  0.00    -0.334 C  
HETATM   29  O   UNL     1     -11.515  16.482  63.935  1.00  0.00    -1.145 OA 
HETATM   30  C   UNL     1     -10.467  12.418  64.501  1.00  0.00    -0.352 A  
HETATM   31  O   UNL     1     -10.297  17.008  65.765  1.00  0.00    -0.483 OA 
ENDBRANCH   7  19
ENDBRANCH   2   3
TORSDOF 3
ENDMDL
MODEL       25
REMARK 921   NORMALIZED FREE ENERGY PREDICTED BY IDOCK:   -7.10 KCAL/MOL
REMARK 922        TOTAL FREE ENERGY PREDICTED BY IDOCK:   -9.14 KCAL/MOL
REMARK 923 INTER-LIGAND FREE ENERGY PREDICTED BY IDOCK:   -8.45 KCAL/MOL
REMARK 924 INTRA-LIGAND FREE ENERGY PREDICTED BY IDOCK:   -0.69 KCAL/MOL
REMARK 927      BINDING AFFINITY PREDICTED BY RF-SCORE:    0.00 PKD
ROOT
HETATM    1  C   UNL     1     -10.930   7.060  73.557  1.00  0.00    -0.139 C  
HETATM    2  O   UNL     1     -11.530   6.963  72.262  1.00  0.00    -0.263 OA 
ENDROOT
BRANCH   2   3
HETATM    3  C   UNL     1     -11.530   8.109  71.504  1.00  0.00    -0.267 A  
HETATM    4  C   UNL     1     -10.811   8.122  70.279  1.00  0.00    -0.244 A  
HETATM    5  C   UNL     1     -10.854   9.322  69.537  1.00  0.00    -0.211 A  
HETATM    6  C   UNL     1     -12.185   9.271  71.945  1.00  0.00    -0.448 A  
HETATM    7  C   UNL     1     -11.489  10.497  69.975  1.00  0.00    -0.393 A  
HETATM    8  C   UNL     1     -12.156  10.446  71.199  1.00  0.00    -0.487 A  
BRANCH   4   9
HETATM    9  C   UNL     1      -9.952   6.941  69.761  1.00  0.00    -0.187 C  
HETATM   10  C   UNL     1     -10.793   5.632  69.803  1.00  0.00    -0.370 C  
HETATM   11  C   UNL     1      -9.419   7.208  68.326  1.00  0.00    -0.133 C  
HETATM   12  C   UNL     1      -7.421   5.733  68.651  1.00  0.00    -0.085 C  
HETATM   13  C   UNL     1      -9.574   4.760  67.799  1.00  0.00    -0.194 C  
HETATM   14  C   UNL     1      -8.654   5.993  67.777  1.00  0.00    -0.106 C  
HETATM   15  C   UNL     1      -7.865   5.445  70.089  1.00  0.00    -0.081 C  
HETATM   16  C   UNL     1     -10.000   4.438  69.240  1.00  0.00    -0.144 C  
HETATM   17  C   UNL     1      -8.751   4.193  70.099  1.00  0.00    -0.117 C  
HETATM   18  C   UNL     1      -8.672   6.639  70.631  1.00  0.00    -0.143 C  
ENDBRANCH   4   9
BRANCH   7  19
HETATM   19  C   UNL     1     -11.395  11.745  69.194  1.00  0.00    -0.340 A  
HETATM   20  C   UNL     1     -11.358  15.318  66.917  1.00  0.00    -0.209 A  
HETATM   21  C   UNL     1     -10.933  12.927  67.094  1.00  0.00    -0.290 A  
HETATM   22  C   UNL     1     -11.740  14.158  69.020  1.00  0.00    -0.361 A  
HETATM   23  C   UNL     1     -11.782  12.975  69.754  1.00  0.00    -0.346 A  
HETATM   24  C   UNL     1     -10.951  11.749  67.861  1.00  0.00    -0.272 A  
HETATM   25  C   UNL     1     -11.336  14.145  67.684  1.00  0.00    -0.342 A  
HETATM   26  C   UNL     1     -10.981  15.286  65.570  1.00  0.00    -0.365 A  
HETATM   27  C   UNL     1     -10.586  14.080  64.985  1.00  0.00    -0.426 A  
HETATM   28  C   UNL     1     -11.060  16.491  64.707  1.00  0.00    -0.186 C  
HETATM   29  O   UNL     1     -11.301  16.430  63.514  1.00  0.00    -0.462 OA 
HETATM   30  C   UNL     1     -10.551  12.909  65.745  1.00  0.00    -0.293 A  
HETATM   31  O   UNL     1     -10.813  17.649  65.353  1.00  0.00    -0.541 OA 
ENDBRANCH   7  19
ENDBRANCH   2   3
TORSDOF 3
ENDMDL
MODEL       26
REMARK 921   NORMALIZED FREE ENERGY PREDICTED BY IDOCK:   -7.10 KCAL/MOL
REMARK 922        TOTAL FREE ENERGY PREDICTED BY IDOCK:   -9.13 KCAL/MOL
REMARK 923 INTER-LIGAND FREE ENERGY PREDICTED BY IDOCK:   -8.53 KCAL/MOL
REMARK 924 INTRA-LIGAND FREE ENERGY PREDICTED BY IDOCK:   -0.60 KCAL/MOL
REMARK 927      BINDING AFFINITY PREDICTED BY RF-SCORE:    0.00 PKD
ROOT
HETATM    1  C   UNL     1     -13.527  15.022  71.568  1.00  0.00    -0.436 C  
HETATM    2  O   UNL     1     -12.882  14.419  70.443  1.00  0.00    -0.350 OA 
ENDROOT
BRANCH   2   3
HETATM    3  C   UNL     1     -12.485  13.113  70.599  1.00  0.00    -0.286 A  
HETATM    4  C   UNL     1     -11.576  12.555  69.660  1.00  0.00    -0.323 A  
HETATM    5  C   UNL     1     -11.195  11.213  69.875  1.00  0.00    -0.293 A  
HETATM    6  C   UNL     1     -12.998  12.317  71.637  1.00  0.00    -0.416 A  
HETATM    7  C   UNL     1     -11.715  10.400  70.897  1.00  0.00    -0.455 A  
HETATM    8  C   UNL     1     -12.628  10.982  71.775  1.00  0.00    -0.311 A  
BRANCH   4   9
HETATM    9  C   UNL     1     -11.048  13.302  68.410  1.00  0.00    -0.299 C  
HETATM   10  C   UNL     1     -10.516  14.704  68.831  1.00  0.00    -0.248 C  
HETATM   11  C   UNL     1      -9.942  12.488  67.682  1.00  0.00    -0.201 C  
HETATM   12  C   UNL     1     -10.447  13.536  65.464  1.00  0.00    -0.304 C  
HETATM   13  C   UNL     1      -8.795  14.618  67.015  1.00  0.00    -0.262 C  
HETATM   14  C   UNL     1      -9.349  13.277  66.503  1.00  0.00    -0.221 C  
HETATM   15  C   UNL     1     -11.576  14.352  66.102  1.00  0.00    -0.372 C  
HETATM   16  C   UNL     1      -9.923  15.462  67.629  1.00  0.00    -0.225 C  
HETATM   17  C   UNL     1     -11.015  15.699  66.575  1.00  0.00    -0.206 C  
HETATM   18  C   UNL     1     -12.144  13.588  67.313  1.00  0.00    -0.367 C  
ENDBRANCH   4   9
BRANCH   7  19
HETATM   19  C   UNL     1     -11.350   8.973  70.988  1.00  0.00    -0.362 A  
HETATM   20  C   UNL     1     -10.526   4.822  71.195  1.00  0.00    -0.121 A  
HETATM   21  C   UNL     1     -10.958   6.944  72.309  1.00  0.00    -0.275 A  
HETATM   22  C   UNL     1     -10.837   6.851  69.889  1.00  0.00    -0.294 A  
HETATM   23  C   UNL     1     -11.141   8.209  69.826  1.00  0.00    -0.058 A  
HETATM   24  C   UNL     1     -11.232   8.320  72.225  1.00  0.00    -0.443 A  
HETATM   25  C   UNL     1     -10.761   6.202  71.124  1.00  0.00    -0.312 A  
HETATM   26  C   UNL     1     -10.485   4.177  72.435  1.00  0.00    -0.172 A  
HETATM   27  C   UNL     1     -10.684   4.911  73.609  1.00  0.00    -0.352 A  
HETATM   28  C   UNL     1     -10.310   2.708  72.548  1.00  0.00    -0.129 C  
HETATM   29  O   UNL     1     -10.807   2.054  73.448  1.00  0.00    -0.134 OA 
HETATM   30  C   UNL     1     -10.908   6.287  73.548  1.00  0.00    -0.199 A  
HETATM   31  O   UNL     1      -9.532   2.170  71.586  1.00  0.00    -0.100 OA 
ENDBRANCH   7  19
ENDBRANCH   2   3
TORSDOF 3
ENDMDL
MODEL       27
REMARK 921   NORMALIZED FREE ENERGY PREDICTED BY IDOCK:   -6.97 KCAL/MOL
REMARK 922        TOTAL FREE ENERGY PREDICTED BY IDOCK:   -8.98 KCAL/MOL
REMARK 923 INTER-LIGAND FREE ENERGY PREDICTED BY IDOCK:   -8.28 KCAL/MOL
REMARK 924 INTRA-LIGAND FREE ENERGY PREDICTED BY IDOCK:   -0.70 KCAL/MOL
REMARK 927      BINDING AFFINITY PREDICTED BY RF-SCORE:    0.00 PKD
ROOT
HETATM    1  C   UNL     1      -8.973  10.135  62.413  1.00  0.00    -0.268 C  
HETATM    2  O   UNL     1      -9.036  10.803  63.676  1.00  0.00    -0.184 OA 
ENDROOT
BRANCH   2   3
HETATM    3  C   UNL     1      -9.307  10.013  64.768  1.00  0.00    -0.271 A  
HETATM    4  C   UNL     1     -10.098  10.546  65.820  1.00  0.00    -0.329 A  
HETATM    5  C   UNL     1     -10.353   9.687  66.911  1.00  0.00    -0.307 A  
HETATM    6  C   UNL     1      -8.776   8.717  64.875  1.00  0.00    -0.126 A  
HETATM    7  C   UNL     1      -9.814   8.395  67.041  1.00  0.00    -0.296 A  
HETATM    8  C   UNL     1      -9.017   7.928  65.997  1.00  0.00    -0.195 A  
BRANCH   4   9
HETATM    9  C   UNL     1     -10.627  12.001  65.862  1.00  0.00    -0.302 C  
HETATM   10  C   UNL     1      -9.444  12.975  66.137  1.00  0.00    -0.159 C  
HETATM   11  C   UNL     1     -11.360  12.382  64.546  1.00  0.00    -0.381 C  
HETATM   12  C   UNL     1     -12.800  14.085  65.685  1.00  0.00    -0.442 C  
HETATM   13  C   UNL     1     -10.559  14.749  64.768  1.00  0.00    -0.355 C  
HETATM   14  C   UNL     1     -11.793  13.857  64.551  1.00  0.00    -0.449 C  
HETATM   15  C   UNL     1     -12.146  13.744  67.028  1.00  0.00    -0.436 C  
HETATM   16  C   UNL     1      -9.910  14.442  66.127  1.00  0.00    -0.340 C  
HETATM   17  C   UNL     1     -10.939  14.666  67.246  1.00  0.00    -0.317 C  
HETATM   18  C   UNL     1     -11.668  12.280  67.014  1.00  0.00    -0.399 C  
ENDBRANCH   4   9
BRANCH   7  19
HETATM   19  C   UNL     1     -10.036   7.601  68.264  1.00  0.00    -0.214 A  
HETATM   20  C   UNL     1     -10.472   5.406  71.862  1.00  0.00    -0.283 A  
HETATM   21  C   UNL     1      -9.911   5.482  69.493  1.00  0.00    -0.278 A  
HETATM   22  C   UNL     1     -10.671   7.489  70.622  1.00  0.00    -0.239 A  
HETATM   23  C   UNL     1     -10.494   8.213  69.445  1.00  0.00    -0.223 A  
HETATM   24  C   UNL     1      -9.770   6.223  68.307  1.00  0.00    -0.122 A  
HETATM   25  C   UNL     1     -10.366   6.127  70.665  1.00  0.00    -0.268 A  
HETATM   26  C   UNL     1     -10.132   4.049  71.900  1.00  0.00    -0.214 A  
HETATM   27  C   UNL     1      -9.679   3.412  70.742  1.00  0.00    -0.190 A  
HETATM   28  C   UNL     1     -10.163   3.270  73.163  1.00  0.00    -0.151 C  
HETATM   29  O   UNL     1      -9.397   2.350  73.386  1.00  0.00    -0.082 OA 
HETATM   30  C   UNL     1      -9.580   4.120  69.543  1.00  0.00    -0.274 A  
HETATM   31  O   UNL     1     -11.130   3.652  74.023  1.00  0.00    -0.185 OA 
ENDBRANCH   7  19
ENDBRANCH   2   3
TORSDOF 3
ENDMDL
MODEL       28
REMARK 921   NORMALIZED FREE ENERGY PREDICTED BY IDOCK:   -6.95 KCAL/MOL
REMARK 922        TOTAL FREE ENERGY PREDICTED BY IDOCK:   -8.95 KCAL/MOL
REMARK 923 INTER-LIGAND FREE ENERGY PREDICTED BY IDOCK:   -8.40 KCAL/MOL
REMARK 924 INTRA-LIGAND FREE ENERGY PREDICTED BY IDOCK:   -0.55 KCAL/MOL
REMARK 927      BINDING AFFINITY PREDICTED BY RF-SCORE:    0.00 PKD
ROOT
HETATM    1  C   UNL     1     -11.368   5.044  73.167  1.00  0.00    -0.321 C  
HETATM    2  O   UNL     1     -10.349   6.039  73.042  1.00  0.00    -0.186 OA 
ENDROOT
BRANCH   2   3
HETATM    3  C   UNL     1     -10.591   7.047  72.141  1.00  0.00    -0.213 A  
HETATM    4  C   UNL     1     -10.059   6.938  70.829  1.00  0.00    -0.208 A  
HETATM    5  C   UNL     1     -10.348   7.998  69.942  1.00  0.00    -0.221 A  
HETATM    6  C   UNL     1     -11.311   8.195  72.513  1.00  0.00    -0.469 A  
HETATM    7  C   UNL     1     -11.050   9.160  70.306  1.00  0.00    -0.272 A  
HETATM    8  C   UNL     1     -11.527   9.237  71.614  1.00  0.00    -0.468 A  
BRANCH   4   9
HETATM    9  C   UNL     1      -9.148   5.779  70.352  1.00  0.00    -0.160 C  
HETATM   10  C   UNL     1     -10.010   4.503  70.124  1.00  0.00    -0.278 C  
HETATM   11  C   UNL     1      -8.369   6.157  69.061  1.00  0.00    -0.112 C  
HETATM   12  C   UNL     1      -6.489   4.585  69.578  1.00  0.00    -0.032 C  
HETATM   13  C   UNL     1      -8.481   3.775  68.281  1.00  0.00    -0.108 C  
HETATM   14  C   UNL     1      -7.546   4.970  68.535  1.00  0.00    -0.078 C  
HETATM   15  C   UNL     1      -7.180   4.183  70.885  1.00  0.00    -0.040 C  
HETATM   16  C   UNL     1      -9.156   3.338  69.591  1.00  0.00    -0.204 C  
HETATM   17  C   UNL     1      -8.080   2.969  70.622  1.00  0.00    -0.058 C  
HETATM   18  C   UNL     1      -8.044   5.352  71.394  1.00  0.00    -0.116 C  
ENDBRANCH   4   9
BRANCH   7  19
HETATM   19  C   UNL     1     -11.215  10.274  69.353  1.00  0.00    -0.292 A  
HETATM   20  C   UNL     1     -11.923  13.433  66.619  1.00  0.00    -0.452 A  
HETATM   21  C   UNL     1     -11.180  11.157  67.064  1.00  0.00    -0.291 A  
HETATM   22  C   UNL     1     -11.882  12.581  68.897  1.00  0.00    -0.346 A  
HETATM   23  C   UNL     1     -11.679  11.529  69.787  1.00  0.00    -0.426 A  
HETATM   24  C   UNL     1     -10.951  10.118  67.983  1.00  0.00    -0.326 A  
HETATM   25  C   UNL     1     -11.654  12.403  67.531  1.00  0.00    -0.431 A  
HETATM   26  C   UNL     1     -11.722  13.232  65.249  1.00  0.00    -0.357 A  
HETATM   27  C   UNL     1     -11.256  11.997  64.787  1.00  0.00    -0.373 A  
HETATM   28  C   UNL     1     -12.063  14.273  64.247  1.00  0.00    -0.441 C  
HETATM   29  O   UNL     1     -12.446  14.002  63.123  1.00  0.00    -0.733 OA 
HETATM   30  C   UNL     1     -10.977  10.970  65.689  1.00  0.00    -0.090 A  
HETATM   31  O   UNL     1     -11.882  15.537  64.682  1.00  0.00    -0.297 OA 
ENDBRANCH   7  19
ENDBRANCH   2   3
TORSDOF 3
ENDMDL
MODEL       29
REMARK 921   NORMALIZED FREE ENERGY PREDICTED BY IDOCK:   -6.88 KCAL/MOL
REMARK 922        TOTAL FREE ENERGY PREDICTED BY IDOCK:   -8.88 KCAL/MOL
REMARK 923 INTER-LIGAND FREE ENERGY PREDICTED BY IDOCK:   -8.16 KCAL/MOL
REMARK 924 INTRA-LIGAND FREE ENERGY PREDICTED BY IDOCK:   -0.72 KCAL/MOL
REMARK 927      BINDING AFFINITY PREDICTED BY RF-SCORE:    0.00 PKD
ROOT
HETATM    1  C   UNL     1     -12.933   6.944  71.231  1.00  0.00    -0.244 C  
HETATM    2  O   UNL     1     -11.668   7.420  70.764  1.00  0.00    -0.294 OA 
ENDROOT
BRANCH   2   3
HETATM    3  C   UNL     1     -11.616   8.742  70.391  1.00  0.00    -0.088 A  
HETATM    4  C   UNL     1     -10.825   9.108  69.269  1.00  0.00    -0.150 A  
HETATM    5  C   UNL     1     -10.818  10.478  68.926  1.00  0.00    -0.275 A  
HETATM    6  C   UNL     1     -12.291   9.730  71.127  1.00  0.00    -0.451 A  
HETATM    7  C   UNL     1     -11.472  11.480  69.664  1.00  0.00    -0.373 A  
HETATM    8  C   UNL     1     -12.211  11.075  70.776  1.00  0.00    -0.480 A  
BRANCH   4   9
HETATM    9  C   UNL     1      -9.943   8.121  68.465  1.00  0.00    -0.204 C  
HETATM   10  C   UNL     1      -9.016   8.920  67.503  1.00  0.00    -0.142 C  
HETATM   11  C   UNL     1      -9.108   7.206  69.403  1.00  0.00    -0.145 C  
HETATM   12  C   UNL     1      -8.985   5.362  67.713  1.00  0.00    -0.108 C  
HETATM   13  C   UNL     1      -7.241   7.169  67.727  1.00  0.00    -0.091 C  
HETATM   14  C   UNL     1      -8.159   6.299  68.603  1.00  0.00    -0.109 C  
HETATM   15  C   UNL     1      -9.832   6.192  66.742  1.00  0.00    -0.203 C  
HETATM   16  C   UNL     1      -8.075   7.983  66.724  1.00  0.00    -0.107 C  
HETATM   17  C   UNL     1      -8.902   7.026  65.852  1.00  0.00    -0.126 C  
HETATM   18  C   UNL     1     -10.753   7.137  67.536  1.00  0.00    -0.344 C  
ENDBRANCH   4   9
BRANCH   7  19
HETATM   19  C   UNL     1     -11.325  12.903  69.305  1.00  0.00    -0.303 A  
HETATM   20  C   UNL     1     -11.128  16.991  68.210  1.00  0.00    -0.172 A  
HETATM   21  C   UNL     1     -10.641  14.654  67.729  1.00  0.00    -0.251 A  
HETATM   22  C   UNL     1     -11.734  15.260  69.807  1.00  0.00    -0.347 A  
HETATM   23  C   UNL     1     -11.825  13.912  70.147  1.00  0.00    -0.368 A  
HETATM   24  C   UNL     1     -10.715  13.301  68.105  1.00  0.00    -0.264 A  
HETATM   25  C   UNL     1     -11.161  15.643  68.593  1.00  0.00    -0.338 A  
HETATM   26  C   UNL     1     -10.582  17.360  66.976  1.00  0.00    -0.238 A  
HETATM   27  C   UNL     1     -10.070  16.380  66.119  1.00  0.00    -0.364 A  
HETATM   28  C   UNL     1     -10.594  18.767  66.504  1.00  0.00    -0.374 C  
HETATM   29  O   UNL     1     -10.678  19.064  65.326  1.00  0.00    -0.500 OA 
HETATM   30  C   UNL     1     -10.090  15.037  66.498  1.00  0.00    -0.286 A  
HETATM   31  O   UNL     1     -10.474  19.680  67.490  1.00  0.00    -0.422 OA 
ENDBRANCH   7  19
ENDBRANCH   2   3
TORSDOF 3
ENDMDL
MODEL       30
REMARK 921   NORMALIZED FREE ENERGY PREDICTED BY IDOCK:   -6.86 KCAL/MOL
REMARK 922        TOTAL FREE ENERGY PREDICTED BY IDOCK:   -8.85 KCAL/MOL
REMARK 923 INTER-LIGAND FREE ENERGY PREDICTED BY IDOCK:   -8.14 KCAL/MOL
REMARK 924 INTRA-LIGAND FREE ENERGY PREDICTED BY IDOCK:   -0.71 KCAL/MOL
REMARK 927      BINDING AFFINITY PREDICTED BY RF-SCORE:    0.00 PKD
ROOT
HETATM    1  C   UNL     1     -11.233  12.806  63.595  1.00  0.00    -0.427 C  
HETATM    2  O   UNL     1     -10.278  12.966  64.647  1.00  0.00    -0.327 OA 
ENDROOT
BRANCH   2   3
HETATM    3  C   UNL     1     -10.404  12.114  65.717  1.00  0.00    -0.258 A  
HETATM    4  C   UNL     1     -10.316  12.645  67.032  1.00  0.00    -0.241 A  
HETATM    5  C   UNL     1     -10.463  11.724  68.093  1.00  0.00    -0.221 A  
HETATM    6  C   UNL     1     -10.569  10.732  65.528  1.00  0.00    -0.205 A  
HETATM    7  C   UNL     1     -10.609  10.337  67.918  1.00  0.00    -0.282 A  
HETATM    8  C   UNL     1     -10.659   9.859  66.609  1.00  0.00    -0.186 A  
BRANCH   4   9
HETATM    9  C   UNL     1     -10.011  14.129  67.354  1.00  0.00    -0.240 C  
HETATM   10  C   UNL     1      -8.522  14.436  67.016  1.00  0.00    -0.206 C  
HETATM   11  C   UNL     1     -10.960  15.088  66.584  1.00  0.00    -0.325 C  
HETATM   12  C   UNL     1     -10.760  16.887  68.315  1.00  0.00    -0.377 C  
HETATM   13  C   UNL     1      -9.124  16.789  66.413  1.00  0.00    -0.321 C  
HETATM   14  C   UNL     1     -10.588  16.560  66.827  1.00  0.00    -0.224 C  
HETATM   15  C   UNL     1      -9.840  15.988  69.148  1.00  0.00    -0.247 C  
HETATM   16  C   UNL     1      -8.186  15.918  67.263  1.00  0.00    -0.211 C  
HETATM   17  C   UNL     1      -8.383  16.254  68.749  1.00  0.00    -0.235 C  
HETATM   18  C   UNL     1     -10.176  14.510  68.875  1.00  0.00    -0.229 C  
ENDBRANCH   4   9
BRANCH   7  19
HETATM   19  C   UNL     1     -10.644   9.428  69.079  1.00  0.00    -0.233 A  
HETATM   20  C   UNL     1     -10.516   6.858  72.446  1.00  0.00    -0.234 A  
HETATM   21  C   UNL     1     -10.583   7.168  70.032  1.00  0.00    -0.248 A  
HETATM   22  C   UNL     1     -10.657   9.095  71.501  1.00  0.00    -0.428 A  
HETATM   23  C   UNL     1     -10.665   9.936  70.390  1.00  0.00    -0.379 A  
HETATM   24  C   UNL     1     -10.625   8.032  68.924  1.00  0.00    -0.160 A  
HETATM   25  C   UNL     1     -10.597   7.710  71.336  1.00  0.00    -0.236 A  
HETATM   26  C   UNL     1     -10.423   5.474  72.268  1.00  0.00    -0.266 A  
HETATM   27  C   UNL     1     -10.406   4.937  70.977  1.00  0.00    -0.217 A  
HETATM   28  C   UNL     1     -10.264   4.546  73.415  1.00  0.00    -0.169 C  
HETATM   29  O   UNL     1      -9.641   3.502  73.334  1.00  0.00    -0.106 OA 
HETATM   30  C   UNL     1     -10.496   5.778  69.866  1.00  0.00    -0.360 A  
HETATM   31  O   UNL     1     -10.892   4.947  74.540  1.00  0.00    -0.343 OA 
ENDBRANCH   7  19
ENDBRANCH   2   3
TORSDOF 3
ENDMDL
MODEL       31
REMARK 921   NORMALIZED FREE ENERGY PREDICTED BY IDOCK:   -6.81 KCAL/MOL
REMARK 922        TOTAL FREE ENERGY PREDICTED BY IDOCK:   -8.79 KCAL/MOL
REMARK 923 INTER-LIGAND FREE ENERGY PREDICTED BY IDOCK:   -8.15 KCAL/MOL
REMARK 924 INTRA-LIGAND FREE ENERGY PREDICTED BY IDOCK:   -0.65 KCAL/MOL
REMARK 927      BINDING AFFINITY PREDICTED BY RF-SCORE:    0.00 PKD
ROOT
HETATM    1  C   UNL     1     -12.011  14.788  64.087  1.00  0.00    -0.259 C  
HETATM    2  O   UNL     1     -10.734  14.321  64.529  1.00  0.00    -0.388 OA 
ENDROOT
BRANCH   2   3
HETATM    3  C   UNL     1     -10.735  13.183  65.298  1.00  0.00    -0.303 A  
HETATM    4  C   UNL     1     -10.554  13.303  66.702  1.00  0.00    -0.283 A  
HETATM    5  C   UNL     1     -10.575  12.102  67.444  1.00  0.00    -0.253 A  
HETATM    6  C   UNL     1     -10.864  11.912  64.714  1.00  0.00    -0.359 A  
HETATM    7  C   UNL     1     -10.683  10.823  66.871  1.00  0.00    -0.309 A  
HETATM    8  C   UNL     1     -10.827  10.754  65.485  1.00  0.00    -0.061 A  
BRANCH   4   9
HETATM    9  C   UNL     1     -10.278  14.640  67.434  1.00  0.00    -0.240 C  
HETATM   10  C   UNL     1      -9.655  14.348  68.830  1.00  0.00    -0.177 C  
HETATM   11  C   UNL     1      -9.352  15.568  66.599  1.00  0.00    -0.291 C  
HETATM   12  C   UNL     1     -10.279  17.649  67.640  1.00  0.00    -0.351 C  
HETATM   13  C   UNL     1      -8.335  16.472  68.708  1.00  0.00    -0.248 C  
HETATM   14  C   UNL     1      -8.998  16.849  67.372  1.00  0.00    -0.215 C  
HETATM   15  C   UNL     1     -11.246  16.804  68.476  1.00  0.00    -0.176 C  
HETATM   16  C   UNL     1      -9.306  15.651  69.572  1.00  0.00    -0.263 C  
HETATM   17  C   UNL     1     -10.584  16.466  69.818  1.00  0.00    -0.288 C  
HETATM   18  C   UNL     1     -11.569  15.497  67.729  1.00  0.00    -0.193 C  
ENDBRANCH   4   9
BRANCH   7  19
HETATM   19  C   UNL     1     -10.584   9.610  67.703  1.00  0.00    -0.334 A  
HETATM   20  C   UNL     1     -10.528   6.080  70.046  1.00  0.00    -0.313 A  
HETATM   21  C   UNL     1     -10.609   8.509  69.895  1.00  0.00    -0.228 A  
HETATM   22  C   UNL     1     -10.424   7.177  67.878  1.00  0.00    -0.268 A  
HETATM   23  C   UNL     1     -10.476   8.339  67.111  1.00  0.00    -0.386 A  
HETATM   24  C   UNL     1     -10.628   9.671  69.105  1.00  0.00    -0.237 A  
HETATM   25  C   UNL     1     -10.508   7.246  69.270  1.00  0.00    -0.221 A  
HETATM   26  C   UNL     1     -10.646   6.161  71.438  1.00  0.00    -0.294 A  
HETATM   27  C   UNL     1     -10.749   7.410  72.057  1.00  0.00    -0.254 A  
HETATM   28  C   UNL     1     -10.742   4.948  72.287  1.00  0.00    -0.150 C  
HETATM   29  O   UNL     1     -11.379   4.921  73.326  1.00  0.00    -0.324 OA 
HETATM   30  C   UNL     1     -10.720   8.578  71.292  1.00  0.00    -0.302 A  
HETATM   31  O   UNL     1     -10.041   3.893  71.823  1.00  0.00    -0.178 OA 
ENDBRANCH   7  19
ENDBRANCH   2   3
TORSDOF 3
ENDMDL
MODEL       32
REMARK 921   NORMALIZED FREE ENERGY PREDICTED BY IDOCK:   -6.77 KCAL/MOL
REMARK 922        TOTAL FREE ENERGY PREDICTED BY IDOCK:   -8.74 KCAL/MOL
REMARK 923 INTER-LIGAND FREE ENERGY PREDICTED BY IDOCK:   -8.01 KCAL/MOL
REMARK 924 INTRA-LIGAND FREE ENERGY PREDICTED BY IDOCK:   -0.74 KCAL/MOL
REMARK 927      BINDING AFFINITY PREDICTED BY RF-SCORE:    0.00 PKD
ROOT
HETATM    1  C   UNL     1      -9.770   3.004  71.367  1.00  0.00    -0.148 C  
HETATM    2  O   UNL     1      -9.650   3.722  70.135  1.00  0.00    -0.181 OA 
ENDROOT
BRANCH   2   3
HETATM    3  C   UNL     1     -10.084   5.025  70.146  1.00  0.00    -0.268 A  
HETATM    4  C   UNL     1      -9.900   5.820  68.983  1.00  0.00    -0.204 A  
HETATM    5  C   UNL     1     -10.374   7.148  69.048  1.00  0.00    -0.204 A  
HETATM    6  C   UNL     1     -10.658   5.589  71.297  1.00  0.00    -0.304 A  
HETATM    7  C   UNL     1     -10.933   7.731  70.198  1.00  0.00    -0.246 A  
HETATM    8  C   UNL     1     -11.064   6.921  71.326  1.00  0.00    -0.293 A  
BRANCH   4   9
HETATM    9  C   UNL     1      -9.167   5.338  67.706  1.00  0.00    -0.120 C  
HETATM   10  C   UNL     1      -9.388   6.371  66.562  1.00  0.00    -0.181 C  
HETATM   11  C   UNL     1      -7.651   5.118  67.965  1.00  0.00    -0.083 C  
HETATM   12  C   UNL     1      -7.456   3.405  66.148  1.00  0.00    -0.077 C  
HETATM   13  C   UNL     1      -7.132   5.838  65.618  1.00  0.00    -0.069 C  
HETATM   14  C   UNL     1      -6.911   4.739  66.672  1.00  0.00    -0.058 C  
HETATM   15  C   UNL     1      -8.953   3.543  65.853  1.00  0.00    -0.142 C  
HETATM   16  C   UNL     1      -8.627   5.965  65.286  1.00  0.00    -0.119 C  
HETATM   17  C   UNL     1      -9.154   4.616  64.775  1.00  0.00    -0.149 C  
HETATM   18  C   UNL     1      -9.696   3.967  67.133  1.00  0.00    -0.207 C  
ENDBRANCH   4   9
BRANCH   7  19
HETATM   19  C   UNL     1     -11.302   9.159  70.221  1.00  0.00    -0.217 A  
HETATM   20  C   UNL     1     -12.164  13.303  70.402  1.00  0.00    -0.404 A  
HETATM   21  C   UNL     1     -12.545  11.034  71.199  1.00  0.00    -0.522 A  
HETATM   22  C   UNL     1     -10.992  11.433  69.380  1.00  0.00    -0.260 A  
HETATM   23  C   UNL     1     -10.688  10.074  69.347  1.00  0.00    -0.258 A  
HETATM   24  C   UNL     1     -12.248   9.662  71.129  1.00  0.00    -0.437 A  
HETATM   25  C   UNL     1     -11.905  11.929  70.314  1.00  0.00    -0.368 A  
HETATM   26  C   UNL     1     -13.056  13.792  71.363  1.00  0.00    -0.413 A  
HETATM   27  C   UNL     1     -13.686  12.907  72.242  1.00  0.00    -0.553 A  
HETATM   28  C   UNL     1     -13.301  15.245  71.535  1.00  0.00    -0.473 C  
HETATM   29  O   UNL     1     -13.567  15.744  72.615  1.00  0.00    -0.523 OA 
HETATM   30  C   UNL     1     -13.441  11.535  72.154  1.00  0.00    -0.219 A  
HETATM   31  O   UNL     1     -13.234  15.955  70.390  1.00  0.00    -0.305 OA 
ENDBRANCH   7  19
ENDBRANCH   2   3
TORSDOF 3
ENDMDL
MODEL       33
REMARK 921   NORMALIZED FREE ENERGY PREDICTED BY IDOCK:   -6.71 KCAL/MOL
REMARK 922        TOTAL FREE ENERGY PREDICTED BY IDOCK:   -8.68 KCAL/MOL
REMARK 923 INTER-LIGAND FREE ENERGY PREDICTED BY IDOCK:   -7.92 KCAL/MOL
REMARK 924 INTRA-LIGAND FREE ENERGY PREDICTED BY IDOCK:   -0.76 KCAL/MOL
REMARK 927      BINDING AFFINITY PREDICTED BY RF-SCORE:    0.00 PKD
ROOT
HETATM    1  C   UNL     1      -9.327   4.251  66.013  1.00  0.00    -0.163 C  
HETATM    2  O   UNL     1      -8.754   4.786  67.209  1.00  0.00    -0.105 OA 
ENDROOT
BRANCH   2   3
HETATM    3  C   UNL     1      -9.218   6.016  67.608  1.00  0.00    -0.107 A  
HETATM    4  C   UNL     1      -9.294   6.303  68.997  1.00  0.00    -0.127 A  
HETATM    5  C   UNL     1      -9.768   7.586  69.348  1.00  0.00    -0.164 A  
HETATM    6  C   UNL     1      -9.657   6.965  66.670  1.00  0.00    -0.218 A  
HETATM    7  C   UNL     1     -10.229   8.537  68.422  1.00  0.00    -0.236 A  
HETATM    8  C   UNL     1     -10.164   8.198  67.071  1.00  0.00    -0.378 A  
BRANCH   4   9
HETATM    9  C   UNL     1      -8.955   5.288  70.117  1.00  0.00    -0.156 C  
HETATM   10  C   UNL     1      -9.244   5.932  71.504  1.00  0.00    -0.157 C  
HETATM   11  C   UNL     1      -9.750   3.963  69.947  1.00  0.00    -0.235 C  
HETATM   12  C   UNL     1      -8.004   2.611  71.129  1.00  0.00    -0.053 C  
HETATM   13  C   UNL     1      -9.855   3.691  72.439  1.00  0.00    -0.226 C  
HETATM   14  C   UNL     1      -9.488   2.999  71.115  1.00  0.00    -0.222 C  
HETATM   15  C   UNL     1      -7.147   3.869  71.309  1.00  0.00    -0.033 C  
HETATM   16  C   UNL     1      -8.979   4.937  72.650  1.00  0.00    -0.135 C  
HETATM   17  C   UNL     1      -7.499   4.527  72.649  1.00  0.00    -0.084 C  
HETATM   18  C   UNL     1      -7.438   4.860  70.167  1.00  0.00    -0.059 C  
ENDBRANCH   4   9
BRANCH   7  19
HETATM   19  C   UNL     1     -10.814   9.813  68.875  1.00  0.00    -0.220 A  
HETATM   20  C   UNL     1     -12.287  13.532  70.276  1.00  0.00    -0.370 A  
HETATM   21  C   UNL     1     -12.154  11.108  70.472  1.00  0.00    -0.474 A  
HETATM   22  C   UNL     1     -11.024  12.238  68.648  1.00  0.00    -0.276 A  
HETATM   23  C   UNL     1     -10.516  11.017  68.211  1.00  0.00    -0.212 A  
HETATM   24  C   UNL     1     -11.657   9.882  69.996  1.00  0.00    -0.235 A  
HETATM   25  C   UNL     1     -11.829  12.300  69.788  1.00  0.00    -0.388 A  
HETATM   26  C   UNL     1     -13.065  13.584  71.437  1.00  0.00    -0.385 A  
HETATM   27  C   UNL     1     -13.383  12.404  72.116  1.00  0.00    -0.508 A  
HETATM   28  C   UNL     1     -13.508  14.873  72.025  1.00  0.00    -0.388 C  
HETATM   29  O   UNL     1     -13.659  15.031  73.223  1.00  0.00    -0.497 OA 
HETATM   30  C   UNL     1     -12.940  11.173  71.631  1.00  0.00    -0.548 A  
HETATM   31  O   UNL     1     -13.755  15.838  71.115  1.00  0.00    -0.560 OA 
ENDBRANCH   7  19
ENDBRANCH   2   3
TORSDOF 3
ENDMDL
MODEL       34
REMARK 921   NORMALIZED FREE ENERGY PREDICTED BY IDOCK:   -6.71 KCAL/MOL
REMARK 922        TOTAL FREE ENERGY PREDICTED BY IDOCK:   -8.68 KCAL/MOL
REMARK 923 INTER-LIGAND FREE ENERGY PREDICTED BY IDOCK:   -8.06 KCAL/MOL
REMARK 924 INTRA-LIGAND FREE ENERGY PREDICTED BY IDOCK:   -0.62 KCAL/MOL
REMARK 927      BINDING AFFINITY PREDICTED BY RF-SCORE:    0.00 PKD
ROOT
HETATM    1  C   UNL     1      -8.157   3.932  67.755  1.00  0.00    -0.089 C  
HETATM    2  O   UNL     1      -9.024   4.754  68.541  1.00  0.00    -0.104 OA 
ENDROOT
BRANCH   2   3
HETATM    3  C   UNL     1      -9.150   6.062  68.139  1.00  0.00    -0.118 A  
HETATM    4  C   UNL     1      -9.424   7.057  69.116  1.00  0.00    -0.143 A  
HETATM    5  C   UNL     1      -9.533   8.384  68.647  1.00  0.00    -0.147 A  
HETATM    6  C   UNL     1      -9.060   6.416  66.783  1.00  0.00    -0.147 A  
HETATM    7  C   UNL     1      -9.464   8.750  67.292  1.00  0.00    -0.200 A  
HETATM    8  C   UNL     1      -9.226   7.734  66.367  1.00  0.00    -0.229 A  
BRANCH   4   9
HETATM    9  C   UNL     1      -9.666   6.761  70.617  1.00  0.00    -0.180 C  
HETATM   10  C   UNL     1      -9.338   8.031  71.455  1.00  0.00    -0.182 C  
HETATM   11  C   UNL     1     -11.123   6.289  70.878  1.00  0.00    -0.366 C  
HETATM   12  C   UNL     1     -10.475   4.986  72.917  1.00  0.00    -0.256 C  
HETATM   13  C   UNL     1     -11.097   7.410  73.123  1.00  0.00    -0.357 C  
HETATM   14  C   UNL     1     -11.388   6.095  72.380  1.00  0.00    -0.340 C  
HETATM   15  C   UNL     1      -9.010   5.383  72.709  1.00  0.00    -0.121 C  
HETATM   16  C   UNL     1      -9.622   7.804  72.951  1.00  0.00    -0.302 C  
HETATM   17  C   UNL     1      -8.726   6.676  73.484  1.00  0.00    -0.138 C  
HETATM   18  C   UNL     1      -8.747   5.625  71.210  1.00  0.00    -0.134 C  
ENDBRANCH   4   9
BRANCH   7  19
HETATM   19  C   UNL     1      -9.700  10.144  66.871  1.00  0.00    -0.233 A  
HETATM   20  C   UNL     1     -10.564  14.153  65.805  1.00  0.00    -0.306 A  
HETATM   21  C   UNL     1     -10.592  11.777  65.272  1.00  0.00    -0.327 A  
HETATM   22  C   UNL     1      -9.609  12.539  67.354  1.00  0.00    -0.192 A  
HETATM   23  C   UNL     1      -9.357  11.217  67.714  1.00  0.00    -0.166 A  
HETATM   24  C   UNL     1     -10.300  10.452  65.640  1.00  0.00    -0.260 A  
HETATM   25  C   UNL     1     -10.243  12.832  66.144  1.00  0.00    -0.286 A  
HETATM   26  C   UNL     1     -11.229  14.431  64.606  1.00  0.00    -0.366 A  
HETATM   27  C   UNL     1     -11.578  13.387  63.745  1.00  0.00    -0.362 A  
HETATM   28  C   UNL     1     -11.650  15.808  64.246  1.00  0.00    -0.191 C  
HETATM   29  O   UNL     1     -12.649  16.039  63.587  1.00  0.00    -0.515 OA 
HETATM   30  C   UNL     1     -11.252  12.069  64.070  1.00  0.00    -0.468 A  
HETATM   31  O   UNL     1     -10.816  16.773  64.686  1.00  0.00    -0.835 OA 
ENDBRANCH   7  19
ENDBRANCH   2   3
TORSDOF 3
ENDMDL
MODEL       35
REMARK 921   NORMALIZED FREE ENERGY PREDICTED BY IDOCK:   -6.66 KCAL/MOL
REMARK 922        TOTAL FREE ENERGY PREDICTED BY IDOCK:   -8.62 KCAL/MOL
REMARK 923 INTER-LIGAND FREE ENERGY PREDICTED BY IDOCK:   -8.00 KCAL/MOL
REMARK 924 INTRA-LIGAND FREE ENERGY PREDICTED BY IDOCK:   -0.61 KCAL/MOL
REMARK 927      BINDING AFFINITY PREDICTED BY RF-SCORE:    0.00 PKD
ROOT
HETATM    1  C   UNL     1     -11.640  15.417  69.021  1.00  0.00    -0.347 C  
HETATM    2  O   UNL     1     -12.209  14.327  68.290  1.00  0.00    -0.292 OA 
ENDROOT
BRANCH   2   3
HETATM    3  C   UNL     1     -11.896  13.066  68.738  1.00  0.00    -0.317 A  
HETATM    4  C   UNL     1     -11.416  12.106  67.808  1.00  0.00    -0.398 A  
HETATM    5  C   UNL     1     -11.101  10.831  68.326  1.00  0.00    -0.327 A  
HETATM    6  C   UNL     1     -12.089  12.705  70.082  1.00  0.00    -0.368 A  
HETATM    7  C   UNL     1     -11.308  10.450  69.663  1.00  0.00    -0.333 A  
HETATM    8  C   UNL     1     -11.810  11.418  70.533  1.00  0.00    -0.394 A  
BRANCH   4   9
HETATM    9  C   UNL     1     -11.285  12.359  66.285  1.00  0.00    -0.361 C  
HETATM   10  C   UNL     1     -12.551  13.106  65.773  1.00  0.00    -0.351 C  
HETATM   11  C   UNL     1      -9.997  13.160  65.947  1.00  0.00    -0.275 C  
HETATM   12  C   UNL     1      -9.845  12.195  63.640  1.00  0.00    -0.257 C  
HETATM   13  C   UNL     1     -11.180  14.283  64.041  1.00  0.00     0.178 C  
HETATM   14  C   UNL     1      -9.923  13.496  64.448  1.00  0.00     0.134 C  
HETATM   15  C   UNL     1     -11.094  11.349  63.908  1.00  0.00    -0.410 C  
HETATM   16  C   UNL     1     -12.440  13.434  64.273  1.00  0.00    -0.321 C  
HETATM   17  C   UNL     1     -12.335  12.133  63.464  1.00  0.00    -0.682 C  
HETATM   18  C   UNL     1     -11.200  11.046  65.415  1.00  0.00     0.113 C  
ENDBRANCH   4   9
BRANCH   7  19
HETATM   19  C   UNL     1     -11.058   9.065  70.103  1.00  0.00    -0.228 A  
HETATM   20  C   UNL     1     -10.567   5.034  71.314  1.00  0.00    -0.151 A  
HETATM   21  C   UNL     1     -10.863   7.384  71.879  1.00  0.00    -0.262 A  
HETATM   22  C   UNL     1     -10.681   6.712  69.557  1.00  0.00    -0.305 A  
HETATM   23  C   UNL     1     -10.876   8.034  69.163  1.00  0.00    -0.038 A  
HETATM   24  C   UNL     1     -11.026   8.717  71.463  1.00  0.00    -0.360 A  
HETATM   25  C   UNL     1     -10.691   6.370  70.911  1.00  0.00    -0.301 A  
HETATM   26  C   UNL     1     -10.611   4.700  72.672  1.00  0.00    -0.259 A  
HETATM   27  C   UNL     1     -10.785   5.703  73.630  1.00  0.00    -0.302 A  
HETATM   28  C   UNL     1     -10.555   3.291  73.133  1.00  0.00    -0.167 C  
HETATM   29  O   UNL     1     -11.127   2.905  74.138  1.00  0.00    -0.152 OA 
HETATM   30  C   UNL     1     -10.899   7.038  73.238  1.00  0.00    -0.345 A  
HETATM   31  O   UNL     1      -9.795   2.487  72.361  1.00  0.00    -0.127 OA 
ENDBRANCH   7  19
ENDBRANCH   2   3
TORSDOF 3
ENDMDL
MODEL       36
REMARK 921   NORMALIZED FREE ENERGY PREDICTED BY IDOCK:   -6.66 KCAL/MOL
REMARK 922        TOTAL FREE ENERGY PREDICTED BY IDOCK:   -8.61 KCAL/MOL
REMARK 923 INTER-LIGAND FREE ENERGY PREDICTED BY IDOCK:   -7.97 KCAL/MOL
REMARK 924 INTRA-LIGAND FREE ENERGY PREDICTED BY IDOCK:   -0.64 KCAL/MOL
REMARK 927      BINDING AFFINITY PREDICTED BY RF-SCORE:    0.00 PKD
ROOT
HETATM    1  C   UNL     1     -10.657  18.371  65.586  1.00  0.00    -0.103 C  
HETATM    2  O   UNL     1      -9.774  17.247  65.548  1.00  0.00    -0.521 OA 
ENDROOT
BRANCH   2   3
HETATM    3  C   UNL     1     -10.145  16.156  66.297  1.00  0.00    -0.321 A  
HETATM    4  C   UNL     1      -9.391  15.830  67.455  1.00  0.00    -0.210 A  
HETATM    5  C   UNL     1      -9.825  14.706  68.192  1.00  0.00    -0.224 A  
HETATM    6  C   UNL     1     -11.222  15.341  65.908  1.00  0.00    -0.237 A  
HETATM    7  C   UNL     1     -10.886  13.871  67.804  1.00  0.00    -0.261 A  
HETATM    8  C   UNL     1     -11.578  14.214  66.642  1.00  0.00    -0.399 A  
BRANCH   4   9
HETATM    9  C   UNL     1      -8.114  16.583  67.904  1.00  0.00    -0.168 C  
HETATM   10  C   UNL     1      -7.087  16.603  66.735  1.00  0.00    -0.271 C  
HETATM   11  C   UNL     1      -8.439  18.027  68.378  1.00  0.00    -0.306 C  
HETATM   12  C   UNL     1      -6.451  18.116  69.899  1.00  0.00     0.026 C  
HETATM   13  C   UNL     1      -6.228  18.826  67.500  1.00  0.00    -0.183 C  
HETATM   14  C   UNL     1      -7.159  18.804  68.725  1.00  0.00    -0.335 C  
HETATM   15  C   UNL     1      -6.081  16.682  69.505  1.00  0.00    -0.214 C  
HETATM   16  C   UNL     1      -5.822  17.395  67.114  1.00  0.00    -0.173 C  
HETATM   17  C   UNL     1      -5.126  16.722  68.306  1.00  0.00    -0.115 C  
HETATM   18  C   UNL     1      -7.354  15.910  69.111  1.00  0.00    -0.198 C  
ENDBRANCH   4   9
BRANCH   7  19
HETATM   19  C   UNL     1     -11.207  12.650  68.567  1.00  0.00    -0.315 A  
HETATM   20  C   UNL     1     -11.956   9.200  70.910  1.00  0.00    -0.299 A  
HETATM   21  C   UNL     1     -11.023  10.228  68.909  1.00  0.00    -0.279 A  
HETATM   22  C   UNL     1     -12.207  11.589  70.529  1.00  0.00    -0.469 A  
HETATM   23  C   UNL     1     -11.929  12.725  69.772  1.00  0.00    -0.362 A  
HETATM   24  C   UNL     1     -10.781  11.381  68.143  1.00  0.00    -0.241 A  
HETATM   25  C   UNL     1     -11.743  10.337  70.119  1.00  0.00    -0.364 A  
HETATM   26  C   UNL     1     -11.459   7.957  70.505  1.00  0.00    -0.204 A  
HETATM   27  C   UNL     1     -10.742   7.849  69.309  1.00  0.00    -0.145 A  
HETATM   28  C   UNL     1     -11.601   6.744  71.349  1.00  0.00    -0.305 C  
HETATM   29  O   UNL     1     -10.773   5.851  71.361  1.00  0.00    -0.242 OA 
HETATM   30  C   UNL     1     -10.535   8.975  68.511  1.00  0.00    -0.232 A  
HETATM   31  O   UNL     1     -12.738   6.708  72.074  1.00  0.00    -0.301 OA 
ENDBRANCH   7  19
ENDBRANCH   2   3
TORSDOF 3
ENDMDL
MODEL       37
REMARK 921   NORMALIZED FREE ENERGY PREDICTED BY IDOCK:   -6.63 KCAL/MOL
REMARK 922        TOTAL FREE ENERGY PREDICTED BY IDOCK:   -8.58 KCAL/MOL
REMARK 923 INTER-LIGAND FREE ENERGY PREDICTED BY IDOCK:   -7.92 KCAL/MOL
REMARK 924 INTRA-LIGAND FREE ENERGY PREDICTED BY IDOCK:   -0.67 KCAL/MOL
REMARK 927      BINDING AFFINITY PREDICTED BY RF-SCORE:    0.00 PKD
ROOT
HETATM    1  C   UNL     1     -10.774   8.219  72.315  1.00  0.00    -0.329 C  
HETATM    2  O   UNL     1     -11.232   8.214  70.960  1.00  0.00    -0.250 OA 
ENDROOT
BRANCH   2   3
HETATM    3  C   UNL     1     -11.267   9.432  70.326  1.00  0.00    -0.246 A  
HETATM    4  C   UNL     1     -10.649   9.562  69.053  1.00  0.00    -0.238 A  
HETATM    5  C   UNL     1     -10.726  10.833  68.444  1.00  0.00    -0.255 A  
HETATM    6  C   UNL     1     -11.860  10.550  70.935  1.00  0.00    -0.455 A  
HETATM    7  C   UNL     1     -11.298  11.965  69.050  1.00  0.00    -0.337 A  
HETATM    8  C   UNL     1     -11.865  11.796  70.313  1.00  0.00    -0.382 A  
BRANCH   4   9
HETATM    9  C   UNL     1      -9.860   8.430  68.348  1.00  0.00    -0.192 C  
HETATM   10  C   UNL     1     -10.849   7.318  67.890  1.00  0.00    -0.184 C  
HETATM   11  C   UNL     1      -9.039   8.970  67.144  1.00  0.00    -0.158 C  
HETATM   12  C   UNL     1      -7.335   7.142  67.319  1.00  0.00    -0.091 C  
HETATM   13  C   UNL     1      -9.392   6.809  65.919  1.00  0.00     0.051 C  
HETATM   14  C   UNL     1      -8.340   7.829  66.387  1.00  0.00    -0.131 C  
HETATM   15  C   UNL     1      -8.072   6.567  68.533  1.00  0.00    -0.114 C  
HETATM   16  C   UNL     1     -10.118   6.197  67.128  1.00  0.00    -0.210 C  
HETATM   17  C   UNL     1      -9.091   5.526  68.053  1.00  0.00    -0.110 C  
HETATM   18  C   UNL     1      -8.813   7.697  69.272  1.00  0.00    -0.136 C  
ENDBRANCH   4   9
BRANCH   7  19
HETATM   19  C   UNL     1     -11.240  13.285  68.395  1.00  0.00    -0.314 A  
HETATM   20  C   UNL     1     -10.857  17.024  66.438  1.00  0.00     0.048 A  
HETATM   21  C   UNL     1     -10.837  15.704  68.484  1.00  0.00    -0.282 A  
HETATM   22  C   UNL     1     -11.334  14.640  66.363  1.00  0.00    -0.348 A  
HETATM   23  C   UNL     1     -11.426  13.408  67.007  1.00  0.00    -0.372 A  
HETATM   24  C   UNL     1     -10.966  14.457  69.120  1.00  0.00    -0.288 A  
HETATM   25  C   UNL     1     -11.022  15.792  67.087  1.00  0.00    -0.244 A  
HETATM   26  C   UNL     1     -10.512  18.165  67.169  1.00  0.00    -0.392 A  
HETATM   27  C   UNL     1     -10.325  18.077  68.552  1.00  0.00    -0.359 A  
HETATM   28  C   UNL     1     -10.258  19.470  66.509  1.00  0.00    -0.467 C  
HETATM   29  O   UNL     1      -9.458  20.281  66.942  1.00  0.00    -0.377 OA 
HETATM   30  C   UNL     1     -10.498  16.857  69.207  1.00  0.00    -0.319 A  
HETATM   31  O   UNL     1     -11.011  19.688  65.411  1.00  0.00    -0.438 OA 
ENDBRANCH   7  19
ENDBRANCH   2   3
TORSDOF 3
ENDMDL
MODEL       38
REMARK 921   NORMALIZED FREE ENERGY PREDICTED BY IDOCK:   -6.61 KCAL/MOL
REMARK 922        TOTAL FREE ENERGY PREDICTED BY IDOCK:   -8.56 KCAL/MOL
REMARK 923 INTER-LIGAND FREE ENERGY PREDICTED BY IDOCK:   -8.08 KCAL/MOL
REMARK 924 INTRA-LIGAND FREE ENERGY PREDICTED BY IDOCK:   -0.48 KCAL/MOL
REMARK 927      BINDING AFFINITY PREDICTED BY RF-SCORE:    0.00 PKD
ROOT
HETATM    1  C   UNL     1      -8.091  11.106  62.330  1.00  0.00    -0.097 C  
HETATM    2  O   UNL     1      -9.257  11.229  63.149  1.00  0.00    -0.278 OA 
ENDROOT
BRANCH   2   3
HETATM    3  C   UNL     1      -9.326  10.394  64.238  1.00  0.00    -0.277 A  
HETATM    4  C   UNL     1     -10.004  10.841  65.404  1.00  0.00    -0.330 A  
HETATM    5  C   UNL     1     -10.052   9.937  66.488  1.00  0.00    -0.298 A  
HETATM    6  C   UNL     1      -8.700   9.136  64.229  1.00  0.00    -0.180 A  
HETATM    7  C   UNL     1      -9.414   8.685  66.500  1.00  0.00    -0.278 A  
HETATM    8  C   UNL     1      -8.735   8.303  65.344  1.00  0.00    -0.147 A  
BRANCH   4   9
HETATM    9  C   UNL     1     -10.619  12.253  65.567  1.00  0.00    -0.304 C  
HETATM   10  C   UNL     1     -11.271  12.692  64.223  1.00  0.00    -0.410 C  
HETATM   11  C   UNL     1     -11.657  12.295  66.723  1.00  0.00    -0.434 C  
HETATM   12  C   UNL     1     -11.286  14.737  67.142  1.00  0.00    -0.363 C  
HETATM   13  C   UNL     1     -13.006  13.998  65.467  1.00  0.00    -0.353 C  
HETATM   14  C   UNL     1     -12.338  13.670  66.814  1.00  0.00    -0.354 C  
HETATM   15  C   UNL     1     -10.227  14.769  66.035  1.00  0.00    -0.320 C  
HETATM   16  C   UNL     1     -11.951  14.067  64.352  1.00  0.00    -0.480 C  
HETATM   17  C   UNL     1     -10.902  15.132  64.706  1.00  0.00    -0.378 C  
HETATM   18  C   UNL     1      -9.571  13.382  65.906  1.00  0.00    -0.127 C  
ENDBRANCH   4   9
BRANCH   7  19
HETATM   19  C   UNL     1      -9.417   7.845  67.712  1.00  0.00    -0.165 A  
HETATM   20  C   UNL     1      -9.520   5.259  71.067  1.00  0.00    -0.211 A  
HETATM   21  C   UNL     1     -10.446   7.137  69.824  1.00  0.00    -0.238 A  
HETATM   22  C   UNL     1      -8.456   6.013  69.014  1.00  0.00    -0.117 A  
HETATM   23  C   UNL     1      -8.446   6.845  67.896  1.00  0.00    -0.120 A  
HETATM   24  C   UNL     1     -10.400   7.987  68.705  1.00  0.00    -0.223 A  
HETATM   25  C   UNL     1      -9.461   6.136  69.976  1.00  0.00    -0.172 A  
HETATM   26  C   UNL     1     -10.551   5.371  72.007  1.00  0.00    -0.284 A  
HETATM   27  C   UNL     1     -11.528   6.359  71.855  1.00  0.00    -0.352 A  
HETATM   28  C   UNL     1     -10.688   4.416  73.135  1.00  0.00    -0.220 C  
HETATM   29  O   UNL     1     -11.769   4.104  73.603  1.00  0.00    -0.141 OA 
HETATM   30  C   UNL     1     -11.470   7.244  70.776  1.00  0.00    -0.328 A  
HETATM   31  O   UNL     1      -9.514   3.953  73.611  1.00  0.00    -0.103 OA 
ENDBRANCH   7  19
ENDBRANCH   2   3
TORSDOF 3
ENDMDL
MODEL       39
REMARK 921   NORMALIZED FREE ENERGY PREDICTED BY IDOCK:   -6.60 KCAL/MOL
REMARK 922        TOTAL FREE ENERGY PREDICTED BY IDOCK:   -8.55 KCAL/MOL
REMARK 923 INTER-LIGAND FREE ENERGY PREDICTED BY IDOCK:   -7.97 KCAL/MOL
REMARK 924 INTRA-LIGAND FREE ENERGY PREDICTED BY IDOCK:   -0.58 KCAL/MOL
REMARK 927      BINDING AFFINITY PREDICTED BY RF-SCORE:    0.00 PKD
ROOT
HETATM    1  C   UNL     1     -13.574  13.873  72.238  1.00  0.00    -0.544 C  
HETATM    2  O   UNL     1     -12.859  13.903  71.000  1.00  0.00    -0.328 OA 
ENDROOT
BRANCH   2   3
HETATM    3  C   UNL     1     -12.346  12.705  70.564  1.00  0.00    -0.268 A  
HETATM    4  C   UNL     1     -11.324  12.714  69.578  1.00  0.00    -0.227 A  
HETATM    5  C   UNL     1     -10.828  11.455  69.175  1.00  0.00    -0.260 A  
HETATM    6  C   UNL     1     -12.850  11.484  71.042  1.00  0.00    -0.358 A  
HETATM    7  C   UNL     1     -11.335  10.226  69.631  1.00  0.00    -0.315 A  
HETATM    8  C   UNL     1     -12.360  10.267  70.575  1.00  0.00    -0.371 A  
BRANCH   4   9
HETATM    9  C   UNL     1     -10.785  13.995  68.892  1.00  0.00    -0.265 C  
HETATM   10  C   UNL     1      -9.332  13.744  68.395  1.00  0.00    -0.190 C  
HETATM   11  C   UNL     1     -11.700  14.443  67.719  1.00  0.00    -0.407 C  
HETATM   12  C   UNL     1     -11.027  16.846  67.939  1.00  0.00    -0.251 C  
HETATM   13  C   UNL     1      -9.700  15.301  66.470  1.00  0.00    -0.287 C  
HETATM   14  C   UNL     1     -11.108  15.654  66.978  1.00  0.00    -0.200 C  
HETATM   15  C   UNL     1     -10.125  16.488  69.125  1.00  0.00    -0.287 C  
HETATM   16  C   UNL     1      -8.773  14.971  67.652  1.00  0.00    -0.182 C  
HETATM   17  C   UNL     1      -8.716  16.173  68.606  1.00  0.00    -0.214 C  
HETATM   18  C   UNL     1     -10.686  15.247  69.845  1.00  0.00    -0.300 C  
ENDBRANCH   4   9
BRANCH   7  19
HETATM   19  C   UNL     1     -10.839   8.951  69.079  1.00  0.00    -0.071 A  
HETATM   20  C   UNL     1      -9.631   5.247  67.411  1.00  0.00    -0.146 A  
HETATM   21  C   UNL     1     -10.244   6.587  69.351  1.00  0.00    -0.214 A  
HETATM   22  C   UNL     1     -10.145   7.611  67.155  1.00  0.00    -0.323 A  
HETATM   23  C   UNL     1     -10.574   8.818  67.704  1.00  0.00    -0.281 A  
HETATM   24  C   UNL     1     -10.645   7.821  69.890  1.00  0.00    -0.239 A  
HETATM   25  C   UNL     1      -9.994   6.483  67.965  1.00  0.00    -0.146 A  
HETATM   26  C   UNL     1      -9.515   4.117  68.227  1.00  0.00    -0.213 A  
HETATM   27  C   UNL     1      -9.766   4.218  69.599  1.00  0.00    -0.284 A  
HETATM   28  C   UNL     1      -9.204   2.777  67.668  1.00  0.00    -0.198 C  
HETATM   29  O   UNL     1      -9.627   1.746  68.160  1.00  0.00    -0.193 OA 
HETATM   30  C   UNL     1     -10.118   5.447  70.159  1.00  0.00    -0.322 A  
HETATM   31  O   UNL     1      -8.391   2.804  66.592  1.00  0.00    -0.089 OA 
ENDBRANCH   7  19
ENDBRANCH   2   3
TORSDOF 3
ENDMDL
MODEL       40
REMARK 921   NORMALIZED FREE ENERGY PREDICTED BY IDOCK:   -6.59 KCAL/MOL
REMARK 922        TOTAL FREE ENERGY PREDICTED BY IDOCK:   -8.53 KCAL/MOL
REMARK 923 INTER-LIGAND FREE ENERGY PREDICTED BY IDOCK:   -8.17 KCAL/MOL
REMARK 924 INTRA-LIGAND FREE ENERGY PREDICTED BY IDOCK:   -0.37 KCAL/MOL
REMARK 927      BINDING AFFINITY PREDICTED BY RF-SCORE:    0.00 PKD
ROOT
HETATM    1  C   UNL     1     -11.897   6.276  72.036  1.00  0.00    -0.318 C  
HETATM    2  O   UNL     1     -10.920   6.446  71.006  1.00  0.00    -0.248 OA 
ENDROOT
BRANCH   2   3
HETATM    3  C   UNL     1     -10.995   7.613  70.285  1.00  0.00    -0.252 A  
HETATM    4  C   UNL     1     -10.423   7.655  68.984  1.00  0.00    -0.214 A  
HETATM    5  C   UNL     1     -10.539   8.877  68.286  1.00  0.00    -0.203 A  
HETATM    6  C   UNL     1     -11.581   8.767  70.830  1.00  0.00    -0.320 A  
HETATM    7  C   UNL     1     -11.105  10.044  68.827  1.00  0.00    -0.219 A  
HETATM    8  C   UNL     1     -11.625   9.963  70.118  1.00  0.00    -0.281 A  
BRANCH   4   9
HETATM    9  C   UNL     1      -9.644   6.483  68.338  1.00  0.00    -0.122 C  
HETATM   10  C   UNL     1     -10.594   5.687  67.395  1.00  0.00    -0.312 C  
HETATM   11  C   UNL     1      -8.393   6.985  67.564  1.00  0.00    -0.119 C  
HETATM   12  C   UNL     1      -7.170   4.821  67.875  1.00  0.00    -0.066 C  
HETATM   13  C   UNL     1      -8.672   5.139  65.888  1.00  0.00    -0.135 C  
HETATM   14  C   UNL     1      -7.681   5.831  66.840  1.00  0.00    -0.101 C  
HETATM   15  C   UNL     1      -8.352   4.264  68.675  1.00  0.00    -0.092 C  
HETATM   16  C   UNL     1      -9.848   4.545  66.681  1.00  0.00    -0.244 C  
HETATM   17  C   UNL     1      -9.312   3.547  67.718  1.00  0.00    -0.246 C  
HETATM   18  C   UNL     1      -9.098   5.420  69.367  1.00  0.00    -0.135 C  
ENDBRANCH   4   9
BRANCH   7  19
HETATM   19  C   UNL     1     -11.088  11.312  68.074  1.00  0.00    -0.325 A  
HETATM   20  C   UNL     1     -10.812  14.916  65.863  1.00  0.00    -0.336 A  
HETATM   21  C   UNL     1     -10.905  13.758  68.003  1.00  0.00    -0.263 A  
HETATM   22  C   UNL     1     -11.073  12.499  65.937  1.00  0.00    -0.334 A  
HETATM   23  C   UNL     1     -11.130  11.315  66.668  1.00  0.00    -0.299 A  
HETATM   24  C   UNL     1     -10.997  12.554  68.723  1.00  0.00    -0.294 A  
HETATM   25  C   UNL     1     -10.942  13.726  66.591  1.00  0.00    -0.298 A  
HETATM   26  C   UNL     1     -10.648  16.136  66.529  1.00  0.00    -0.268 A  
HETATM   27  C   UNL     1     -10.608  16.167  67.926  1.00  0.00    -0.309 A  
HETATM   28  C   UNL     1     -10.436  17.407  65.793  1.00  0.00    -0.215 C  
HETATM   29  O   UNL     1      -9.760  18.318  66.236  1.00  0.00    -0.376 OA 
HETATM   30  C   UNL     1     -10.747  14.987  68.659  1.00  0.00    -0.244 A  
HETATM   31  O   UNL     1     -11.079  17.472  64.609  1.00  0.00    -0.978 OA 
ENDBRANCH   7  19
ENDBRANCH   2   3
TORSDOF 3
ENDMDL
MODEL       41
REMARK 921   NORMALIZED FREE ENERGY PREDICTED BY IDOCK:   -6.56 KCAL/MOL
REMARK 922        TOTAL FREE ENERGY PREDICTED BY IDOCK:   -8.50 KCAL/MOL
REMARK 923 INTER-LIGAND FREE ENERGY PREDICTED BY IDOCK:   -8.18 KCAL/MOL
REMARK 924 INTRA-LIGAND FREE ENERGY PREDICTED BY IDOCK:   -0.32 KCAL/MOL
REMARK 927      BINDING AFFINITY PREDICTED BY RF-SCORE:    0.00 PKD
ROOT
HETATM    1  C   UNL     1     -12.830  15.677  71.353  1.00  0.00    -0.482 C  
HETATM    2  O   UNL     1     -12.043  15.778  70.164  1.00  0.00    -0.365 OA 
ENDROOT
BRANCH   2   3
HETATM    3  C   UNL     1     -11.568  14.597  69.647  1.00  0.00    -0.307 A  
HETATM    4  C   UNL     1     -10.512  14.638  68.698  1.00  0.00    -0.244 A  
HETATM    5  C   UNL     1     -10.057  13.394  68.209  1.00  0.00    -0.247 A  
HETATM    6  C   UNL     1     -12.141  13.366  70.006  1.00  0.00    -0.404 A  
HETATM    7  C   UNL     1     -10.634  12.157  68.545  1.00  0.00    -0.252 A  
HETATM    8  C   UNL     1     -11.689  12.169  69.456  1.00  0.00    -0.402 A  
BRANCH   4   9
HETATM    9  C   UNL     1      -9.893  15.944  68.139  1.00  0.00    -0.214 C  
HETATM   10  C   UNL     1     -10.960  17.077  68.171  1.00  0.00    -0.263 C  
HETATM   11  C   UNL     1      -8.623  16.360  68.931  1.00  0.00    -0.250 C  
HETATM   12  C   UNL     1      -7.641  17.575  66.973  1.00  0.00    -0.235 C  
HETATM   13  C   UNL     1      -9.168  18.781  68.560  1.00  0.00    -0.386 C  
HETATM   14  C   UNL     1      -8.072  17.708  68.439  1.00  0.00    -0.285 C  
HETATM   15  C   UNL     1      -8.848  17.179  66.117  1.00  0.00    -0.220 C  
HETATM   16  C   UNL     1     -10.374  18.414  67.680  1.00  0.00    -0.427 C  
HETATM   17  C   UNL     1      -9.917  18.274  66.221  1.00  0.00    -0.361 C  
HETATM   18  C   UNL     1      -9.434  15.851  66.633  1.00  0.00    -0.263 C  
ENDBRANCH   4   9
BRANCH   7  19
HETATM   19  C   UNL     1     -10.175  10.910  67.905  1.00  0.00    -0.205 A  
HETATM   20  C   UNL     1      -8.995   7.377  65.884  1.00  0.00    -0.114 A  
HETATM   21  C   UNL     1     -10.304   8.477  67.618  1.00  0.00    -0.317 A  
HETATM   22  C   UNL     1      -8.809   9.779  66.222  1.00  0.00    -0.165 A  
HETATM   23  C   UNL     1      -9.225  10.941  66.868  1.00  0.00    -0.175 A  
HETATM   24  C   UNL     1     -10.687   9.657  68.279  1.00  0.00    -0.262 A  
HETATM   25  C   UNL     1      -9.354   8.542  66.575  1.00  0.00    -0.260 A  
HETATM   26  C   UNL     1      -9.573   6.149  66.224  1.00  0.00    -0.123 A  
HETATM   27  C   UNL     1     -10.515   6.085  67.255  1.00  0.00    -0.319 A  
HETATM   28  C   UNL     1      -9.272   4.907  65.470  1.00  0.00    -0.157 C  
HETATM   29  O   UNL     1     -10.088   4.014  65.323  1.00  0.00    -0.199 OA 
HETATM   30  C   UNL     1     -10.871   7.239  67.955  1.00  0.00    -0.184 A  
HETATM   31  O   UNL     1      -8.013   4.845  64.989  1.00  0.00    -0.093 OA 
ENDBRANCH   7  19
ENDBRANCH   2   3
TORSDOF 3
ENDMDL
MODEL       42
REMARK 921   NORMALIZED FREE ENERGY PREDICTED BY IDOCK:   -6.53 KCAL/MOL
REMARK 922        TOTAL FREE ENERGY PREDICTED BY IDOCK:   -8.47 KCAL/MOL
REMARK 923 INTER-LIGAND FREE ENERGY PREDICTED BY IDOCK:   -7.66 KCAL/MOL
REMARK 924 INTRA-LIGAND FREE ENERGY PREDICTED BY IDOCK:   -0.81 KCAL/MOL
REMARK 927      BINDING AFFINITY PREDICTED BY RF-SCORE:    0.00 PKD
ROOT
HETATM    1  C   UNL     1      -7.016   7.762  63.226  1.00  0.00    -0.073 C  
HETATM    2  O   UNL     1      -8.045   7.304  64.106  1.00  0.00    -0.120 OA 
ENDROOT
BRANCH   2   3
HETATM    3  C   UNL     1      -8.628   8.256  64.908  1.00  0.00    -0.048 A  
HETATM    4  C   UNL     1      -8.915   7.932  66.261  1.00  0.00    -0.207 A  
HETATM    5  C   UNL     1      -9.503   8.952  67.040  1.00  0.00    -0.215 A  
HETATM    6  C   UNL     1      -8.982   9.516  64.398  1.00  0.00    -0.255 A  
HETATM    7  C   UNL     1      -9.880  10.209  66.539  1.00  0.00    -0.268 A  
HETATM    8  C   UNL     1      -9.606  10.470  65.196  1.00  0.00    -0.316 A  
BRANCH   4   9
HETATM    9  C   UNL     1      -8.683   6.536  66.891  1.00  0.00    -0.115 C  
HETATM   10  C   UNL     1      -9.001   6.595  68.414  1.00  0.00    -0.123 C  
HETATM   11  C   UNL     1      -9.537   5.443  66.190  1.00  0.00    -0.169 C  
HETATM   12  C   UNL     1      -7.922   3.620  66.774  1.00  0.00    -0.091 C  
HETATM   13  C   UNL     1      -9.772   4.214  68.365  1.00  0.00    -0.150 C  
HETATM   14  C   UNL     1      -9.381   4.079  66.883  1.00  0.00    -0.200 C  
HETATM   15  C   UNL     1      -7.009   4.643  67.459  1.00  0.00    -0.061 C  
HETATM   16  C   UNL     1      -8.843   5.212  69.074  1.00  0.00    -0.108 C  
HETATM   17  C   UNL     1      -7.388   4.739  68.942  1.00  0.00    -0.057 C  
HETATM   18  C   UNL     1      -7.194   6.023  66.800  1.00  0.00    -0.071 C  
ENDBRANCH   4   9
BRANCH   7  19
HETATM   19  C   UNL     1     -10.592  11.181  67.389  1.00  0.00    -0.272 A  
HETATM   20  C   UNL     1     -12.428  14.056  69.903  1.00  0.00    -0.301 A  
HETATM   21  C   UNL     1     -11.758  11.755  69.470  1.00  0.00    -0.408 A  
HETATM   22  C   UNL     1     -11.343  13.470  67.807  1.00  0.00    -0.327 A  
HETATM   23  C   UNL     1     -10.711  12.527  66.999  1.00  0.00    -0.268 A  
HETATM   24  C   UNL     1     -11.145  10.813  68.626  1.00  0.00    -0.312 A  
HETATM   25  C   UNL     1     -11.854  13.101  69.053  1.00  0.00    -0.358 A  
HETATM   26  C   UNL     1     -12.907  13.681  71.163  1.00  0.00    -0.399 A  
HETATM   27  C   UNL     1     -12.809  12.350  71.578  1.00  0.00    -0.377 A  
HETATM   28  C   UNL     1     -13.455  14.675  72.119  1.00  0.00    -0.395 C  
HETATM   29  O   UNL     1     -13.351  14.552  73.327  1.00  0.00    -0.611 OA 
HETATM   30  C   UNL     1     -12.248  11.391  70.733  1.00  0.00    -0.475 A  
HETATM   31  O   UNL     1     -14.100  15.705  71.534  1.00  0.00    -0.507 OA 
ENDBRANCH   7  19
ENDBRANCH   2   3
TORSDOF 3
ENDMDL
MODEL       43
REMARK 921   NORMALIZED FREE ENERGY PREDICTED BY IDOCK:   -6.53 KCAL/MOL
REMARK 922        TOTAL FREE ENERGY PREDICTED BY IDOCK:   -8.47 KCAL/MOL
REMARK 923 INTER-LIGAND FREE ENERGY PREDICTED BY IDOCK:   -7.72 KCAL/MOL
REMARK 924 INTRA-LIGAND FREE ENERGY PREDICTED BY IDOCK:   -0.75 KCAL/MOL
REMARK 927      BINDING AFFINITY PREDICTED BY RF-SCORE:    0.00 PKD
ROOT
HETATM    1  C   UNL     1      -8.320   3.237  69.455  1.00  0.00    -0.059 C  
HETATM    2  O   UNL     1      -9.045   4.010  68.495  1.00  0.00    -0.116 OA 
ENDROOT
BRANCH   2   3
HETATM    3  C   UNL     1      -9.654   5.148  68.966  1.00  0.00    -0.145 A  
HETATM    4  C   UNL     1      -9.435   6.375  68.284  1.00  0.00    -0.121 A  
HETATM    5  C   UNL     1     -10.093   7.510  68.806  1.00  0.00    -0.191 A  
HETATM    6  C   UNL     1     -10.442   5.122  70.128  1.00  0.00    -0.305 A  
HETATM    7  C   UNL     1     -10.869   7.502  69.978  1.00  0.00    -0.260 A  
HETATM    8  C   UNL     1     -11.029   6.280  70.630  1.00  0.00    -0.370 A  
BRANCH   4   9
HETATM    9  C   UNL     1      -8.486   6.541  67.071  1.00  0.00    -0.113 C  
HETATM   10  C   UNL     1      -8.844   7.850  66.308  1.00  0.00    -0.188 C  
HETATM   11  C   UNL     1      -6.995   6.547  67.508  1.00  0.00    -0.078 C  
HETATM   12  C   UNL     1      -6.206   5.677  65.295  1.00  0.00    -0.030 C  
HETATM   13  C   UNL     1      -6.446   8.151  65.657  1.00  0.00    -0.049 C  
HETATM   14  C   UNL     1      -6.062   6.814  66.314  1.00  0.00    -0.034 C  
HETATM   15  C   UNL     1      -7.655   5.613  64.801  1.00  0.00    -0.084 C  
HETATM   16  C   UNL     1      -7.887   8.090  65.126  1.00  0.00    -0.116 C  
HETATM   17  C   UNL     1      -8.011   6.939  64.117  1.00  0.00    -0.078 C  
HETATM   18  C   UNL     1      -8.601   5.392  65.997  1.00  0.00    -0.127 C  
ENDBRANCH   4   9
BRANCH   7  19
HETATM   19  C   UNL     1     -11.433   8.752  70.521  1.00  0.00    -0.222 A  
HETATM   20  C   UNL     1     -13.253  12.296  71.964  1.00  0.00    -0.508 A  
HETATM   21  C   UNL     1     -11.705  11.189  70.444  1.00  0.00    -0.415 A  
HETATM   22  C   UNL     1     -12.921   9.890  72.091  1.00  0.00    -0.471 A  
HETATM   23  C   UNL     1     -12.345   8.724  71.591  1.00  0.00    -0.394 A  
HETATM   24  C   UNL     1     -11.110  10.005  69.975  1.00  0.00    -0.350 A  
HETATM   25  C   UNL     1     -12.624  11.127  71.515  1.00  0.00    -0.431 A  
HETATM   26  C   UNL     1     -12.972  13.525  71.357  1.00  0.00    -0.421 A  
HETATM   27  C   UNL     1     -12.065  13.587  70.295  1.00  0.00    -0.425 A  
HETATM   28  C   UNL     1     -13.669  14.773  71.757  1.00  0.00    -0.421 C  
HETATM   29  O   UNL     1     -13.905  15.674  70.972  1.00  0.00    -0.567 OA 
HETATM   30  C   UNL     1     -11.427  12.428  69.848  1.00  0.00    -0.172 A  
HETATM   31  O   UNL     1     -13.990  14.830  73.066  1.00  0.00    -0.459 OA 
ENDBRANCH   7  19
ENDBRANCH   2   3
TORSDOF 3
ENDMDL
MODEL       44
REMARK 921   NORMALIZED FREE ENERGY PREDICTED BY IDOCK:   -6.52 KCAL/MOL
REMARK 922        TOTAL FREE ENERGY PREDICTED BY IDOCK:   -8.45 KCAL/MOL
REMARK 923 INTER-LIGAND FREE ENERGY PREDICTED BY IDOCK:   -7.79 KCAL/MOL
REMARK 924 INTRA-LIGAND FREE ENERGY PREDICTED BY IDOCK:   -0.67 KCAL/MOL
REMARK 927      BINDING AFFINITY PREDICTED BY RF-SCORE:    0.00 PKD
ROOT
HETATM    1  C   UNL     1     -10.595   4.658  74.548  1.00  0.00    -0.189 C  
HETATM    2  O   UNL     1      -9.692   4.955  73.480  1.00  0.00    -0.134 OA 
ENDROOT
BRANCH   2   3
HETATM    3  C   UNL     1     -10.028   6.017  72.676  1.00  0.00    -0.176 A  
HETATM    4  C   UNL     1      -9.879   5.889  71.269  1.00  0.00    -0.215 A  
HETATM    5  C   UNL     1     -10.250   7.008  70.493  1.00  0.00    -0.209 A  
HETATM    6  C   UNL     1     -10.469   7.232  73.227  1.00  0.00    -0.416 A  
HETATM    7  C   UNL     1     -10.673   8.236  71.031  1.00  0.00    -0.256 A  
HETATM    8  C   UNL     1     -10.775   8.324  72.419  1.00  0.00    -0.411 A  
BRANCH   4   9
HETATM    9  C   UNL     1      -9.284   4.643  70.567  1.00  0.00    -0.193 C  
HETATM   10  C   UNL     1      -7.735   4.651  70.721  1.00  0.00    -0.061 C  
HETATM   11  C   UNL     1      -9.888   3.326  71.130  1.00  0.00    -0.144 C  
HETATM   12  C   UNL     1      -9.497   2.078  68.994  1.00  0.00    -0.160 C  
HETATM   13  C   UNL     1      -7.705   2.148  70.752  1.00  0.00    -0.039 C  
HETATM   14  C   UNL     1      -9.222   2.091  70.503  1.00  0.00    -0.180 C  
HETATM   15  C   UNL     1      -8.916   3.345  68.357  1.00  0.00    -0.185 C  
HETATM   16  C   UNL     1      -7.102   3.397  70.089  1.00  0.00    -0.041 C  
HETATM   17  C   UNL     1      -7.399   3.369  68.583  1.00  0.00    -0.050 C  
HETATM   18  C   UNL     1      -9.545   4.589  69.012  1.00  0.00    -0.245 C  
ENDBRANCH   4   9
BRANCH   7  19
HETATM   19  C   UNL     1     -10.936   9.395  70.158  1.00  0.00    -0.282 A  
HETATM   20  C   UNL     1     -11.917  12.657  67.638  1.00  0.00    -0.309 A  
HETATM   21  C   UNL     1     -10.920  10.456  67.946  1.00  0.00    -0.354 A  
HETATM   22  C   UNL     1     -11.861  11.636  69.845  1.00  0.00    -0.434 A  
HETATM   23  C   UNL     1     -11.566  10.547  70.662  1.00  0.00    -0.445 A  
HETATM   24  C   UNL     1     -10.602   9.381  68.794  1.00  0.00    -0.234 A  
HETATM   25  C   UNL     1     -11.560  11.596  68.481  1.00  0.00    -0.379 A  
HETATM   26  C   UNL     1     -11.640  12.592  66.268  1.00  0.00    -0.449 A  
HETATM   27  C   UNL     1     -11.010  11.462  65.737  1.00  0.00    -0.256 A  
HETATM   28  C   UNL     1     -12.066  13.662  65.332  1.00  0.00    -0.403 C  
HETATM   29  O   UNL     1     -12.370  13.439  64.173  1.00  0.00    -0.558 OA 
HETATM   30  C   UNL     1     -10.642  10.406  66.572  1.00  0.00    -0.220 A  
HETATM   31  O   UNL     1     -12.059  14.899  65.869  1.00  0.00    -0.159 OA 
ENDBRANCH   7  19
ENDBRANCH   2   3
TORSDOF 3
ENDMDL
MODEL       45
REMARK 921   NORMALIZED FREE ENERGY PREDICTED BY IDOCK:   -6.50 KCAL/MOL
REMARK 922        TOTAL FREE ENERGY PREDICTED BY IDOCK:   -8.42 KCAL/MOL
REMARK 923 INTER-LIGAND FREE ENERGY PREDICTED BY IDOCK:   -7.75 KCAL/MOL
REMARK 924 INTRA-LIGAND FREE ENERGY PREDICTED BY IDOCK:   -0.67 KCAL/MOL
REMARK 927      BINDING AFFINITY PREDICTED BY RF-SCORE:    0.00 PKD
ROOT
HETATM    1  C   UNL     1      -7.961   5.508  65.373  1.00  0.00    -0.109 C  
HETATM    2  O   UNL     1      -8.745   5.176  66.522  1.00  0.00    -0.111 OA 
ENDROOT
BRANCH   2   3
HETATM    3  C   UNL     1      -9.255   6.234  67.236  1.00  0.00    -0.118 A  
HETATM    4  C   UNL     1      -9.335   6.132  68.651  1.00  0.00    -0.121 A  
HETATM    5  C   UNL     1      -9.856   7.253  69.333  1.00  0.00    -0.163 A  
HETATM    6  C   UNL     1      -9.736   7.383  66.586  1.00  0.00    -0.262 A  
HETATM    7  C   UNL     1     -10.359   8.400  68.695  1.00  0.00    -0.222 A  
HETATM    8  C   UNL     1     -10.288   8.441  67.303  1.00  0.00    -0.369 A  
BRANCH   4   9
HETATM    9  C   UNL     1      -8.951   4.866  69.456  1.00  0.00    -0.130 C  
HETATM   10  C   UNL     1      -7.401   4.719  69.482  1.00  0.00    -0.056 C  
HETATM   11  C   UNL     1      -9.525   4.910  70.899  1.00  0.00    -0.227 C  
HETATM   12  C   UNL     1      -9.593   2.414  71.089  1.00  0.00    -0.215 C  
HETATM   13  C   UNL     1      -7.519   3.666  71.750  1.00  0.00    -0.056 C  
HETATM   14  C   UNL     1      -9.056   3.702  71.726  1.00  0.00    -0.166 C  
HETATM   15  C   UNL     1      -9.057   2.287  69.659  1.00  0.00    -0.175 C  
HETATM   16  C   UNL     1      -6.967   3.505  70.324  1.00  0.00    -0.034 C  
HETATM   17  C   UNL     1      -7.525   2.217  69.702  1.00  0.00    -0.043 C  
HETATM   18  C   UNL     1      -9.483   3.517  68.836  1.00  0.00    -0.210 C  
ENDBRANCH   4   9
BRANCH   7  19
HETATM   19  C   UNL     1     -10.990   9.483  69.473  1.00  0.00    -0.217 A  
HETATM   20  C   UNL     1     -13.013  12.524  71.622  1.00  0.00    -0.405 A  
HETATM   21  C   UNL     1     -11.630  11.837  69.739  1.00  0.00    -0.372 A  
HETATM   22  C   UNL     1     -12.312  10.205  71.398  1.00  0.00    -0.515 A  
HETATM   23  C   UNL     1     -11.673   9.204  70.670  1.00  0.00    -0.256 A  
HETATM   24  C   UNL     1     -10.964  10.817  69.036  1.00  0.00    -0.289 A  
HETATM   25  C   UNL     1     -12.314  11.522  70.934  1.00  0.00    -0.460 A  
HETATM   26  C   UNL     1     -13.035  13.833  71.129  1.00  0.00    -0.370 A  
HETATM   27  C   UNL     1     -12.361  14.143  69.944  1.00  0.00    -0.382 A  
HETATM   28  C   UNL     1     -13.823  14.904  71.789  1.00  0.00    -0.462 C  
HETATM   29  O   UNL     1     -14.331  15.822  71.170  1.00  0.00    -0.401 OA 
HETATM   30  C   UNL     1     -11.654  13.154  69.259  1.00  0.00    -0.370 A  
HETATM   31  O   UNL     1     -13.899  14.785  73.131  1.00  0.00    -0.464 OA 
ENDBRANCH   7  19
ENDBRANCH   2   3
TORSDOF 3
ENDMDL
MODEL       46
REMARK 921   NORMALIZED FREE ENERGY PREDICTED BY IDOCK:   -6.47 KCAL/MOL
REMARK 922        TOTAL FREE ENERGY PREDICTED BY IDOCK:   -8.40 KCAL/MOL
REMARK 923 INTER-LIGAND FREE ENERGY PREDICTED BY IDOCK:   -8.07 KCAL/MOL
REMARK 924 INTRA-LIGAND FREE ENERGY PREDICTED BY IDOCK:   -0.33 KCAL/MOL
REMARK 927      BINDING AFFINITY PREDICTED BY RF-SCORE:    0.00 PKD
ROOT
HETATM    1  C   UNL     1     -10.743  19.112  65.887  1.00  0.00    -0.351 C  
HETATM    2  O   UNL     1      -9.837  18.044  65.599  1.00  0.00    -0.494 OA 
ENDROOT
BRANCH   2   3
HETATM    3  C   UNL     1     -10.090  16.847  66.224  1.00  0.00    -0.324 A  
HETATM    4  C   UNL     1      -9.224  16.420  67.267  1.00  0.00    -0.224 A  
HETATM    5  C   UNL     1      -9.539  15.188  67.880  1.00  0.00    -0.203 A  
HETATM    6  C   UNL     1     -11.155  16.026  65.816  1.00  0.00    -0.032 A  
HETATM    7  C   UNL     1     -10.588  14.348  67.469  1.00  0.00    -0.265 A  
HETATM    8  C   UNL     1     -11.392  14.794  66.420  1.00  0.00    -0.339 A  
BRANCH   4   9
HETATM    9  C   UNL     1      -7.952  17.185  67.710  1.00  0.00    -0.190 C  
HETATM   10  C   UNL     1      -7.584  16.777  69.167  1.00  0.00    -0.181 C  
HETATM   11  C   UNL     1      -6.762  16.922  66.746  1.00  0.00    -0.262 C  
HETATM   12  C   UNL     1      -5.680  19.119  67.271  1.00  0.00    -0.174 C  
HETATM   13  C   UNL     1      -5.153  17.097  68.664  1.00  0.00    -0.136 C  
HETATM   14  C   UNL     1      -5.476  17.599  67.246  1.00  0.00    -0.152 C  
HETATM   15  C   UNL     1      -6.835  19.465  68.217  1.00  0.00    -0.309 C  
HETATM   16  C   UNL     1      -6.289  17.467  69.632  1.00  0.00    -0.201 C  
HETATM   17  C   UNL     1      -6.483  18.990  69.632  1.00  0.00    -0.259 C  
HETATM   18  C   UNL     1      -8.118  18.753  67.749  1.00  0.00    -0.276 C  
ENDBRANCH   4   9
BRANCH   7  19
HETATM   19  C   UNL     1     -10.783  13.023  68.087  1.00  0.00    -0.258 A  
HETATM   20  C   UNL     1     -11.523   9.181  69.714  1.00  0.00     0.106 A  
HETATM   21  C   UNL     1     -11.696  11.605  69.869  1.00  0.00    -0.414 A  
HETATM   22  C   UNL     1     -10.549  10.592  67.988  1.00  0.00    -0.251 A  
HETATM   23  C   UNL     1     -10.338  11.856  67.442  1.00  0.00    -0.228 A  
HETATM   24  C   UNL     1     -11.444  12.873  69.317  1.00  0.00    -0.341 A  
HETATM   25  C   UNL     1     -11.243  10.451  69.192  1.00  0.00    -0.301 A  
HETATM   26  C   UNL     1     -12.247   9.052  70.904  1.00  0.00    -0.205 A  
HETATM   27  C   UNL     1     -12.698  10.194  71.573  1.00  0.00    -0.541 A  
HETATM   28  C   UNL     1     -12.625   7.724  71.450  1.00  0.00    -0.317 C  
HETATM   29  O   UNL     1     -13.650   7.541  72.081  1.00  0.00    -0.162 OA 
HETATM   30  C   UNL     1     -12.415  11.463  71.065  1.00  0.00    -0.486 A  
HETATM   31  O   UNL     1     -11.720   6.752  71.211  1.00  0.00    -0.299 OA 
ENDBRANCH   7  19
ENDBRANCH   2   3
TORSDOF 3
ENDMDL
MODEL       47
REMARK 921   NORMALIZED FREE ENERGY PREDICTED BY IDOCK:   -6.45 KCAL/MOL
REMARK 922        TOTAL FREE ENERGY PREDICTED BY IDOCK:   -8.37 KCAL/MOL
REMARK 923 INTER-LIGAND FREE ENERGY PREDICTED BY IDOCK:   -7.69 KCAL/MOL
REMARK 924 INTRA-LIGAND FREE ENERGY PREDICTED BY IDOCK:   -0.68 KCAL/MOL
REMARK 927      BINDING AFFINITY PREDICTED BY RF-SCORE:    0.00 PKD
ROOT
HETATM    1  C   UNL     1      -5.902   5.541  69.912  1.00  0.00    -0.017 C  
HETATM    2  O   UNL     1      -7.234   5.743  69.433  1.00  0.00    -0.063 OA 
ENDROOT
BRANCH   2   3
HETATM    3  C   UNL     1      -7.538   7.010  68.998  1.00  0.00    -0.104 A  
HETATM    4  C   UNL     1      -8.525   7.757  69.695  1.00  0.00    -0.133 A  
HETATM    5  C   UNL     1      -8.789   9.056  69.210  1.00  0.00    -0.139 A  
HETATM    6  C   UNL     1      -6.924   7.552  67.856  1.00  0.00    -0.076 A  
HETATM    7  C   UNL     1      -8.197   9.603  68.058  1.00  0.00    -0.110 A  
HETATM    8  C   UNL     1      -7.257   8.820  67.389  1.00  0.00    -0.080 A  
BRANCH   4   9
HETATM    9  C   UNL     1      -9.351   7.211  70.886  1.00  0.00    -0.160 C  
HETATM   10  C   UNL     1     -10.165   5.966  70.424  1.00  0.00    -0.273 C  
HETATM   11  C   UNL     1      -8.444   6.858  72.097  1.00  0.00    -0.114 C  
HETATM   12  C   UNL     1     -10.285   7.234  73.753  1.00  0.00    -0.370 C  
HETATM   13  C   UNL     1      -9.977   4.969  72.712  1.00  0.00    -0.200 C  
HETATM   14  C   UNL     1      -9.254   6.221  73.238  1.00  0.00    -0.135 C  
HETATM   15  C   UNL     1     -11.234   7.624  72.615  1.00  0.00    -0.419 C  
HETATM   16  C   UNL     1     -10.958   5.350  71.592  1.00  0.00    -0.184 C  
HETATM   17  C   UNL     1     -11.972   6.372  72.127  1.00  0.00    -0.346 C  
HETATM   18  C   UNL     1     -10.424   8.221  71.449  1.00  0.00    -0.276 C  
ENDBRANCH   4   9
BRANCH   7  19
HETATM   19  C   UNL     1      -8.608  10.926  67.551  1.00  0.00    -0.127 A  
HETATM   20  C   UNL     1      -9.978  14.714  66.237  1.00  0.00    -0.306 A  
HETATM   21  C   UNL     1      -9.688  12.327  65.852  1.00  0.00    -0.247 A  
HETATM   22  C   UNL     1      -8.837  13.337  67.885  1.00  0.00    -0.192 A  
HETATM   23  C   UNL     1      -8.418  12.084  68.327  1.00  0.00    -0.167 A  
HETATM   24  C   UNL     1      -9.230  11.077  66.301  1.00  0.00    -0.200 A  
HETATM   25  C   UNL     1      -9.490  13.470  66.658  1.00  0.00    -0.271 A  
HETATM   26  C   UNL     1     -10.659  14.829  65.020  1.00  0.00    -0.452 A  
HETATM   27  C   UNL     1     -10.859  13.698  64.224  1.00  0.00    -0.297 A  
HETATM   28  C   UNL     1     -11.253  16.114  64.574  1.00  0.00    -0.264 C  
HETATM   29  O   UNL     1     -12.265  16.171  63.899  1.00  0.00    -0.935 OA 
HETATM   30  C   UNL     1     -10.367  12.456  64.631  1.00  0.00    -0.332 A  
HETATM   31  O   UNL     1     -10.557  17.205  64.957  1.00  0.00    -0.704 OA 
ENDBRANCH   7  19
ENDBRANCH   2   3
TORSDOF 3
ENDMDL
MODEL       48
REMARK 921   NORMALIZED FREE ENERGY PREDICTED BY IDOCK:   -6.41 KCAL/MOL
REMARK 922        TOTAL FREE ENERGY PREDICTED BY IDOCK:   -8.32 KCAL/MOL
REMARK 923 INTER-LIGAND FREE ENERGY PREDICTED BY IDOCK:   -7.60 KCAL/MOL
REMARK 924 INTRA-LIGAND FREE ENERGY PREDICTED BY IDOCK:   -0.72 KCAL/MOL
REMARK 927      BINDING AFFINITY PREDICTED BY RF-SCORE:    0.00 PKD
ROOT
HETATM    1  C   UNL     1     -13.195  11.170  71.930  1.00  0.00    -0.382 C  
HETATM    2  O   UNL     1     -12.599  11.050  70.636  1.00  0.00    -0.337 OA 
ENDROOT
BRANCH   2   3
HETATM    3  C   UNL     1     -12.005  12.182  70.133  1.00  0.00    -0.314 A  
HETATM    4  C   UNL     1     -10.940  12.044  69.203  1.00  0.00    -0.231 A  
HETATM    5  C   UNL     1     -10.375  13.241  68.712  1.00  0.00    -0.154 A  
HETATM    6  C   UNL     1     -12.403  13.461  70.559  1.00  0.00    -0.401 A  
HETATM    7  C   UNL     1     -10.750  14.525  69.144  1.00  0.00    -0.263 A  
HETATM    8  C   UNL     1     -11.779  14.609  70.082  1.00  0.00    -0.353 A  
BRANCH   4   9
HETATM    9  C   UNL     1     -10.340  10.686  68.762  1.00  0.00    -0.210 C  
HETATM   10  C   UNL     1      -9.020  10.934  67.976  1.00  0.00    -0.145 C  
HETATM   11  C   UNL     1     -10.091   9.749  69.976  1.00  0.00    -0.301 C  
HETATM   12  C   UNL     1     -10.324   7.675  68.592  1.00  0.00    -0.220 C  
HETATM   13  C   UNL     1      -8.081   8.777  68.832  1.00  0.00    -0.114 C  
HETATM   14  C   UNL     1      -9.402   8.444  69.545  1.00  0.00    -0.158 C  
HETATM   15  C   UNL     1     -10.608   8.530  67.352  1.00  0.00    -0.304 C  
HETATM   16  C   UNL     1      -8.353   9.608  67.567  1.00  0.00    -0.118 C  
HETATM   17  C   UNL     1      -9.286   8.824  66.633  1.00  0.00    -0.242 C  
HETATM   18  C   UNL     1     -11.257   9.860  67.780  1.00  0.00    -0.075 C  
ENDBRANCH   4   9
BRANCH   7  19
HETATM   19  C   UNL     1     -10.034  15.723  68.666  1.00  0.00    -0.208 A  
HETATM   20  C   UNL     1      -8.123  19.167  67.104  1.00  0.00    -0.281 A  
HETATM   21  C   UNL     1      -8.138  16.766  67.511  1.00  0.00    -0.188 A  
HETATM   22  C   UNL     1      -9.964  18.142  68.318  1.00  0.00    -0.380 A  
HETATM   23  C   UNL     1     -10.604  17.002  68.801  1.00  0.00    -0.346 A  
HETATM   24  C   UNL     1      -8.784  15.632  68.033  1.00  0.00    -0.167 A  
HETATM   25  C   UNL     1      -8.740  18.036  67.655  1.00  0.00    -0.247 A  
HETATM   26  C   UNL     1      -6.913  19.044  66.413  1.00  0.00    -0.239 A  
HETATM   27  C   UNL     1      -6.318  17.786  66.267  1.00  0.00    -0.269 A  
HETATM   28  C   UNL     1      -6.266  20.206  65.754  1.00  0.00    -0.209 C  
HETATM   29  O   UNL     1      -5.603  20.100  64.738  1.00  0.00    -0.168 OA 
HETATM   30  C   UNL     1      -6.921  16.656  66.822  1.00  0.00    -0.264 A  
HETATM   31  O   UNL     1      -6.452  21.378  66.396  1.00  0.00    -0.309 OA 
ENDBRANCH   7  19
ENDBRANCH   2   3
TORSDOF 3
ENDMDL
MODEL       49
REMARK 921   NORMALIZED FREE ENERGY PREDICTED BY IDOCK:   -6.37 KCAL/MOL
REMARK 922        TOTAL FREE ENERGY PREDICTED BY IDOCK:   -8.27 KCAL/MOL
REMARK 923 INTER-LIGAND FREE ENERGY PREDICTED BY IDOCK:   -8.27 KCAL/MOL
REMARK 924 INTRA-LIGAND FREE ENERGY PREDICTED BY IDOCK:   -0.01 KCAL/MOL
REMARK 927      BINDING AFFINITY PREDICTED BY RF-SCORE:    0.00 PKD
ROOT
HETATM    1  C   UNL     1     -13.270   9.241  72.278  1.00  0.00    -0.460 C  
HETATM    2  O   UNL     1     -12.554   9.226  71.040  1.00  0.00    -0.278 OA 
ENDROOT
BRANCH   2   3
HETATM    3  C   UNL     1     -12.164  10.449  70.548  1.00  0.00    -0.323 A  
HETATM    4  C   UNL     1     -11.231  10.492  69.478  1.00  0.00    -0.329 A  
HETATM    5  C   UNL     1     -10.875  11.775  69.006  1.00  0.00    -0.239 A  
HETATM    6  C   UNL     1     -12.638  11.643  71.116  1.00  0.00    -0.439 A  
HETATM    7  C   UNL     1     -11.326  12.978  69.577  1.00  0.00    -0.223 A  
HETATM    8  C   UNL     1     -12.217  12.884  70.646  1.00  0.00    -0.386 A  
BRANCH   4   9
HETATM    9  C   UNL     1     -10.552   9.244  68.863  1.00  0.00    -0.222 C  
HETATM   10  C   UNL     1     -10.968   7.978  69.669  1.00  0.00    -0.106 C  
HETATM   11  C   UNL     1     -10.907   9.082  67.359  1.00  0.00    -0.116 C  
HETATM   12  C   UNL     1      -8.784   7.852  66.855  1.00  0.00    -0.136 C  
HETATM   13  C   UNL     1     -10.823   6.585  67.594  1.00  0.00    -0.419 C  
HETATM   14  C   UNL     1     -10.314   7.787  66.779  1.00  0.00    -0.348 C  
HETATM   15  C   UNL     1      -8.349   7.997  68.316  1.00  0.00    -0.123 C  
HETATM   16  C   UNL     1     -10.365   6.700  69.057  1.00  0.00    -0.216 C  
HETATM   17  C   UNL     1      -8.831   6.775  69.107  1.00  0.00    -0.134 C  
HETATM   18  C   UNL     1      -8.976   9.269  68.919  1.00  0.00    -0.136 C  
ENDBRANCH   4   9
BRANCH   7  19
HETATM   19  C   UNL     1     -10.821  14.278  69.098  1.00  0.00    -0.264 A  
HETATM   20  C   UNL     1      -9.518  17.997  67.539  1.00  0.00    -0.262 A  
HETATM   21  C   UNL     1      -9.146  15.619  67.908  1.00  0.00    -0.185 A  
HETATM   22  C   UNL     1     -11.140  16.682  68.787  1.00  0.00    -0.270 A  
HETATM   23  C   UNL     1     -11.579  15.451  69.269  1.00  0.00    -0.354 A  
HETATM   24  C   UNL     1      -9.591  14.392  68.430  1.00  0.00    -0.219 A  
HETATM   25  C   UNL     1      -9.934  16.777  68.089  1.00  0.00    -0.270 A  
HETATM   26  C   UNL     1      -8.324  18.072  66.813  1.00  0.00    -0.271 A  
HETATM   27  C   UNL     1      -7.546  16.925  66.631  1.00  0.00    -0.301 A  
HETATM   28  C   UNL     1      -7.887  19.329  66.156  1.00  0.00    -0.300 C  
HETATM   29  O   UNL     1      -7.246  19.339  65.120  1.00  0.00    -0.400 OA 
HETATM   30  C   UNL     1      -7.948  15.709  67.185  1.00  0.00    -0.254 A  
HETATM   31  O   UNL     1      -8.236  20.450  66.820  1.00  0.00    -0.287 OA 
ENDBRANCH   7  19
ENDBRANCH   2   3
TORSDOF 3
ENDMDL
MODEL       50
REMARK 921   NORMALIZED FREE ENERGY PREDICTED BY IDOCK:   -6.31 KCAL/MOL
REMARK 922        TOTAL FREE ENERGY PREDICTED BY IDOCK:   -8.21 KCAL/MOL
REMARK 923 INTER-LIGAND FREE ENERGY PREDICTED BY IDOCK:   -7.62 KCAL/MOL
REMARK 924 INTRA-LIGAND FREE ENERGY PREDICTED BY IDOCK:   -0.59 KCAL/MOL
REMARK 927      BINDING AFFINITY PREDICTED BY RF-SCORE:    0.00 PKD
ROOT
HETATM    1  C   UNL     1     -12.409  14.901  64.263  1.00  0.00    -0.277 C  
HETATM    2  O   UNL     1     -11.007  14.648  64.382  1.00  0.00    -0.270 OA 
ENDROOT
BRANCH   2   3
HETATM    3  C   UNL     1     -10.650  13.420  64.884  1.00  0.00    -0.385 A  
HETATM    4  C   UNL     1     -10.210  13.331  66.232  1.00  0.00    -0.296 A  
HETATM    5  C   UNL     1      -9.868  12.042  66.697  1.00  0.00    -0.220 A  
HETATM    6  C   UNL     1     -10.671  12.272  64.075  1.00  0.00    -0.438 A  
HETATM    7  C   UNL     1      -9.865  10.889  65.894  1.00  0.00    -0.285 A  
HETATM    8  C   UNL     1     -10.274  11.032  64.569  1.00  0.00    -0.406 A  
BRANCH   4   9
HETATM    9  C   UNL     1     -10.030  14.548  67.172  1.00  0.00    -0.252 C  
HETATM   10  C   UNL     1      -9.263  15.675  66.419  1.00  0.00    -0.346 C  
HETATM   11  C   UNL     1     -11.395  15.069  67.702  1.00  0.00    -0.342 C  
HETATM   12  C   UNL     1     -10.375  16.007  69.789  1.00  0.00    -0.265 C  
HETATM   13  C   UNL     1     -10.509  17.417  67.715  1.00  0.00    -0.376 C  
HETATM   14  C   UNL     1     -11.219  16.338  68.552  1.00  0.00    -0.359 C  
HETATM   15  C   UNL     1      -8.999  15.497  69.350  1.00  0.00    -0.275 C  
HETATM   16  C   UNL     1      -9.112  16.932  67.295  1.00  0.00    -0.225 C  
HETATM   17  C   UNL     1      -8.290  16.596  68.548  1.00  0.00    -0.228 C  
HETATM   18  C   UNL     1      -9.169  14.252  68.460  1.00  0.00    -0.197 C  
ENDBRANCH   4   9
BRANCH   7  19
HETATM   19  C   UNL     1      -9.386   9.598  66.424  1.00  0.00    -0.224 A  
HETATM   20  C   UNL     1      -7.999   5.812  67.725  1.00  0.00    -0.098 A  
HETATM   21  C   UNL     1      -9.820   7.399  67.420  1.00  0.00    -0.219 A  
HETATM   22  C   UNL     1      -7.558   8.022  66.811  1.00  0.00    -0.094 A  
HETATM   23  C   UNL     1      -8.024   9.253  66.354  1.00  0.00    -0.107 A  
HETATM   24  C   UNL     1     -10.266   8.658  66.983  1.00  0.00    -0.360 A  
HETATM   25  C   UNL     1      -8.448   7.079  67.329  1.00  0.00    -0.121 A  
HETATM   26  C   UNL     1      -8.905   4.863  68.212  1.00  0.00    -0.114 A  
HETATM   27  C   UNL     1     -10.264   5.179  68.298  1.00  0.00    -0.179 A  
HETATM   28  C   UNL     1      -8.479   3.488  68.573  1.00  0.00    -0.083 C  
HETATM   29  O   UNL     1      -9.208   2.520  68.448  1.00  0.00    -0.161 OA 
HETATM   30  C   UNL     1     -10.718   6.442  67.916  1.00  0.00    -0.372 A  
HETATM   31  O   UNL     1      -7.230   3.412  69.077  1.00  0.00    -0.048 OA 
ENDBRANCH   7  19
ENDBRANCH   2   3
TORSDOF 3
ENDMDL
MODEL       51
REMARK 921   NORMALIZED FREE ENERGY PREDICTED BY IDOCK:   -6.31 KCAL/MOL
REMARK 922        TOTAL FREE ENERGY PREDICTED BY IDOCK:   -8.21 KCAL/MOL
REMARK 923 INTER-LIGAND FREE ENERGY PREDICTED BY IDOCK:   -7.86 KCAL/MOL
REMARK 924 INTRA-LIGAND FREE ENERGY PREDICTED BY IDOCK:   -0.35 KCAL/MOL
REMARK 927      BINDING AFFINITY PREDICTED BY RF-SCORE:    0.00 PKD
ROOT
HETATM    1  C   UNL     1     -10.886  19.448  66.241  1.00  0.00    -0.315 C  
HETATM    2  O   UNL     1     -10.163  18.556  65.389  1.00  0.00    -0.396 OA 
ENDROOT
BRANCH   2   3
HETATM    3  C   UNL     1     -10.286  17.216  65.666  1.00  0.00    -0.183 A  
HETATM    4  C   UNL     1      -9.369  16.614  66.569  1.00  0.00    -0.290 A  
HETATM    5  C   UNL     1      -9.551  15.237  66.824  1.00  0.00    -0.257 A  
HETATM    6  C   UNL     1     -11.269  16.433  65.037  1.00  0.00    -0.138 A  
HETATM    7  C   UNL     1     -10.517  14.438  66.188  1.00  0.00    -0.295 A  
HETATM    8  C   UNL     1     -11.374  15.067  65.286  1.00  0.00    -0.349 A  
BRANCH   4   9
HETATM    9  C   UNL     1      -8.175  17.354  67.220  1.00  0.00    -0.221 C  
HETATM   10  C   UNL     1      -7.489  18.264  66.159  1.00  0.00    -0.291 C  
HETATM   11  C   UNL     1      -8.620  18.185  68.455  1.00  0.00    -0.310 C  
HETATM   12  C   UNL     1      -6.365  18.037  69.533  1.00  0.00    -0.215 C  
HETATM   13  C   UNL     1      -6.873  19.911  67.940  1.00  0.00    -0.296 C  
HETATM   14  C   UNL     1      -7.451  18.998  69.035  1.00  0.00    -0.332 C  
HETATM   15  C   UNL     1      -5.858  17.186  68.365  1.00  0.00    -0.140 C  
HETATM   16  C   UNL     1      -6.330  19.068  66.775  1.00  0.00    -0.197 C  
HETATM   17  C   UNL     1      -5.252  18.107  67.299  1.00  0.00    -0.142 C  
HETATM   18  C   UNL     1      -7.033  16.403  67.748  1.00  0.00    -0.157 C  
ENDBRANCH   4   9
BRANCH   7  19
HETATM   19  C   UNL     1     -10.571  12.983  66.425  1.00  0.00    -0.294 A  
HETATM   20  C   UNL     1     -10.573   8.833  67.284  1.00  0.00    -0.303 A  
HETATM   21  C   UNL     1      -9.851  10.698  65.894  1.00  0.00    -0.296 A  
HETATM   22  C   UNL     1     -11.348  11.089  67.761  1.00  0.00    -0.365 A  
HETATM   23  C   UNL     1     -11.317  12.456  67.494  1.00  0.00    -0.375 A  
HETATM   24  C   UNL     1      -9.859  12.078  65.622  1.00  0.00    -0.265 A  
HETATM   25  C   UNL     1     -10.605  10.201  66.980  1.00  0.00    -0.290 A  
HETATM   26  C   UNL     1      -9.798   7.959  66.514  1.00  0.00    -0.272 A  
HETATM   27  C   UNL     1      -9.049   8.451  65.441  1.00  0.00    -0.050 A  
HETATM   28  C   UNL     1      -9.682   6.517  66.848  1.00  0.00    -0.158 C  
HETATM   29  O   UNL     1      -8.673   5.871  66.625  1.00  0.00    -0.117 OA 
HETATM   30  C   UNL     1      -9.084   9.810  65.126  1.00  0.00    -0.270 A  
HETATM   31  O   UNL     1     -10.797   5.985  67.389  1.00  0.00    -0.280 OA 
ENDBRANCH   7  19
ENDBRANCH   2   3
TORSDOF 3
ENDMDL
MODEL       52
REMARK 921   NORMALIZED FREE ENERGY PREDICTED BY IDOCK:   -6.31 KCAL/MOL
REMARK 922        TOTAL FREE ENERGY PREDICTED BY IDOCK:   -8.20 KCAL/MOL
REMARK 923 INTER-LIGAND FREE ENERGY PREDICTED BY IDOCK:   -7.63 KCAL/MOL
REMARK 924 INTRA-LIGAND FREE ENERGY PREDICTED BY IDOCK:   -0.57 KCAL/MOL
REMARK 927      BINDING AFFINITY PREDICTED BY RF-SCORE:    0.00 PKD
ROOT
HETATM    1  C   UNL     1      -7.893   6.835  67.755  1.00  0.00    -0.113 C  
HETATM    2  O   UNL     1      -9.205   7.404  67.713  1.00  0.00    -0.132 OA 
ENDROOT
BRANCH   2   3
HETATM    3  C   UNL     1      -9.281   8.767  67.870  1.00  0.00    -0.139 A  
HETATM    4  C   UNL     1      -9.721   9.291  69.115  1.00  0.00    -0.164 A  
HETATM    5  C   UNL     1      -9.770  10.698  69.222  1.00  0.00    -0.181 A  
HETATM    6  C   UNL     1      -8.979   9.637  66.810  1.00  0.00    -0.156 A  
HETATM    7  C   UNL     1      -9.489  11.580  68.164  1.00  0.00    -0.184 A  
HETATM    8  C   UNL     1      -9.092  11.017  66.952  1.00  0.00    -0.165 A  
BRANCH   4   9
HETATM    9  C   UNL     1     -10.198   8.423  70.306  1.00  0.00    -0.204 C  
HETATM   10  C   UNL     1     -11.088   7.261  69.776  1.00  0.00    -0.203 C  
HETATM   11  C   UNL     1      -9.000   7.870  71.127  1.00  0.00    -0.153 C  
HETATM   12  C   UNL     1     -10.347   7.712  73.233  1.00  0.00    -0.405 C  
HETATM   13  C   UNL     1     -10.293   5.780  71.630  1.00  0.00    -0.266 C  
HETATM   14  C   UNL     1      -9.475   6.928  72.245  1.00  0.00    -0.151 C  
HETATM   15  C   UNL     1     -11.566   8.282  72.500  1.00  0.00    -0.454 C  
HETATM   16  C   UNL     1     -11.539   6.333  70.920  1.00  0.00    -0.338 C  
HETATM   17  C   UNL     1     -12.391   7.124  71.924  1.00  0.00    -0.352 C  
HETATM   18  C   UNL     1     -11.099   9.191  71.348  1.00  0.00    -0.415 C  
ENDBRANCH   4   9
BRANCH   7  19
HETATM   19  C   UNL     1      -9.671  13.035  68.323  1.00  0.00    -0.221 A  
HETATM   20  C   UNL     1     -10.287  17.220  68.562  1.00  0.00    -0.371 A  
HETATM   21  C   UNL     1      -8.792  15.324  68.245  1.00  0.00    -0.171 A  
HETATM   22  C   UNL     1     -11.141  14.948  68.717  1.00  0.00    -0.274 A  
HETATM   23  C   UNL     1     -10.939  13.574  68.605  1.00  0.00    -0.289 A  
HETATM   24  C   UNL     1      -8.603  13.933  68.168  1.00  0.00    -0.180 A  
HETATM   25  C   UNL     1     -10.080  15.835  68.521  1.00  0.00    -0.215 A  
HETATM   26  C   UNL     1      -9.223  18.099  68.332  1.00  0.00    -0.316 A  
HETATM   27  C   UNL     1      -7.949  17.594  68.055  1.00  0.00    -0.241 A  
HETATM   28  C   UNL     1      -9.417  19.570  68.295  1.00  0.00    -0.366 C  
HETATM   29  O   UNL     1      -8.749  20.304  67.588  1.00  0.00    -0.320 OA 
HETATM   30  C   UNL     1      -7.732  16.215  68.023  1.00  0.00    -0.143 A  
HETATM   31  O   UNL     1     -10.373  20.021  69.133  1.00  0.00    -0.350 OA 
ENDBRANCH   7  19
ENDBRANCH   2   3
TORSDOF 3
ENDMDL
MODEL       53
REMARK 921   NORMALIZED FREE ENERGY PREDICTED BY IDOCK:   -6.30 KCAL/MOL
REMARK 922        TOTAL FREE ENERGY PREDICTED BY IDOCK:   -8.19 KCAL/MOL
REMARK 923 INTER-LIGAND FREE ENERGY PREDICTED BY IDOCK:   -7.47 KCAL/MOL
REMARK 924 INTRA-LIGAND FREE ENERGY PREDICTED BY IDOCK:   -0.72 KCAL/MOL
REMARK 927      BINDING AFFINITY PREDICTED BY RF-SCORE:    0.00 PKD
ROOT
HETATM    1  C   UNL     1      -6.833   6.408  64.684  1.00  0.00    -0.043 C  
HETATM    2  O   UNL     1      -7.991   6.130  65.476  1.00  0.00    -0.104 OA 
ENDROOT
BRANCH   2   3
HETATM    3  C   UNL     1      -8.578   7.209  66.093  1.00  0.00    -0.146 A  
HETATM    4  C   UNL     1      -8.868   7.131  67.482  1.00  0.00    -0.119 A  
HETATM    5  C   UNL     1      -9.461   8.273  68.064  1.00  0.00    -0.153 A  
HETATM    6  C   UNL     1      -8.935   8.355  65.365  1.00  0.00    -0.103 A  
HETATM    7  C   UNL     1      -9.841   9.418  67.344  1.00  0.00    -0.222 A  
HETATM    8  C   UNL     1      -9.565   9.435  65.978  1.00  0.00    -0.328 A  
BRANCH   4   9
HETATM    9  C   UNL     1      -8.633   5.872  68.352  1.00  0.00    -0.113 C  
HETATM   10  C   UNL     1      -9.662   4.772  67.959  1.00  0.00    -0.202 C  
HETATM   11  C   UNL     1      -7.178   5.342  68.211  1.00  0.00    -0.071 C  
HETATM   12  C   UNL     1      -7.196   4.303  70.490  1.00  0.00    -0.041 C  
HETATM   13  C   UNL     1      -7.993   2.988  68.505  1.00  0.00    -0.064 C  
HETATM   14  C   UNL     1      -6.979   4.035  68.996  1.00  0.00    -0.047 C  
HETATM   15  C   UNL     1      -8.622   4.818  70.717  1.00  0.00    -0.122 C  
HETATM   16  C   UNL     1      -9.429   3.475  68.757  1.00  0.00    -0.208 C  
HETATM   17  C   UNL     1      -9.620   3.748  70.256  1.00  0.00    -0.257 C  
HETATM   18  C   UNL     1      -8.844   6.103  69.898  1.00  0.00    -0.140 C  
ENDBRANCH   4   9
BRANCH   7  19
HETATM   19  C   UNL     1     -10.558  10.525  68.006  1.00  0.00    -0.251 A  
HETATM   20  C   UNL     1     -12.411  13.780  69.988  1.00  0.00    -0.364 A  
HETATM   21  C   UNL     1     -11.876  11.406  69.877  1.00  0.00    -0.435 A  
HETATM   22  C   UNL     1     -11.172  12.889  68.093  1.00  0.00    -0.305 A  
HETATM   23  C   UNL     1     -10.536  11.822  67.463  1.00  0.00    -0.247 A  
HETATM   24  C   UNL     1     -11.256  10.336  69.209  1.00  0.00    -0.281 A  
HETATM   25  C   UNL     1     -11.829  12.699  69.310  1.00  0.00    -0.358 A  
HETATM   26  C   UNL     1     -13.038  13.583  71.222  1.00  0.00    -0.339 A  
HETATM   27  C   UNL     1     -13.082  12.304  71.785  1.00  0.00    -0.449 A  
HETATM   28  C   UNL     1     -13.601  14.712  72.003  1.00  0.00    -0.400 C  
HETATM   29  O   UNL     1     -13.627  14.721  73.221  1.00  0.00    -0.523 OA 
HETATM   30  C   UNL     1     -12.514  11.220  71.113  1.00  0.00    -0.479 A  
HETATM   31  O   UNL     1     -14.107  15.708  71.246  1.00  0.00    -0.560 OA 
ENDBRANCH   7  19
ENDBRANCH   2   3
TORSDOF 3
ENDMDL
MODEL       54
REMARK 921   NORMALIZED FREE ENERGY PREDICTED BY IDOCK:   -6.28 KCAL/MOL
REMARK 922        TOTAL FREE ENERGY PREDICTED BY IDOCK:   -8.17 KCAL/MOL
REMARK 923 INTER-LIGAND FREE ENERGY PREDICTED BY IDOCK:   -7.42 KCAL/MOL
REMARK 924 INTRA-LIGAND FREE ENERGY PREDICTED BY IDOCK:   -0.75 KCAL/MOL
REMARK 927      BINDING AFFINITY PREDICTED BY RF-SCORE:    0.00 PKD
ROOT
HETATM    1  C   UNL     1     -14.377   8.504  72.120  1.00  0.00    -0.436 C  
HETATM    2  O   UNL     1     -13.021   8.308  71.712  1.00  0.00    -0.327 OA 
ENDROOT
BRANCH   2   3
HETATM    3  C   UNL     1     -12.448   9.330  70.994  1.00  0.00    -0.211 A  
HETATM    4  C   UNL     1     -11.042   9.319  70.787  1.00  0.00    -0.349 A  
HETATM    5  C   UNL     1     -10.510  10.388  70.033  1.00  0.00    -0.235 A  
HETATM    6  C   UNL     1     -13.221  10.398  70.509  1.00  0.00    -0.095 A  
HETATM    7  C   UNL     1     -11.268  11.472  69.559  1.00  0.00    -0.305 A  
HETATM    8  C   UNL     1     -12.639  11.454  69.814  1.00  0.00    -0.054 A  
BRANCH   4   9
HETATM    9  C   UNL     1     -10.082   8.260  71.383  1.00  0.00    -0.257 C  
HETATM   10  C   UNL     1      -8.621   8.585  70.954  1.00  0.00    -0.184 C  
HETATM   11  C   UNL     1     -10.199   8.188  72.931  1.00  0.00    -0.341 C  
HETATM   12  C   UNL     1      -9.461   5.796  73.007  1.00  0.00    -0.153 C  
HETATM   13  C   UNL     1      -7.757   7.638  73.103  1.00  0.00    -0.135 C  
HETATM   14  C   UNL     1      -9.173   7.210  73.526  1.00  0.00    -0.220 C  
HETATM   15  C   UNL     1      -9.350   5.778  71.479  1.00  0.00    -0.163 C  
HETATM   16  C   UNL     1      -7.620   7.593  71.573  1.00  0.00    -0.081 C  
HETATM   17  C   UNL     1      -7.924   6.172  71.075  1.00  0.00    -0.116 C  
HETATM   18  C   UNL     1     -10.343   6.789  70.876  1.00  0.00    -0.222 C  
ENDBRANCH   4   9
BRANCH   7  19
HETATM   19  C   UNL     1     -10.620  12.607  68.875  1.00  0.00    -0.157 A  
HETATM   20  C   UNL     1      -8.612  15.887  67.096  1.00  0.00    -0.221 A  
HETATM   21  C   UNL     1     -10.541  14.985  68.278  1.00  0.00    -0.247 A  
HETATM   22  C   UNL     1      -8.729  13.514  67.619  1.00  0.00    -0.194 A  
HETATM   23  C   UNL     1      -9.378  12.446  68.235  1.00  0.00    -0.199 A  
HETATM   24  C   UNL     1     -11.195  13.888  68.865  1.00  0.00    -0.304 A  
HETATM   25  C   UNL     1      -9.290  14.793  67.650  1.00  0.00    -0.195 A  
HETATM   26  C   UNL     1      -9.169  17.168  67.161  1.00  0.00    -0.242 A  
HETATM   27  C   UNL     1     -10.405  17.360  67.786  1.00  0.00    -0.358 A  
HETATM   28  C   UNL     1      -8.449  18.362  66.651  1.00  0.00    -0.269 C  
HETATM   29  O   UNL     1      -8.573  19.467  67.148  1.00  0.00    -0.281 OA 
HETATM   30  C   UNL     1     -11.092  16.274  68.331  1.00  0.00    -0.362 A  
HETATM   31  O   UNL     1      -7.674  18.119  65.574  1.00  0.00    -0.507 OA 
ENDBRANCH   7  19
ENDBRANCH   2   3
TORSDOF 3
ENDMDL
MODEL       55
REMARK 921   NORMALIZED FREE ENERGY PREDICTED BY IDOCK:   -6.28 KCAL/MOL
REMARK 922        TOTAL FREE ENERGY PREDICTED BY IDOCK:   -8.17 KCAL/MOL
REMARK 923 INTER-LIGAND FREE ENERGY PREDICTED BY IDOCK:   -7.41 KCAL/MOL
REMARK 924 INTRA-LIGAND FREE ENERGY PREDICTED BY IDOCK:   -0.76 KCAL/MOL
REMARK 927      BINDING AFFINITY PREDICTED BY RF-SCORE:    0.00 PKD
ROOT
HETATM    1  C   UNL     1      -9.522  11.021  63.489  1.00  0.00    -0.292 C  
HETATM    2  O   UNL     1      -9.905  11.556  64.758  1.00  0.00    -0.242 OA 
ENDROOT
BRANCH   2   3
HETATM    3  C   UNL     1     -10.087  10.647  65.772  1.00  0.00    -0.266 A  
HETATM    4  C   UNL     1     -10.416  11.122  67.070  1.00  0.00    -0.277 A  
HETATM    5  C   UNL     1     -10.601  10.142  68.070  1.00  0.00    -0.273 A  
HETATM    6  C   UNL     1      -9.906   9.271  65.554  1.00  0.00    -0.155 A  
HETATM    7  C   UNL     1     -10.405   8.765  67.870  1.00  0.00    -0.281 A  
HETATM    8  C   UNL     1     -10.052   8.349  66.587  1.00  0.00    -0.358 A  
BRANCH   4   9
HETATM    9  C   UNL     1     -10.516  12.621  67.450  1.00  0.00    -0.233 C  
HETATM   10  C   UNL     1     -11.089  12.753  68.891  1.00  0.00    -0.310 C  
HETATM   11  C   UNL     1      -9.139  13.332  67.336  1.00  0.00    -0.216 C  
HETATM   12  C   UNL     1     -10.183  15.567  66.901  1.00  0.00    -0.279 C  
HETATM   13  C   UNL     1      -9.738  14.828  69.260  1.00  0.00    -0.098 C  
HETATM   14  C   UNL     1      -9.222  14.792  67.811  1.00  0.00    -0.194 C  
HETATM   15  C   UNL     1     -11.576  14.933  66.968  1.00  0.00    -0.314 C  
HETATM   16  C   UNL     1     -11.150  14.225  69.337  1.00  0.00    -0.283 C  
HETATM   17  C   UNL     1     -12.092  15.009  68.411  1.00  0.00    -0.139 C  
HETATM   18  C   UNL     1     -11.494  13.457  66.538  1.00  0.00    -0.372 C  
ENDBRANCH   4   9
BRANCH   7  19
HETATM   19  C   UNL     1     -10.509   7.815  68.993  1.00  0.00    -0.215 A  
HETATM   20  C   UNL     1     -10.611   5.179  72.310  1.00  0.00    -0.278 A  
HETATM   21  C   UNL     1     -10.151   5.586  69.953  1.00  0.00    -0.305 A  
HETATM   22  C   UNL     1     -11.041   7.367  71.337  1.00  0.00    -0.263 A  
HETATM   23  C   UNL     1     -10.974   8.238  70.252  1.00  0.00    -0.233 A  
HETATM   24  C   UNL     1     -10.121   6.472  68.862  1.00  0.00    -0.183 A  
HETATM   25  C   UNL     1     -10.615   6.043  71.206  1.00  0.00    -0.302 A  
HETATM   26  C   UNL     1     -10.152   3.865  72.174  1.00  0.00    -0.225 A  
HETATM   27  C   UNL     1      -9.689   3.413  70.934  1.00  0.00    -0.200 A  
HETATM   28  C   UNL     1     -10.065   2.942  73.333  1.00  0.00    -0.114 C  
HETATM   29  O   UNL     1      -9.213   2.076  73.422  1.00  0.00    -0.074 OA 
HETATM   30  C   UNL     1      -9.699   4.264  69.828  1.00  0.00    -0.290 A  
HETATM   31  O   UNL     1     -11.028   3.129  74.260  1.00  0.00    -0.147 OA 
ENDBRANCH   7  19
ENDBRANCH   2   3
TORSDOF 3
ENDMDL
MODEL       56
REMARK 921   NORMALIZED FREE ENERGY PREDICTED BY IDOCK:   -6.24 KCAL/MOL
REMARK 922        TOTAL FREE ENERGY PREDICTED BY IDOCK:   -8.12 KCAL/MOL
REMARK 923 INTER-LIGAND FREE ENERGY PREDICTED BY IDOCK:   -7.36 KCAL/MOL
REMARK 924 INTRA-LIGAND FREE ENERGY PREDICTED BY IDOCK:   -0.77 KCAL/MOL
REMARK 927      BINDING AFFINITY PREDICTED BY RF-SCORE:    0.00 PKD
ROOT
HETATM    1  C   UNL     1      -8.524   2.883  70.841  1.00  0.00    -0.058 C  
HETATM    2  O   UNL     1      -9.356   3.449  69.824  1.00  0.00    -0.143 OA 
ENDROOT
BRANCH   2   3
HETATM    3  C   UNL     1      -9.934   4.661  70.115  1.00  0.00    -0.233 A  
HETATM    4  C   UNL     1      -9.741   5.746  69.219  1.00  0.00    -0.188 A  
HETATM    5  C   UNL     1     -10.367   6.964  69.564  1.00  0.00    -0.224 A  
HETATM    6  C   UNL     1     -10.665   4.850  71.300  1.00  0.00    -0.011 A  
HETATM    7  C   UNL     1     -11.085   7.173  70.755  1.00  0.00    -0.296 A  
HETATM    8  C   UNL     1     -11.220   6.086  71.618  1.00  0.00    -0.328 A  
BRANCH   4   9
HETATM    9  C   UNL     1      -8.852   5.683  67.953  1.00  0.00    -0.105 C  
HETATM   10  C   UNL     1      -7.360   5.545  68.374  1.00  0.00    -0.076 C  
HETATM   11  C   UNL     1      -9.271   4.516  67.017  1.00  0.00    -0.145 C  
HETATM   12  C   UNL     1      -8.407   5.672  64.970  1.00  0.00    -0.146 C  
HETATM   13  C   UNL     1      -6.883   4.201  66.317  1.00  0.00    -0.054 C  
HETATM   14  C   UNL     1      -8.323   4.394  65.813  1.00  0.00    -0.113 C  
HETATM   15  C   UNL     1      -7.992   6.876  65.821  1.00  0.00    -0.116 C  
HETATM   16  C   UNL     1      -6.440   5.417  67.146  1.00  0.00    -0.048 C  
HETATM   17  C   UNL     1      -6.543   6.686  66.286  1.00  0.00    -0.044 C  
HETATM   18  C   UNL     1      -8.910   6.978  67.055  1.00  0.00    -0.124 C  
ENDBRANCH   4   9
BRANCH   7  19
HETATM   19  C   UNL     1     -11.614   8.507  71.095  1.00  0.00    -0.325 A  
HETATM   20  C   UNL     1     -13.334  12.281  71.961  1.00  0.00    -0.491 A  
HETATM   21  C   UNL     1     -11.793  10.914  70.661  1.00  0.00    -0.453 A  
HETATM   22  C   UNL     1     -13.096   9.909  72.442  1.00  0.00    -0.296 A  
HETATM   23  C   UNL     1     -12.552   8.665  72.131  1.00  0.00    -0.451 A  
HETATM   24  C   UNL     1     -11.232   9.656  70.384  1.00  0.00    -0.342 A  
HETATM   25  C   UNL     1     -12.739  11.039  71.702  1.00  0.00    -0.483 A  
HETATM   26  C   UNL     1     -12.993  13.399  71.192  1.00  0.00    -0.314 A  
HETATM   27  C   UNL     1     -12.059  13.276  70.158  1.00  0.00    -0.403 A  
HETATM   28  C   UNL     1     -13.652  14.714  71.387  1.00  0.00    -0.404 C  
HETATM   29  O   UNL     1     -13.835  15.500  70.474  1.00  0.00    -0.239 OA 
HETATM   30  C   UNL     1     -11.455  12.044  69.901  1.00  0.00    -0.239 A  
HETATM   31  O   UNL     1     -14.002  14.971  72.664  1.00  0.00    -0.464 OA 
ENDBRANCH   7  19
ENDBRANCH   2   3
TORSDOF 3
ENDMDL
MODEL       57
REMARK 921   NORMALIZED FREE ENERGY PREDICTED BY IDOCK:   -6.14 KCAL/MOL
REMARK 922        TOTAL FREE ENERGY PREDICTED BY IDOCK:   -8.00 KCAL/MOL
REMARK 923 INTER-LIGAND FREE ENERGY PREDICTED BY IDOCK:   -7.33 KCAL/MOL
REMARK 924 INTRA-LIGAND FREE ENERGY PREDICTED BY IDOCK:   -0.67 KCAL/MOL
REMARK 927      BINDING AFFINITY PREDICTED BY RF-SCORE:    0.00 PKD
ROOT
HETATM    1  C   UNL     1      -5.297   8.032  72.244  1.00  0.00    -0.036 C  
HETATM    2  O   UNL     1      -6.118   7.703  71.121  1.00  0.00    -0.035 OA 
ENDROOT
BRANCH   2   3
HETATM    3  C   UNL     1      -6.651   8.763  70.427  1.00  0.00    -0.042 A  
HETATM    4  C   UNL     1      -8.051   8.994  70.496  1.00  0.00    -0.169 A  
HETATM    5  C   UNL     1      -8.541  10.103  69.771  1.00  0.00    -0.148 A  
HETATM    6  C   UNL     1      -5.843   9.581  69.620  1.00  0.00    -0.033 A  
HETATM    7  C   UNL     1      -7.748  10.918  68.945  1.00  0.00    -0.135 A  
HETATM    8  C   UNL     1      -6.384  10.632  68.885  1.00  0.00    -0.045 A  
BRANCH   4   9
HETATM    9  C   UNL     1      -9.049   8.082  71.251  1.00  0.00    -0.168 C  
HETATM   10  C   UNL     1      -8.906   8.315  72.784  1.00  0.00    -0.310 C  
HETATM   11  C   UNL     1     -10.512   8.329  70.790  1.00  0.00    -0.223 C  
HETATM   12  C   UNL     1     -11.231   6.004  71.384  1.00  0.00    -0.325 C  
HETATM   13  C   UNL     1     -11.340   7.830  73.105  1.00  0.00    -0.197 C  
HETATM   14  C   UNL     1     -11.507   7.495  71.613  1.00  0.00    -0.292 C  
HETATM   15  C   UNL     1      -9.803   5.673  71.831  1.00  0.00    -0.203 C  
HETATM   16  C   UNL     1      -9.922   7.471  73.576  1.00  0.00    -0.371 C  
HETATM   17  C   UNL     1      -9.662   5.978  73.327  1.00  0.00    -0.157 C  
HETATM   18  C   UNL     1      -8.801   6.538  71.043  1.00  0.00    -0.139 C  
ENDBRANCH   4   9
BRANCH   7  19
HETATM   19  C   UNL     1      -8.354  11.989  68.132  1.00  0.00    -0.165 A  
HETATM   20  C   UNL     1     -10.257  15.094  65.966  1.00  0.00    -0.325 A  
HETATM   21  C   UNL     1      -9.817  12.723  66.305  1.00  0.00    -0.269 A  
HETATM   22  C   UNL     1      -8.745  14.368  67.727  1.00  0.00    -0.180 A  
HETATM   23  C   UNL     1      -8.148  13.342  68.457  1.00  0.00    -0.105 A  
HETATM   24  C   UNL     1      -9.180  11.703  67.034  1.00  0.00    -0.185 A  
HETATM   25  C   UNL     1      -9.596  14.072  66.661  1.00  0.00    -0.299 A  
HETATM   26  C   UNL     1     -11.134  14.784  64.921  1.00  0.00    -0.416 A  
HETATM   27  C   UNL     1     -11.355  13.448  64.571  1.00  0.00    -0.391 A  
HETATM   28  C   UNL     1     -11.906  15.833  64.210  1.00  0.00    -0.118 C  
HETATM   29  O   UNL     1     -13.015  15.632  63.747  1.00  0.00    -0.403 OA 
HETATM   30  C   UNL     1     -10.693  12.425  65.251  1.00  0.00    -0.322 A  
HETATM   31  O   UNL     1     -11.260  17.012  64.097  1.00  0.00    -1.130 OA 
ENDBRANCH   7  19
ENDBRANCH   2   3
TORSDOF 3
ENDMDL
MODEL       58
REMARK 921   NORMALIZED FREE ENERGY PREDICTED BY IDOCK:   -6.11 KCAL/MOL
REMARK 922        TOTAL FREE ENERGY PREDICTED BY IDOCK:   -7.97 KCAL/MOL
REMARK 923 INTER-LIGAND FREE ENERGY PREDICTED BY IDOCK:   -7.30 KCAL/MOL
REMARK 924 INTRA-LIGAND FREE ENERGY PREDICTED BY IDOCK:   -0.67 KCAL/MOL
REMARK 927      BINDING AFFINITY PREDICTED BY RF-SCORE:    0.00 PKD
ROOT
HETATM    1  C   UNL     1      -8.145   6.159  67.123  1.00  0.00    -0.106 C  
HETATM    2  O   UNL     1      -9.303   6.946  67.415  1.00  0.00    -0.129 OA 
ENDROOT
BRANCH   2   3
HETATM    3  C   UNL     1      -9.102   8.299  67.543  1.00  0.00    -0.137 A  
HETATM    4  C   UNL     1      -9.388   8.921  68.788  1.00  0.00    -0.137 A  
HETATM    5  C   UNL     1      -9.153  10.311  68.865  1.00  0.00    -0.168 A  
HETATM    6  C   UNL     1      -8.668   9.074  66.455  1.00  0.00    -0.149 A  
HETATM    7  C   UNL     1      -8.737  11.102  67.779  1.00  0.00    -0.132 A  
HETATM    8  C   UNL     1      -8.500  10.451  66.569  1.00  0.00    -0.132 A  
BRANCH   4   9
HETATM    9  C   UNL     1      -9.989   8.185  70.012  1.00  0.00    -0.192 C  
HETATM   10  C   UNL     1     -10.464   9.231  71.062  1.00  0.00    -0.384 C  
HETATM   11  C   UNL     1     -11.157   7.248  69.599  1.00  0.00    -0.161 C  
HETATM   12  C   UNL     1     -10.789   5.715  71.545  1.00  0.00    -0.297 C  
HETATM   13  C   UNL     1     -12.309   7.700  71.781  1.00  0.00    -0.349 C  
HETATM   14  C   UNL     1     -11.816   6.599  70.827  1.00  0.00    -0.441 C  
HETATM   15  C   UNL     1      -9.604   6.572  72.000  1.00  0.00    -0.154 C  
HETATM   16  C   UNL     1     -11.125   8.548  72.274  1.00  0.00    -0.430 C  
HETATM   17  C   UNL     1     -10.105   7.641  72.978  1.00  0.00    -0.362 C  
HETATM   18  C   UNL     1      -8.966   7.263  70.780  1.00  0.00    -0.152 C  
ENDBRANCH   4   9
BRANCH   7  19
HETATM   19  C   UNL     1      -8.622  12.566  67.910  1.00  0.00    -0.179 A  
HETATM   20  C   UNL     1      -8.328  16.749  68.518  1.00  0.00    -0.243 A  
HETATM   21  C   UNL     1      -9.595  14.813  67.758  1.00  0.00    -0.209 A  
HETATM   22  C   UNL     1      -7.336  14.530  68.593  1.00  0.00    -0.128 A  
HETATM   23  C   UNL     1      -7.450  13.152  68.422  1.00  0.00    -0.124 A  
HETATM   24  C   UNL     1      -9.678  13.423  67.563  1.00  0.00    -0.224 A  
HETATM   25  C   UNL     1      -8.407  15.370  68.283  1.00  0.00    -0.150 A  
HETATM   26  C   UNL     1      -9.419  17.577  68.233  1.00  0.00    -0.296 A  
HETATM   27  C   UNL     1     -10.596  17.025  67.718  1.00  0.00    -0.350 A  
HETATM   28  C   UNL     1      -9.399  19.030  68.535  1.00  0.00    -0.375 C  
HETATM   29  O   UNL     1     -10.401  19.650  68.846  1.00  0.00    -0.378 OA 
HETATM   30  C   UNL     1     -10.680  15.654  67.471  1.00  0.00    -0.303 A  
HETATM   31  O   UNL     1      -8.185  19.603  68.405  1.00  0.00    -0.334 OA 
ENDBRANCH   7  19
ENDBRANCH   2   3
TORSDOF 3
ENDMDL
MODEL       59
REMARK 921   NORMALIZED FREE ENERGY PREDICTED BY IDOCK:   -6.10 KCAL/MOL
REMARK 922        TOTAL FREE ENERGY PREDICTED BY IDOCK:   -7.96 KCAL/MOL
REMARK 923 INTER-LIGAND FREE ENERGY PREDICTED BY IDOCK:   -7.66 KCAL/MOL
REMARK 924 INTRA-LIGAND FREE ENERGY PREDICTED BY IDOCK:   -0.30 KCAL/MOL
REMARK 927      BINDING AFFINITY PREDICTED BY RF-SCORE:    0.00 PKD
ROOT
HETATM    1  C   UNL     1     -13.424  15.341  71.203  1.00  0.00    -0.489 C  
HETATM    2  O   UNL     1     -12.281  15.486  70.356  1.00  0.00    -0.362 OA 
ENDROOT
BRANCH   2   3
HETATM    3  C   UNL     1     -11.748  14.324  69.850  1.00  0.00    -0.311 A  
HETATM    4  C   UNL     1     -10.692  14.408  68.904  1.00  0.00    -0.260 A  
HETATM    5  C   UNL     1     -10.177  13.183  68.427  1.00  0.00    -0.247 A  
HETATM    6  C   UNL     1     -12.263  13.070  70.219  1.00  0.00    -0.368 A  
HETATM    7  C   UNL     1     -10.694  11.922  68.772  1.00  0.00    -0.257 A  
HETATM    8  C   UNL     1     -11.752  11.892  69.680  1.00  0.00    -0.413 A  
BRANCH   4   9
HETATM    9  C   UNL     1     -10.135  15.737  68.335  1.00  0.00    -0.222 C  
HETATM   10  C   UNL     1      -8.581  15.669  68.287  1.00  0.00    -0.158 C  
HETATM   11  C   UNL     1     -10.718  16.046  66.928  1.00  0.00    -0.262 C  
HETATM   12  C   UNL     1     -10.430  18.518  67.206  1.00  0.00    -0.455 C  
HETATM   13  C   UNL     1      -8.560  17.136  66.258  1.00  0.00    -0.276 C  
HETATM   14  C   UNL     1     -10.087  17.311  66.325  1.00  0.00    -0.323 C  
HETATM   15  C   UNL     1      -9.873  18.298  68.617  1.00  0.00    -0.400 C  
HETATM   16  C   UNL     1      -7.982  16.947  67.670  1.00  0.00    -0.186 C  
HETATM   17  C   UNL     1      -8.348  18.161  68.538  1.00  0.00    -0.314 C  
HETATM   18  C   UNL     1     -10.466  17.006  69.211  1.00  0.00    -0.293 C  
ENDBRANCH   4   9
BRANCH   7  19
HETATM   19  C   UNL     1     -10.173  10.693  68.144  1.00  0.00    -0.192 A  
HETATM   20  C   UNL     1      -8.892   7.067  66.366  1.00  0.00    -0.158 A  
HETATM   21  C   UNL     1      -8.968   8.561  68.287  1.00  0.00    -0.139 A  
HETATM   22  C   UNL     1     -10.018   9.217  66.202  1.00  0.00    -0.338 A  
HETATM   23  C   UNL     1     -10.465  10.392  66.802  1.00  0.00    -0.287 A  
HETATM   24  C   UNL     1      -9.401   9.768  68.865  1.00  0.00    -0.158 A  
HETATM   25  C   UNL     1      -9.285   8.284  66.939  1.00  0.00    -0.197 A  
HETATM   26  C   UNL     1      -8.186   6.126  67.123  1.00  0.00    -0.106 A  
HETATM   27  C   UNL     1      -7.876   6.399  68.459  1.00  0.00    -0.105 A  
HETATM   28  C   UNL     1      -7.816   4.798  66.574  1.00  0.00    -0.099 C  
HETATM   29  O   UNL     1      -7.740   3.799  67.267  1.00  0.00    -0.078 OA 
HETATM   30  C   UNL     1      -8.254   7.613  69.035  1.00  0.00    -0.127 A  
HETATM   31  O   UNL     1      -7.542   4.805  65.253  1.00  0.00    -0.079 OA 
ENDBRANCH   7  19
ENDBRANCH   2   3
TORSDOF 3
ENDMDL
MODEL       60
REMARK 921   NORMALIZED FREE ENERGY PREDICTED BY IDOCK:   -6.07 KCAL/MOL
REMARK 922        TOTAL FREE ENERGY PREDICTED BY IDOCK:   -7.92 KCAL/MOL
REMARK 923 INTER-LIGAND FREE ENERGY PREDICTED BY IDOCK:   -7.22 KCAL/MOL
REMARK 924 INTRA-LIGAND FREE ENERGY PREDICTED BY IDOCK:   -0.70 KCAL/MOL
REMARK 927      BINDING AFFINITY PREDICTED BY RF-SCORE:    0.00 PKD
ROOT
HETATM    1  C   UNL     1      -6.842   7.936  63.127  1.00  0.00    -0.080 C  
HETATM    2  O   UNL     1      -7.955   7.370  63.824  1.00  0.00    -0.128 OA 
ENDROOT
BRANCH   2   3
HETATM    3  C   UNL     1      -8.494   8.134  64.830  1.00  0.00    -0.075 A  
HETATM    4  C   UNL     1      -8.749   7.529  66.090  1.00  0.00    -0.174 A  
HETATM    5  C   UNL     1      -9.293   8.364  67.090  1.00  0.00    -0.192 A  
HETATM    6  C   UNL     1      -8.836   9.480  64.616  1.00  0.00    -0.250 A  
HETATM    7  C   UNL     1      -9.659   9.705  66.884  1.00  0.00    -0.217 A  
HETATM    8  C   UNL     1      -9.418  10.247  65.622  1.00  0.00    -0.274 A  
BRANCH   4   9
HETATM    9  C   UNL     1      -8.528   6.026  66.395  1.00  0.00    -0.118 C  
HETATM   10  C   UNL     1      -9.602   5.182  65.648  1.00  0.00    -0.104 C  
HETATM   11  C   UNL     1      -7.095   5.568  66.004  1.00  0.00    -0.068 C  
HETATM   12  C   UNL     1      -7.078   3.727  67.702  1.00  0.00    -0.055 C  
HETATM   13  C   UNL     1      -7.974   3.298  65.396  1.00  0.00    -0.086 C  
HETATM   14  C   UNL     1      -6.914   4.056  66.213  1.00  0.00    -0.063 C  
HETATM   15  C   UNL     1      -8.480   4.138  68.166  1.00  0.00    -0.103 C  
HETATM   16  C   UNL     1      -9.386   3.674  65.873  1.00  0.00    -0.166 C  
HETATM   17  C   UNL     1      -9.524   3.348  67.367  1.00  0.00    -0.220 C  
HETATM   18  C   UNL     1      -8.686   5.644  67.917  1.00  0.00    -0.107 C  
ENDBRANCH   4   9
BRANCH   7  19
HETATM   19  C   UNL     1     -10.326  10.480  67.947  1.00  0.00    -0.226 A  
HETATM   20  C   UNL     1     -12.449  12.645  70.907  1.00  0.00    -0.368 A  
HETATM   21  C   UNL     1     -11.115  12.612  68.870  1.00  0.00    -0.307 A  
HETATM   22  C   UNL     1     -11.598  10.541  70.034  1.00  0.00    -0.392 A  
HETATM   23  C   UNL     1     -10.927   9.831  69.040  1.00  0.00    -0.193 A  
HETATM   24  C   UNL     1     -10.415  11.880  67.895  1.00  0.00    -0.225 A  
HETATM   25  C   UNL     1     -11.716  11.930  69.951  1.00  0.00    -0.383 A  
HETATM   26  C   UNL     1     -12.587  14.033  70.795  1.00  0.00    -0.431 A  
HETATM   27  C   UNL     1     -11.996  14.708  69.723  1.00  0.00    -0.378 A  
HETATM   28  C   UNL     1     -13.415  14.816  71.746  1.00  0.00    -0.380 C  
HETATM   29  O   UNL     1     -14.016  15.824  71.419  1.00  0.00    -0.512 OA 
HETATM   30  C   UNL     1     -11.255  14.004  68.772  1.00  0.00    -0.298 A  
HETATM   31  O   UNL     1     -13.416  14.330  73.005  1.00  0.00    -0.644 OA 
ENDBRANCH   7  19
ENDBRANCH   2   3
TORSDOF 3
ENDMDL
MODEL       61
REMARK 921   NORMALIZED FREE ENERGY PREDICTED BY IDOCK:   -6.06 KCAL/MOL
REMARK 922        TOTAL FREE ENERGY PREDICTED BY IDOCK:   -7.92 KCAL/MOL
REMARK 923 INTER-LIGAND FREE ENERGY PREDICTED BY IDOCK:   -7.23 KCAL/MOL
REMARK 924 INTRA-LIGAND FREE ENERGY PREDICTED BY IDOCK:   -0.69 KCAL/MOL
REMARK 927      BINDING AFFINITY PREDICTED BY RF-SCORE:    0.00 PKD
ROOT
HETATM    1  C   UNL     1      -9.248   3.622  67.720  1.00  0.00    -0.184 C  
HETATM    2  O   UNL     1      -8.430   4.794  67.676  1.00  0.00    -0.104 OA 
ENDROOT
BRANCH   2   3
HETATM    3  C   UNL     1      -9.043   5.976  68.015  1.00  0.00    -0.117 A  
HETATM    4  C   UNL     1      -8.898   7.097  67.154  1.00  0.00    -0.121 A  
HETATM    5  C   UNL     1      -9.558   8.281  67.547  1.00  0.00    -0.194 A  
HETATM    6  C   UNL     1      -9.764   6.102  69.214  1.00  0.00    -0.163 A  
HETATM    7  C   UNL     1     -10.266   8.427  68.752  1.00  0.00    -0.223 A  
HETATM    8  C   UNL     1     -10.354   7.308  69.580  1.00  0.00    -0.227 A  
BRANCH   4   9
HETATM    9  C   UNL     1      -8.024   7.105  65.875  1.00  0.00    -0.116 C  
HETATM   10  C   UNL     1      -6.520   7.116  66.275  1.00  0.00    -0.051 C  
HETATM   11  C   UNL     1      -8.342   5.892  64.957  1.00  0.00    -0.131 C  
HETATM   12  C   UNL     1      -7.622   7.102  62.886  1.00  0.00    -0.107 C  
HETATM   13  C   UNL     1      -5.944   5.800  64.225  1.00  0.00    -0.025 C  
HETATM   14  C   UNL     1      -7.403   5.848  63.741  1.00  0.00    -0.064 C  
HETATM   15  C   UNL     1      -7.313   8.351  63.719  1.00  0.00    -0.106 C  
HETATM   16  C   UNL     1      -5.609   7.063  65.035  1.00  0.00    -0.032 C  
HETATM   17  C   UNL     1      -5.846   8.306  64.164  1.00  0.00    -0.065 C  
HETATM   18  C   UNL     1      -8.218   8.378  64.964  1.00  0.00    -0.155 C  
ENDBRANCH   4   9
BRANCH   7  19
HETATM   19  C   UNL     1     -10.834   9.730  69.144  1.00  0.00    -0.231 A  
HETATM   20  C   UNL     1     -12.262  13.524  70.379  1.00  0.00    -0.426 A  
HETATM   21  C   UNL     1     -12.216  11.103  70.635  1.00  0.00    -0.492 A  
HETATM   22  C   UNL     1     -10.954  12.154  68.852  1.00  0.00    -0.269 A  
HETATM   23  C   UNL     1     -10.462  10.908  68.471  1.00  0.00    -0.209 A  
HETATM   24  C   UNL     1     -11.734   9.851  70.215  1.00  0.00    -0.286 A  
HETATM   25  C   UNL     1     -11.817  12.268  69.944  1.00  0.00    -0.383 A  
HETATM   26  C   UNL     1     -13.100  13.628  71.494  1.00  0.00    -0.431 A  
HETATM   27  C   UNL     1     -13.492  12.475  72.181  1.00  0.00    -0.523 A  
HETATM   28  C   UNL     1     -13.533  14.943  72.028  1.00  0.00    -0.388 C  
HETATM   29  O   UNL     1     -13.744  15.134  73.212  1.00  0.00    -0.435 OA 
HETATM   30  C   UNL     1     -13.062  11.219  71.748  1.00  0.00    -0.527 A  
HETATM   31  O   UNL     1     -13.699  15.893  71.085  1.00  0.00    -0.444 OA 
ENDBRANCH   7  19
ENDBRANCH   2   3
TORSDOF 3
ENDMDL
MODEL       62
REMARK 921   NORMALIZED FREE ENERGY PREDICTED BY IDOCK:   -5.97 KCAL/MOL
REMARK 922        TOTAL FREE ENERGY PREDICTED BY IDOCK:   -7.81 KCAL/MOL
REMARK 923 INTER-LIGAND FREE ENERGY PREDICTED BY IDOCK:   -7.11 KCAL/MOL
REMARK 924 INTRA-LIGAND FREE ENERGY PREDICTED BY IDOCK:   -0.69 KCAL/MOL
REMARK 927      BINDING AFFINITY PREDICTED BY RF-SCORE:    0.00 PKD
ROOT
HETATM    1  C   UNL     1      -9.264   7.724  69.772  1.00  0.00    -0.150 C  
HETATM    2  O   UNL     1     -10.066   7.954  68.610  1.00  0.00    -0.186 OA 
ENDROOT
BRANCH   2   3
HETATM    3  C   UNL     1     -10.200   9.262  68.213  1.00  0.00    -0.201 A  
HETATM    4  C   UNL     1      -9.516   9.700  67.048  1.00  0.00    -0.195 A  
HETATM    5  C   UNL     1      -9.700  11.052  66.682  1.00  0.00    -0.226 A  
HETATM    6  C   UNL     1     -10.960  10.174  68.965  1.00  0.00    -0.265 A  
HETATM    7  C   UNL     1     -10.441  11.979  67.434  1.00  0.00    -0.239 A  
HETATM    8  C   UNL     1     -11.069  11.510  68.588  1.00  0.00    -0.291 A  
BRANCH   4   9
HETATM    9  C   UNL     1      -8.554   8.814  66.218  1.00  0.00    -0.144 C  
HETATM   10  C   UNL     1      -8.378   9.430  64.799  1.00  0.00    -0.159 C  
HETATM   11  C   UNL     1      -7.178   8.649  66.922  1.00  0.00    -0.075 C  
HETATM   12  C   UNL     1      -6.739   6.438  65.830  1.00  0.00    -0.048 C  
HETATM   13  C   UNL     1      -6.033   8.562  64.691  1.00  0.00    -0.064 C  
HETATM   14  C   UNL     1      -6.194   7.855  66.048  1.00  0.00    -0.042 C  
HETATM   15  C   UNL     1      -8.096   6.513  65.122  1.00  0.00    -0.133 C  
HETATM   16  C   UNL     1      -7.381   8.615  63.954  1.00  0.00    -0.100 C  
HETATM   17  C   UNL     1      -7.912   7.188  63.757  1.00  0.00    -0.072 C  
HETATM   18  C   UNL     1      -9.075   7.347  65.970  1.00  0.00    -0.129 C  
ENDBRANCH   4   9
BRANCH   7  19
HETATM   19  C   UNL     1     -10.493  13.400  67.045  1.00  0.00    -0.257 A  
HETATM   20  C   UNL     1     -10.413  17.474  65.882  1.00  0.00    -0.251 A  
HETATM   21  C   UNL     1     -10.500  15.783  67.631  1.00  0.00    -0.282 A  
HETATM   22  C   UNL     1     -10.486  15.113  65.301  1.00  0.00    -0.434 A  
HETATM   23  C   UNL     1     -10.479  13.775  65.690  1.00  0.00    -0.312 A  
HETATM   24  C   UNL     1     -10.526  14.427  68.003  1.00  0.00    -0.237 A  
HETATM   25  C   UNL     1     -10.477  16.127  66.262  1.00  0.00    -0.321 A  
HETATM   26  C   UNL     1     -10.372  18.480  66.854  1.00  0.00    -0.431 A  
HETATM   27  C   UNL     1     -10.391  18.139  68.210  1.00  0.00    -0.377 A  
HETATM   28  C   UNL     1     -10.231  19.912  66.493  1.00  0.00    -0.491 C  
HETATM   29  O   UNL     1      -9.647  20.714  67.201  1.00  0.00    -0.438 OA 
HETATM   30  C   UNL     1     -10.466  16.800  68.597  1.00  0.00    -0.333 A  
HETATM   31  O   UNL     1     -10.829  20.249  65.332  1.00  0.00    -0.228 OA 
ENDBRANCH   7  19
ENDBRANCH   2   3
TORSDOF 3
ENDMDL
MODEL       63
REMARK 921   NORMALIZED FREE ENERGY PREDICTED BY IDOCK:   -5.95 KCAL/MOL
REMARK 922        TOTAL FREE ENERGY PREDICTED BY IDOCK:   -7.78 KCAL/MOL
REMARK 923 INTER-LIGAND FREE ENERGY PREDICTED BY IDOCK:   -7.24 KCAL/MOL
REMARK 924 INTRA-LIGAND FREE ENERGY PREDICTED BY IDOCK:   -0.54 KCAL/MOL
REMARK 927      BINDING AFFINITY PREDICTED BY RF-SCORE:    0.00 PKD
ROOT
HETATM    1  C   UNL     1     -12.325  15.528  64.030  1.00  0.00     0.171 C  
HETATM    2  O   UNL     1     -11.053  15.016  64.438  1.00  0.00    -0.261 OA 
ENDROOT
BRANCH   2   3
HETATM    3  C   UNL     1     -11.075  13.984  65.344  1.00  0.00    -0.318 A  
HETATM    4  C   UNL     1     -10.593  14.215  66.660  1.00  0.00    -0.278 A  
HETATM    5  C   UNL     1     -10.649  13.122  67.551  1.00  0.00    -0.240 A  
HETATM    6  C   UNL     1     -11.519  12.703  64.974  1.00  0.00    -0.366 A  
HETATM    7  C   UNL     1     -11.072  11.831  67.190  1.00  0.00    -0.350 A  
HETATM    8  C   UNL     1     -11.507  11.645  65.878  1.00  0.00    -0.189 A  
BRANCH   4   9
HETATM    9  C   UNL     1      -9.966  15.549  67.136  1.00  0.00    -0.242 C  
HETATM   10  C   UNL     1     -10.975  16.710  66.897  1.00  0.00     0.050 C  
HETATM   11  C   UNL     1      -9.546  15.483  68.631  1.00  0.00    -0.203 C  
HETATM   12  C   UNL     1      -7.755  17.210  68.340  1.00  0.00    -0.237 C  
HETATM   13  C   UNL     1     -10.097  17.915  68.907  1.00  0.00    -0.349 C  
HETATM   14  C   UNL     1      -9.019  16.840  69.126  1.00  0.00    -0.115 C  
HETATM   15  C   UNL     1      -8.089  17.310  66.848  1.00  0.00    -0.258 C  
HETATM   16  C   UNL     1     -10.419  18.051  67.411  1.00  0.00    -0.399 C  
HETATM   17  C   UNL     1      -9.138  18.410  66.643  1.00  0.00    -0.301 C  
HETATM   18  C   UNL     1      -8.661  15.968  66.355  1.00  0.00    -0.362 C  
ENDBRANCH   4   9
BRANCH   7  19
HETATM   19  C   UNL     1     -10.996  10.713  68.150  1.00  0.00    -0.321 A  
HETATM   20  C   UNL     1     -10.545   7.537  70.918  1.00  0.00    -0.227 A  
HETATM   21  C   UNL     1     -10.884   8.311  68.634  1.00  0.00     0.031 A  
HETATM   22  C   UNL     1     -10.736   9.916  70.446  1.00  0.00    -0.379 A  
HETATM   23  C   UNL     1     -10.851  10.957  69.527  1.00  0.00    -0.286 A  
HETATM   24  C   UNL     1     -11.031   9.375  67.727  1.00  0.00    -0.122 A  
HETATM   25  C   UNL     1     -10.732   8.589  70.011  1.00  0.00    -0.234 A  
HETATM   26  C   UNL     1     -10.510   6.214  70.466  1.00  0.00    -0.291 A  
HETATM   27  C   UNL     1     -10.657   5.939  69.103  1.00  0.00    -0.369 A  
HETATM   28  C   UNL     1     -10.242   5.080  71.386  1.00  0.00    -0.200 C  
HETATM   29  O   UNL     1      -9.661   4.070  71.031  1.00  0.00    -0.167 OA 
HETATM   30  C   UNL     1     -10.854   6.979  68.194  1.00  0.00    -0.214 A  
HETATM   31  O   UNL     1     -10.725   5.256  72.633  1.00  0.00    -0.215 OA 
ENDBRANCH   7  19
ENDBRANCH   2   3
TORSDOF 3
ENDMDL
MODEL       64
REMARK 921   NORMALIZED FREE ENERGY PREDICTED BY IDOCK:   -5.90 KCAL/MOL
REMARK 922        TOTAL FREE ENERGY PREDICTED BY IDOCK:   -7.73 KCAL/MOL
REMARK 923 INTER-LIGAND FREE ENERGY PREDICTED BY IDOCK:   -6.93 KCAL/MOL
REMARK 924 INTRA-LIGAND FREE ENERGY PREDICTED BY IDOCK:   -0.80 KCAL/MOL
REMARK 927      BINDING AFFINITY PREDICTED BY RF-SCORE:    0.00 PKD
ROOT
HETATM    1  C   UNL     1      -8.136   4.561  72.126  1.00  0.00    -0.101 C  
HETATM    2  O   UNL     1      -8.862   4.373  70.909  1.00  0.00    -0.099 OA 
ENDROOT
BRANCH   2   3
HETATM    3  C   UNL     1      -9.286   5.514  70.272  1.00  0.00    -0.154 A  
HETATM    4  C   UNL     1      -9.223   5.573  68.854  1.00  0.00    -0.141 A  
HETATM    5  C   UNL     1      -9.683   6.766  68.253  1.00  0.00    -0.126 A  
HETATM    6  C   UNL     1      -9.733   6.629  71.001  1.00  0.00    -0.185 A  
HETATM    7  C   UNL     1     -10.113   7.895  68.971  1.00  0.00    -0.204 A  
HETATM    8  C   UNL     1     -10.128   7.800  70.362  1.00  0.00    -0.194 A  
BRANCH   4   9
HETATM    9  C   UNL     1      -8.632   4.454  67.961  1.00  0.00    -0.111 C  
HETATM   10  C   UNL     1      -8.962   4.754  66.469  1.00  0.00    -0.112 C  
HETATM   11  C   UNL     1      -7.099   4.306  68.168  1.00  0.00    -0.059 C  
HETATM   12  C   UNL     1      -7.110   1.890  67.507  1.00  0.00    -0.043 C  
HETATM   13  C   UNL     1      -6.821   3.669  65.757  1.00  0.00    -0.057 C  
HETATM   14  C   UNL     1      -6.501   3.266  67.207  1.00  0.00    -0.037 C  
HETATM   15  C   UNL     1      -8.629   1.948  67.309  1.00  0.00    -0.111 C  
HETATM   16  C   UNL     1      -8.342   3.698  65.535  1.00  0.00    -0.105 C  
HETATM   17  C   UNL     1      -8.931   2.316  65.851  1.00  0.00    -0.110 C  
HETATM   18  C   UNL     1      -9.230   3.021  68.236  1.00  0.00    -0.244 C  
ENDBRANCH   4   9
BRANCH   7  19
HETATM   19  C   UNL     1     -10.473   9.144  68.273  1.00  0.00    -0.254 A  
HETATM   20  C   UNL     1     -11.729  12.656  66.264  1.00  0.00    -0.460 A  
HETATM   21  C   UNL     1     -10.643  10.477  66.221  1.00  0.00    -0.203 A  
HETATM   22  C   UNL     1     -11.488  11.367  68.312  1.00  0.00    -0.369 A  
HETATM   23  C   UNL     1     -11.103  10.196  68.962  1.00  0.00    -0.249 A  
HETATM   24  C   UNL     1     -10.233   9.317  66.901  1.00  0.00    -0.327 A  
HETATM   25  C   UNL     1     -11.281  11.513  66.939  1.00  0.00    -0.363 A  
HETATM   26  C   UNL     1     -11.545  12.777  64.882  1.00  0.00    -0.369 A  
HETATM   27  C   UNL     1     -10.917  11.750  64.171  1.00  0.00    -0.437 A  
HETATM   28  C   UNL     1     -12.068  13.939  64.122  1.00  0.00    -0.425 C  
HETATM   29  O   UNL     1     -12.443  13.852  62.966  1.00  0.00    -0.689 OA 
HETATM   30  C   UNL     1     -10.459  10.612  64.837  1.00  0.00    -0.282 A  
HETATM   31  O   UNL     1     -12.063  15.097  64.812  1.00  0.00    -0.309 OA 
ENDBRANCH   7  19
ENDBRANCH   2   3
TORSDOF 3
ENDMDL
MODEL       65
REMARK 921   NORMALIZED FREE ENERGY PREDICTED BY IDOCK:   -5.87 KCAL/MOL
REMARK 922        TOTAL FREE ENERGY PREDICTED BY IDOCK:   -7.68 KCAL/MOL
REMARK 923 INTER-LIGAND FREE ENERGY PREDICTED BY IDOCK:   -7.04 KCAL/MOL
REMARK 924 INTRA-LIGAND FREE ENERGY PREDICTED BY IDOCK:   -0.65 KCAL/MOL
REMARK 927      BINDING AFFINITY PREDICTED BY RF-SCORE:    0.00 PKD
ROOT
HETATM    1  C   UNL     1     -12.007   6.525  71.434  1.00  0.00    -0.316 C  
HETATM    2  O   UNL     1     -11.283   6.534  70.201  1.00  0.00    -0.313 OA 
ENDROOT
BRANCH   2   3
HETATM    3  C   UNL     1     -10.924   7.769  69.716  1.00  0.00    -0.158 A  
HETATM    4  C   UNL     1     -10.192   7.843  68.501  1.00  0.00    -0.229 A  
HETATM    5  C   UNL     1      -9.860   9.137  68.045  1.00  0.00    -0.197 A  
HETATM    6  C   UNL     1     -11.229   8.943  70.425  1.00  0.00    -0.259 A  
HETATM    7  C   UNL     1     -10.141  10.319  68.753  1.00  0.00    -0.198 A  
HETATM    8  C   UNL     1     -10.834  10.193  69.956  1.00  0.00    -0.361 A  
BRANCH   4   9
HETATM    9  C   UNL     1      -9.696   6.609  67.707  1.00  0.00    -0.136 C  
HETATM   10  C   UNL     1      -8.786   5.736  68.620  1.00  0.00    -0.110 C  
HETATM   11  C   UNL     1     -10.882   5.774  67.149  1.00  0.00    -0.308 C  
HETATM   12  C   UNL     1      -9.527   4.883  65.240  1.00  0.00    -0.106 C  
HETATM   13  C   UNL     1      -9.550   3.667  67.437  1.00  0.00    -0.197 C  
HETATM   14  C   UNL     1     -10.387   4.497  66.449  1.00  0.00    -0.194 C  
HETATM   15  C   UNL     1      -8.320   5.702  65.709  1.00  0.00    -0.132 C  
HETATM   16  C   UNL     1      -8.316   4.464  67.892  1.00  0.00    -0.095 C  
HETATM   17  C   UNL     1      -7.477   4.849  66.665  1.00  0.00    -0.087 C  
HETATM   18  C   UNL     1      -8.807   6.960  66.452  1.00  0.00    -0.155 C  
ENDBRANCH   4   9
BRANCH   7  19
HETATM   19  C   UNL     1      -9.663  11.626  68.265  1.00  0.00    -0.197 A  
HETATM   20  C   UNL     1      -8.318  15.465  67.079  1.00  0.00    -0.268 A  
HETATM   21  C   UNL     1     -10.061  13.765  67.132  1.00  0.00    -0.241 A  
HETATM   22  C   UNL     1      -7.899  13.313  68.132  1.00  0.00    -0.145 A  
HETATM   23  C   UNL     1      -8.357  12.065  68.548  1.00  0.00    -0.104 A  
HETATM   24  C   UNL     1     -10.494  12.489  67.533  1.00  0.00    -0.231 A  
HETATM   25  C   UNL     1      -8.747  14.180  67.440  1.00  0.00    -0.217 A  
HETATM   26  C   UNL     1      -9.188  16.337  66.415  1.00  0.00    -0.332 A  
HETATM   27  C   UNL     1     -10.490  15.928  66.114  1.00  0.00    -0.336 A  
HETATM   28  C   UNL     1      -8.795  17.729  66.081  1.00  0.00    -0.091 C  
HETATM   29  O   UNL     1      -9.595  18.648  66.048  1.00  0.00    -0.487 OA 
HETATM   30  C   UNL     1     -10.921  14.646  66.460  1.00  0.00    -0.318 A  
HETATM   31  O   UNL     1      -7.486  17.878  65.790  1.00  0.00    -0.520 OA 
ENDBRANCH   7  19
ENDBRANCH   2   3
TORSDOF 3
ENDMDL
MODEL       66
REMARK 921   NORMALIZED FREE ENERGY PREDICTED BY IDOCK:   -5.85 KCAL/MOL
REMARK 922        TOTAL FREE ENERGY PREDICTED BY IDOCK:   -7.67 KCAL/MOL
REMARK 923 INTER-LIGAND FREE ENERGY PREDICTED BY IDOCK:   -7.36 KCAL/MOL
REMARK 924 INTRA-LIGAND FREE ENERGY PREDICTED BY IDOCK:   -0.30 KCAL/MOL
REMARK 927      BINDING AFFINITY PREDICTED BY RF-SCORE:    0.00 PKD
ROOT
HETATM    1  C   UNL     1      -7.025   2.596  67.652  1.00  0.00    -0.048 C  
HETATM    2  O   UNL     1      -7.909   3.243  68.571  1.00  0.00    -0.058 OA 
ENDROOT
BRANCH   2   3
HETATM    3  C   UNL     1      -8.297   4.520  68.244  1.00  0.00    -0.090 A  
HETATM    4  C   UNL     1      -8.800   5.369  69.266  1.00  0.00    -0.112 A  
HETATM    5  C   UNL     1      -9.173   6.673  68.874  1.00  0.00    -0.130 A  
HETATM    6  C   UNL     1      -8.247   4.976  66.916  1.00  0.00    -0.107 A  
HETATM    7  C   UNL     1      -9.147   7.135  67.547  1.00  0.00    -0.123 A  
HETATM    8  C   UNL     1      -8.675   6.255  66.573  1.00  0.00    -0.131 A  
BRANCH   4   9
HETATM    9  C   UNL     1      -9.015   4.928  70.736  1.00  0.00    -0.167 C  
HETATM   10  C   UNL     1     -10.293   5.615  71.300  1.00  0.00    -0.289 C  
HETATM   11  C   UNL     1      -9.119   3.383  70.861  1.00  0.00    -0.184 C  
HETATM   12  C   UNL     1      -8.282   3.386  73.222  1.00  0.00    -0.075 C  
HETATM   13  C   UNL     1     -10.739   3.632  72.761  1.00  0.00    -0.139 C  
HETATM   14  C   UNL     1      -9.434   2.957  72.304  1.00  0.00    -0.184 C  
HETATM   15  C   UNL     1      -8.123   4.909  73.167  1.00  0.00    -0.101 C  
HETATM   16  C   UNL     1     -10.583   5.161  72.743  1.00  0.00    -0.278 C  
HETATM   17  C   UNL     1      -9.419   5.567  73.658  1.00  0.00    -0.138 C  
HETATM   18  C   UNL     1      -7.853   5.349  71.715  1.00  0.00    -0.112 C  
ENDBRANCH   4   9
BRANCH   7  19
HETATM   19  C   UNL     1      -9.660   8.474  67.202  1.00  0.00    -0.232 A  
HETATM   20  C   UNL     1     -11.348  12.229  66.200  1.00  0.00    -0.402 A  
HETATM   21  C   UNL     1     -10.099  10.240  65.556  1.00  0.00    -0.351 A  
HETATM   22  C   UNL     1     -10.842  10.513  67.848  1.00  0.00    -0.333 A  
HETATM   23  C   UNL     1     -10.314   9.263  68.164  1.00  0.00    -0.261 A  
HETATM   24  C   UNL     1      -9.545   8.995  65.903  1.00  0.00    -0.317 A  
HETATM   25  C   UNL     1     -10.758  11.005  66.544  1.00  0.00    -0.298 A  
HETATM   26  C   UNL     1     -11.285  12.696  64.883  1.00  0.00    -0.332 A  
HETATM   27  C   UNL     1     -10.636  11.937  63.904  1.00  0.00    -0.444 A  
HETATM   28  C   UNL     1     -11.958  13.951  64.465  1.00  0.00    -0.437 C  
HETATM   29  O   UNL     1     -12.417  14.110  63.347  1.00  0.00    -0.797 OA 
HETATM   30  C   UNL     1     -10.037  10.722  64.241  1.00  0.00    -0.427 A  
HETATM   31  O   UNL     1     -11.990  14.904  65.419  1.00  0.00    -0.262 OA 
ENDBRANCH   7  19
ENDBRANCH   2   3
TORSDOF 3
ENDMDL
MODEL       67
REMARK 921   NORMALIZED FREE ENERGY PREDICTED BY IDOCK:   -5.79 KCAL/MOL
REMARK 922        TOTAL FREE ENERGY PREDICTED BY IDOCK:   -7.60 KCAL/MOL
REMARK 923 INTER-LIGAND FREE ENERGY PREDICTED BY IDOCK:   -6.91 KCAL/MOL
REMARK 924 INTRA-LIGAND FREE ENERGY PREDICTED BY IDOCK:   -0.69 KCAL/MOL
REMARK 927      BINDING AFFINITY PREDICTED BY RF-SCORE:    0.00 PKD
ROOT
HETATM    1  C   UNL     1      -5.890  14.117  68.039  1.00  0.00    -0.135 C  
HETATM    2  O   UNL     1      -7.042  13.489  67.471  1.00  0.00    -0.161 OA 
ENDROOT
BRANCH   2   3
HETATM    3  C   UNL     1      -7.494  12.358  68.108  1.00  0.00    -0.118 A  
HETATM    4  C   UNL     1      -8.814  11.903  67.845  1.00  0.00    -0.172 A  
HETATM    5  C   UNL     1      -9.220  10.731  68.518  1.00  0.00    -0.174 A  
HETATM    6  C   UNL     1      -6.691  11.681  69.041  1.00  0.00    -0.100 A  
HETATM    7  C   UNL     1      -8.436  10.055  69.468  1.00  0.00    -0.186 A  
HETATM    8  C   UNL     1      -7.158  10.557  69.716  1.00  0.00    -0.150 A  
BRANCH   4   9
HETATM    9  C   UNL     1      -9.825  12.642  66.933  1.00  0.00    -0.234 C  
HETATM   10  C   UNL     1     -11.198  11.910  66.981  1.00  0.00    -0.379 C  
HETATM   11  C   UNL     1      -9.980  14.133  67.342  1.00  0.00    -0.240 C  
HETATM   12  C   UNL     1     -10.631  14.837  65.027  1.00  0.00    -0.452 C  
HETATM   13  C   UNL     1     -12.392  14.085  66.652  1.00  0.00    -0.408 C  
HETATM   14  C   UNL     1     -11.058  14.836  66.500  1.00  0.00    -0.334 C  
HETATM   15  C   UNL     1     -10.469  13.393  64.540  1.00  0.00    -0.431 C  
HETATM   16  C   UNL     1     -12.255  12.644  66.135  1.00  0.00    -0.279 C  
HETATM   17  C   UNL     1     -11.815  12.669  64.664  1.00  0.00    -0.437 C  
HETATM   18  C   UNL     1      -9.423  12.668  65.408  1.00  0.00     0.126 C  
ENDBRANCH   4   9
BRANCH   7  19
HETATM   19  C   UNL     1      -8.974   8.901  70.212  1.00  0.00    -0.201 A  
HETATM   20  C   UNL     1     -10.328   5.590  72.483  1.00  0.00    -0.246 A  
HETATM   21  C   UNL     1      -9.343   6.487  70.445  1.00  0.00    -0.166 A  
HETATM   22  C   UNL     1     -10.034   7.990  72.218  1.00  0.00    -0.304 A  
HETATM   23  C   UNL     1      -9.557   9.071  71.480  1.00  0.00    -0.340 A  
HETATM   24  C   UNL     1      -8.897   7.594  69.703  1.00  0.00    -0.140 A  
HETATM   25  C   UNL     1      -9.916   6.690  71.719  1.00  0.00    -0.188 A  
HETATM   26  C   UNL     1     -10.175   4.291  71.988  1.00  0.00    -0.220 A  
HETATM   27  C   UNL     1      -9.604   4.089  70.727  1.00  0.00    -0.263 A  
HETATM   28  C   UNL     1     -10.532   3.098  72.795  1.00  0.00    -0.128 C  
HETATM   29  O   UNL     1      -9.942   2.037  72.696  1.00  0.00    -0.107 OA 
HETATM   30  C   UNL     1      -9.201   5.180  69.956  1.00  0.00    -0.180 A  
HETATM   31  O   UNL     1     -11.583   3.285  73.621  1.00  0.00    -0.157 OA 
ENDBRANCH   7  19
ENDBRANCH   2   3
TORSDOF 3
ENDMDL
MODEL       68
REMARK 921   NORMALIZED FREE ENERGY PREDICTED BY IDOCK:   -5.78 KCAL/MOL
REMARK 922        TOTAL FREE ENERGY PREDICTED BY IDOCK:   -7.58 KCAL/MOL
REMARK 923 INTER-LIGAND FREE ENERGY PREDICTED BY IDOCK:   -6.87 KCAL/MOL
REMARK 924 INTRA-LIGAND FREE ENERGY PREDICTED BY IDOCK:   -0.71 KCAL/MOL
REMARK 927      BINDING AFFINITY PREDICTED BY RF-SCORE:    0.00 PKD
ROOT
HETATM    1  C   UNL     1      -9.534   1.511  68.657  1.00  0.00    -0.165 C  
HETATM    2  O   UNL     1      -8.644   2.624  68.546  1.00  0.00    -0.068 OA 
ENDROOT
BRANCH   2   3
HETATM    3  C   UNL     1      -9.191   3.865  68.765  1.00  0.00    -0.152 A  
HETATM    4  C   UNL     1      -9.241   4.793  67.689  1.00  0.00    -0.144 A  
HETATM    5  C   UNL     1      -9.824   6.048  67.969  1.00  0.00    -0.137 A  
HETATM    6  C   UNL     1      -9.653   4.241  70.037  1.00  0.00    -0.274 A  
HETATM    7  C   UNL     1     -10.272   6.444  69.241  1.00  0.00    -0.229 A  
HETATM    8  C   UNL     1     -10.174   5.510  70.272  1.00  0.00    -0.326 A  
BRANCH   4   9
HETATM    9  C   UNL     1      -8.647   4.529  66.283  1.00  0.00    -0.113 C  
HETATM   10  C   UNL     1      -9.527   3.482  65.538  1.00  0.00    -0.147 C  
HETATM   11  C   UNL     1      -8.529   5.839  65.457  1.00  0.00    -0.150 C  
HETATM   12  C   UNL     1      -6.626   4.960  64.087  1.00  0.00    -0.042 C  
HETATM   13  C   UNL     1      -8.992   4.565  63.345  1.00  0.00    -0.131 C  
HETATM   14  C   UNL     1      -8.036   5.559  64.028  1.00  0.00    -0.123 C  
HETATM   15  C   UNL     1      -6.659   3.648  64.878  1.00  0.00    -0.040 C  
HETATM   16  C   UNL     1      -9.010   3.231  64.109  1.00  0.00    -0.102 C  
HETATM   17  C   UNL     1      -7.587   2.656  64.166  1.00  0.00    -0.071 C  
HETATM   18  C   UNL     1      -7.196   3.913  66.297  1.00  0.00    -0.064 C  
ENDBRANCH   4   9
BRANCH   7  19
HETATM   19  C   UNL     1     -10.766   7.813  69.477  1.00  0.00    -0.200 A  
HETATM   20  C   UNL     1     -11.983  11.795  70.265  1.00  0.00    -0.429 A  
HETATM   21  C   UNL     1     -12.097   9.416  70.773  1.00  0.00    -0.270 A  
HETATM   22  C   UNL     1     -10.727  10.196  68.930  1.00  0.00    -0.249 A  
HETATM   23  C   UNL     1     -10.304   8.889  68.697  1.00  0.00    -0.228 A  
HETATM   24  C   UNL     1     -11.683   8.100  70.501  1.00  0.00    -0.067 A  
HETATM   25  C   UNL     1     -11.608  10.476  69.977  1.00  0.00    -0.392 A  
HETATM   26  C   UNL     1     -12.840  12.066  71.336  1.00  0.00    -0.391 A  
HETATM   27  C   UNL     1     -13.322  11.018  72.126  1.00  0.00    -0.285 A  
HETATM   28  C   UNL     1     -13.203  13.454  71.716  1.00  0.00    -0.407 C  
HETATM   29  O   UNL     1     -13.431  13.782  72.867  1.00  0.00    -0.652 OA 
HETATM   30  C   UNL     1     -12.961   9.700  71.840  1.00  0.00    -0.527 A  
HETATM   31  O   UNL     1     -13.285  14.308  70.674  1.00  0.00    -0.300 OA 
ENDBRANCH   7  19
ENDBRANCH   2   3
TORSDOF 3
ENDMDL
MODEL       69
REMARK 921   NORMALIZED FREE ENERGY PREDICTED BY IDOCK:   -5.76 KCAL/MOL
REMARK 922        TOTAL FREE ENERGY PREDICTED BY IDOCK:   -7.56 KCAL/MOL
REMARK 923 INTER-LIGAND FREE ENERGY PREDICTED BY IDOCK:   -6.91 KCAL/MOL
REMARK 924 INTRA-LIGAND FREE ENERGY PREDICTED BY IDOCK:   -0.65 KCAL/MOL
REMARK 927      BINDING AFFINITY PREDICTED BY RF-SCORE:    0.00 PKD
ROOT
HETATM    1  C   UNL     1     -10.143  16.928  67.972  1.00  0.00    -0.293 C  
HETATM    2  O   UNL     1     -11.187  15.966  68.140  1.00  0.00    -0.338 OA 
ENDROOT
BRANCH   2   3
HETATM    3  C   UNL     1     -10.834  14.649  67.970  1.00  0.00    -0.257 A  
HETATM    4  C   UNL     1     -11.210  13.704  68.962  1.00  0.00    -0.316 A  
HETATM    5  C   UNL     1     -10.830  12.364  68.729  1.00  0.00    -0.263 A  
HETATM    6  C   UNL     1     -10.074  14.240  66.862  1.00  0.00    -0.264 A  
HETATM    7  C   UNL     1     -10.053  11.944  67.636  1.00  0.00    -0.202 A  
HETATM    8  C   UNL     1      -9.681  12.913  66.705  1.00  0.00    -0.254 A  
BRANCH   4   9
HETATM    9  C   UNL     1     -11.938  14.067  70.280  1.00  0.00    -0.409 C  
HETATM   10  C   UNL     1     -10.927  14.721  71.267  1.00  0.00     0.220 C  
HETATM   11  C   UNL     1     -13.148  15.009  70.025  1.00  0.00     0.094 C  
HETATM   12  C   UNL     1     -14.364  14.216  72.066  1.00  0.00    -0.599 C  
HETATM   13  C   UNL     1     -12.753  16.135  72.232  1.00  0.00    -0.369 C  
HETATM   14  C   UNL     1     -13.804  15.448  71.344  1.00  0.00    -0.577 C  
HETATM   15  C   UNL     1     -13.224  13.238  72.369  1.00  0.00    -0.539 C  
HETATM   16  C   UNL     1     -11.619  15.155  72.572  1.00  0.00    -0.448 C  
HETATM   17  C   UNL     1     -12.202  13.926  73.283  1.00  0.00     0.755 C  
HETATM   18  C   UNL     1     -12.531  12.828  71.056  1.00  0.00    -0.369 C  
ENDBRANCH   4   9
BRANCH   7  19
HETATM   19  C   UNL     1      -9.602  10.544  67.521  1.00  0.00    -0.181 A  
HETATM   20  C   UNL     1      -8.273   6.559  66.963  1.00  0.00    -0.113 A  
HETATM   21  C   UNL     1     -10.087   8.150  67.293  1.00  0.00    -0.309 A  
HETATM   22  C   UNL     1      -7.789   8.924  67.269  1.00  0.00    -0.096 A  
HETATM   23  C   UNL     1      -8.234  10.235  67.419  1.00  0.00    -0.114 A  
HETATM   24  C   UNL     1     -10.514   9.477  67.477  1.00  0.00    -0.336 A  
HETATM   25  C   UNL     1      -8.706   7.874  67.185  1.00  0.00    -0.133 A  
HETATM   26  C   UNL     1      -9.202   5.520  66.848  1.00  0.00    -0.119 A  
HETATM   27  C   UNL     1     -10.570   5.794  66.951  1.00  0.00    -0.377 A  
HETATM   28  C   UNL     1      -8.787   4.129  66.541  1.00  0.00    -0.118 C  
HETATM   29  O   UNL     1      -9.483   3.362  65.900  1.00  0.00    -0.164 OA 
HETATM   30  C   UNL     1     -11.009   7.099  67.183  1.00  0.00    -0.342 A  
HETATM   31  O   UNL     1      -7.590   3.784  67.059  1.00  0.00    -0.078 OA 
ENDBRANCH   7  19
ENDBRANCH   2   3
TORSDOF 3
ENDMDL
MODEL       70
REMARK 921   NORMALIZED FREE ENERGY PREDICTED BY IDOCK:   -5.75 KCAL/MOL
REMARK 922        TOTAL FREE ENERGY PREDICTED BY IDOCK:   -7.54 KCAL/MOL
REMARK 923 INTER-LIGAND FREE ENERGY PREDICTED BY IDOCK:   -6.95 KCAL/MOL
REMARK 924 INTRA-LIGAND FREE ENERGY PREDICTED BY IDOCK:   -0.59 KCAL/MOL
REMARK 927      BINDING AFFINITY PREDICTED BY RF-SCORE:    0.00 PKD
ROOT
HETATM    1  C   UNL     1      -6.340  14.252  68.225  1.00  0.00    -0.118 C  
HETATM    2  O   UNL     1      -7.230  13.409  67.490  1.00  0.00    -0.158 OA 
ENDROOT
BRANCH   2   3
HETATM    3  C   UNL     1      -7.664  12.274  68.133  1.00  0.00    -0.138 A  
HETATM    4  C   UNL     1      -8.948  11.754  67.817  1.00  0.00    -0.173 A  
HETATM    5  C   UNL     1      -9.336  10.581  68.501  1.00  0.00    -0.168 A  
HETATM    6  C   UNL     1      -6.880  11.657  69.122  1.00  0.00    -0.111 A  
HETATM    7  C   UNL     1      -8.571   9.965  69.506  1.00  0.00    -0.194 A  
HETATM    8  C   UNL     1      -7.331  10.530  69.803  1.00  0.00    -0.139 A  
BRANCH   4   9
HETATM    9  C   UNL     1      -9.942  12.425  66.837  1.00  0.00    -0.223 C  
HETATM   10  C   UNL     1     -10.030  13.947  67.150  1.00  0.00    -0.239 C  
HETATM   11  C   UNL     1      -9.535  12.188  65.357  1.00  0.00    -0.035 C  
HETATM   12  C   UNL     1     -11.892  12.396  64.537  1.00  0.00    -0.452 C  
HETATM   13  C   UNL     1     -10.447  14.440  64.731  1.00  0.00    -0.394 C  
HETATM   14  C   UNL     1     -10.466  12.940  64.392  1.00  0.00    -0.419 C  
HETATM   15  C   UNL     1     -12.377  12.606  65.975  1.00  0.00    -0.177 C  
HETATM   16  C   UNL     1     -10.963  14.670  66.161  1.00  0.00    -0.329 C  
HETATM   17  C   UNL     1     -12.387  14.107  66.286  1.00  0.00    -0.451 C  
HETATM   18  C   UNL     1     -11.423  11.893  66.952  1.00  0.00    -0.390 C  
ENDBRANCH   4   9
BRANCH   7  19
HETATM   19  C   UNL     1      -9.095   8.806  70.253  1.00  0.00    -0.185 A  
HETATM   20  C   UNL     1     -10.430   5.509  72.556  1.00  0.00    -0.260 A  
HETATM   21  C   UNL     1      -9.266   6.384  70.603  1.00  0.00    -0.162 A  
HETATM   22  C   UNL     1     -10.327   7.907  72.164  1.00  0.00    -0.297 A  
HETATM   23  C   UNL     1      -9.857   8.988  71.421  1.00  0.00    -0.381 A  
HETATM   24  C   UNL     1      -8.829   7.487  69.850  1.00  0.00    -0.141 A  
HETATM   25  C   UNL     1     -10.022   6.600  71.776  1.00  0.00    -0.188 A  
HETATM   26  C   UNL     1     -10.091   4.206  72.175  1.00  0.00    -0.248 A  
HETATM   27  C   UNL     1      -9.339   3.992  71.016  1.00  0.00    -0.219 A  
HETATM   28  C   UNL     1     -10.441   3.031  73.011  1.00  0.00    -0.160 C  
HETATM   29  O   UNL     1      -9.747   2.031  73.063  1.00  0.00    -0.080 OA 
HETATM   30  C   UNL     1      -8.939   5.072  70.229  1.00  0.00    -0.151 A  
HETATM   31  O   UNL     1     -11.606   3.157  73.679  1.00  0.00    -0.172 OA 
ENDBRANCH   7  19
ENDBRANCH   2   3
TORSDOF 3
ENDMDL
MODEL       71
REMARK 921   NORMALIZED FREE ENERGY PREDICTED BY IDOCK:   -5.70 KCAL/MOL
REMARK 922        TOTAL FREE ENERGY PREDICTED BY IDOCK:   -7.49 KCAL/MOL
REMARK 923 INTER-LIGAND FREE ENERGY PREDICTED BY IDOCK:   -6.94 KCAL/MOL
REMARK 924 INTRA-LIGAND FREE ENERGY PREDICTED BY IDOCK:   -0.54 KCAL/MOL
REMARK 927      BINDING AFFINITY PREDICTED BY RF-SCORE:    0.00 PKD
ROOT
HETATM    1  C   UNL     1      -5.316  17.715  70.581  1.00  0.00    -0.261 C  
HETATM    2  O   UNL     1      -6.023  17.650  69.340  1.00  0.00    -0.211 OA 
ENDROOT
BRANCH   2   3
HETATM    3  C   UNL     1      -6.550  16.426  69.003  1.00  0.00    -0.181 A  
HETATM    4  C   UNL     1      -7.737  16.381  68.224  1.00  0.00    -0.162 A  
HETATM    5  C   UNL     1      -8.227  15.097  67.900  1.00  0.00    -0.152 A  
HETATM    6  C   UNL     1      -5.961  15.234  69.455  1.00  0.00    -0.116 A  
HETATM    7  C   UNL     1      -7.660  13.897  68.361  1.00  0.00    -0.130 A  
HETATM    8  C   UNL     1      -6.513  13.993  69.149  1.00  0.00    -0.113 A  
BRANCH   4   9
HETATM    9  C   UNL     1      -8.536  17.631  67.780  1.00  0.00    -0.228 C  
HETATM   10  C   UNL     1      -8.569  18.665  68.944  1.00  0.00    -0.203 C  
HETATM   11  C   UNL     1      -7.937  18.266  66.495  1.00  0.00    -0.294 C  
HETATM   12  C   UNL     1     -10.135  19.243  65.795  1.00  0.00    -0.217 C  
HETATM   13  C   UNL     1      -8.602  20.549  67.296  1.00  0.00    -0.372 C  
HETATM   14  C   UNL     1      -8.670  19.564  66.116  1.00  0.00    -0.332 C  
HETATM   15  C   UNL     1     -10.806  18.623  67.025  1.00  0.00    -0.297 C  
HETATM   16  C   UNL     1      -9.302  19.954  68.529  1.00  0.00    -0.300 C  
HETATM   17  C   UNL     1     -10.762  19.630  68.180  1.00  0.00    -0.255 C  
HETATM   18  C   UNL     1     -10.049  17.347  67.438  1.00  0.00    -0.321 C  
ENDBRANCH   4   9
BRANCH   7  19
HETATM   19  C   UNL     1      -8.296  12.598  68.071  1.00  0.00    -0.175 A  
HETATM   20  C   UNL     1     -10.319   8.946  67.342  1.00  0.00    -0.337 A  
HETATM   21  C   UNL     1      -8.692  10.238  68.613  1.00  0.00    -0.133 A  
HETATM   22  C   UNL     1      -9.867  11.264  66.756  1.00  0.00    -0.227 A  
HETATM   23  C   UNL     1      -9.223  12.471  67.021  1.00  0.00    -0.214 A  
HETATM   24  C   UNL     1      -8.029  11.456  68.844  1.00  0.00    -0.085 A  
HETATM   25  C   UNL     1      -9.624  10.145  67.556  1.00  0.00    -0.180 A  
HETATM   26  C   UNL     1     -10.091   7.842  68.170  1.00  0.00    -0.228 A  
HETATM   27  C   UNL     1      -9.171   7.936  69.219  1.00  0.00    -0.148 A  
HETATM   28  C   UNL     1     -10.858   6.581  68.021  1.00  0.00    -0.295 C  
HETATM   29  O   UNL     1     -11.126   5.859  68.965  1.00  0.00    -0.336 OA 
HETATM   30  C   UNL     1      -8.467   9.122  69.432  1.00  0.00    -0.130 A  
HETATM   31  O   UNL     1     -11.203   6.293  66.749  1.00  0.00    -0.310 OA 
ENDBRANCH   7  19
ENDBRANCH   2   3
TORSDOF 3
ENDMDL
MODEL       72
REMARK 921   NORMALIZED FREE ENERGY PREDICTED BY IDOCK:   -5.68 KCAL/MOL
REMARK 922        TOTAL FREE ENERGY PREDICTED BY IDOCK:   -7.47 KCAL/MOL
REMARK 923 INTER-LIGAND FREE ENERGY PREDICTED BY IDOCK:   -6.82 KCAL/MOL
REMARK 924 INTRA-LIGAND FREE ENERGY PREDICTED BY IDOCK:   -0.64 KCAL/MOL
REMARK 927      BINDING AFFINITY PREDICTED BY RF-SCORE:    0.00 PKD
ROOT
HETATM    1  C   UNL     1      -6.332   5.324  69.344  1.00  0.00    -0.034 C  
HETATM    2  O   UNL     1      -7.617   5.192  68.730  1.00  0.00    -0.076 OA 
ENDROOT
BRANCH   2   3
HETATM    3  C   UNL     1      -8.155   6.338  68.195  1.00  0.00    -0.115 A  
HETATM    4  C   UNL     1      -8.544   6.340  66.828  1.00  0.00    -0.116 A  
HETATM    5  C   UNL     1      -9.101   7.540  66.335  1.00  0.00    -0.210 A  
HETATM    6  C   UNL     1      -8.281   7.508  68.962  1.00  0.00    -0.128 A  
HETATM    7  C   UNL     1      -9.214   8.723  67.086  1.00  0.00    -0.167 A  
HETATM    8  C   UNL     1      -8.791   8.681  68.414  1.00  0.00    -0.142 A  
BRANCH   4   9
HETATM    9  C   UNL     1      -8.334   5.149  65.861  1.00  0.00    -0.118 C  
HETATM   10  C   UNL     1      -9.350   4.020  66.202  1.00  0.00    -0.174 C  
HETATM   11  C   UNL     1      -8.472   5.586  64.376  1.00  0.00    -0.080 C  
HETATM   12  C   UNL     1      -6.973   3.753  63.560  1.00  0.00    -0.045 C  
HETATM   13  C   UNL     1      -9.440   3.346  63.793  1.00  0.00    -0.128 C  
HETATM   14  C   UNL     1      -8.365   4.383  63.425  1.00  0.00    -0.104 C  
HETATM   15  C   UNL     1      -6.762   3.279  65.001  1.00  0.00    -0.041 C  
HETATM   16  C   UNL     1      -9.221   2.835  65.226  1.00  0.00    -0.130 C  
HETATM   17  C   UNL     1      -7.818   2.220  65.341  1.00  0.00    -0.077 C  
HETATM   18  C   UNL     1      -6.913   4.471  65.965  1.00  0.00    -0.066 C  
ENDBRANCH   4   9
BRANCH   7  19
HETATM   19  C   UNL     1      -9.704   9.969  66.465  1.00  0.00    -0.254 A  
HETATM   20  C   UNL     1     -10.899  13.572  64.583  1.00  0.00    -0.416 A  
HETATM   21  C   UNL     1     -10.186  12.372  66.578  1.00  0.00    -0.244 A  
HETATM   22  C   UNL     1     -10.497  11.175  64.493  1.00  0.00    -0.415 A  
HETATM   23  C   UNL     1     -10.072  10.000  65.108  1.00  0.00    -0.268 A  
HETATM   24  C   UNL     1      -9.790  11.169  67.189  1.00  0.00    -0.212 A  
HETATM   25  C   UNL     1     -10.541  12.372  65.211  1.00  0.00    -0.322 A  
HETATM   26  C   UNL     1     -10.908  14.770  65.306  1.00  0.00    -0.395 A  
HETATM   27  C   UNL     1     -10.553  14.771  66.658  1.00  0.00    -0.299 A  
HETATM   28  C   UNL     1     -11.211  16.071  64.659  1.00  0.00    -0.330 C  
HETATM   29  O   UNL     1     -10.712  17.120  65.027  1.00  0.00    -0.712 OA 
HETATM   30  C   UNL     1     -10.205  13.578  67.294  1.00  0.00    -0.242 A  
HETATM   31  O   UNL     1     -12.107  15.992  63.654  1.00  0.00    -0.768 OA 
ENDBRANCH   7  19
ENDBRANCH   2   3
TORSDOF 3
ENDMDL
MODEL       73
REMARK 921   NORMALIZED FREE ENERGY PREDICTED BY IDOCK:   -5.67 KCAL/MOL
REMARK 922        TOTAL FREE ENERGY PREDICTED BY IDOCK:   -7.45 KCAL/MOL
REMARK 923 INTER-LIGAND FREE ENERGY PREDICTED BY IDOCK:   -7.11 KCAL/MOL
REMARK 924 INTRA-LIGAND FREE ENERGY PREDICTED BY IDOCK:   -0.34 KCAL/MOL
REMARK 927      BINDING AFFINITY PREDICTED BY RF-SCORE:    0.00 PKD
ROOT
HETATM    1  C   UNL     1      -5.126  17.615  70.679  1.00  0.00    -0.263 C  
HETATM    2  O   UNL     1      -5.864  17.588  69.455  1.00  0.00    -0.209 OA 
ENDROOT
BRANCH   2   3
HETATM    3  C   UNL     1      -6.431  16.384  69.113  1.00  0.00    -0.187 A  
HETATM    4  C   UNL     1      -7.615  16.382  68.327  1.00  0.00    -0.163 A  
HETATM    5  C   UNL     1      -8.147  15.116  67.997  1.00  0.00    -0.138 A  
HETATM    6  C   UNL     1      -5.887  15.171  69.566  1.00  0.00    -0.106 A  
HETATM    7  C   UNL     1      -7.625  13.896  68.460  1.00  0.00    -0.134 A  
HETATM    8  C   UNL     1      -6.480  13.951  69.254  1.00  0.00    -0.115 A  
BRANCH   4   9
HETATM    9  C   UNL     1      -8.367  17.660  67.881  1.00  0.00    -0.235 C  
HETATM   10  C   UNL     1      -9.896  17.369  67.826  1.00  0.00    -0.283 C  
HETATM   11  C   UNL     1      -8.067  18.859  68.823  1.00  0.00    -0.354 C  
HETATM   12  C   UNL     1      -8.499  20.549  67.025  1.00  0.00    -0.313 C  
HETATM   13  C   UNL     1     -10.390  19.738  68.465  1.00  0.00    -0.472 C  
HETATM   14  C   UNL     1      -8.894  20.096  68.436  1.00  0.00    -0.042 C  
HETATM   15  C   UNL     1      -8.780  19.421  66.027  1.00  0.00    -0.179 C  
HETATM   16  C   UNL     1     -10.693  18.629  67.444  1.00  0.00    -0.456 C  
HETATM   17  C   UNL     1     -10.280  19.100  66.042  1.00  0.00    -0.494 C  
HETATM   18  C   UNL     1      -7.990  18.162  66.434  1.00  0.00    -0.297 C  
ENDBRANCH   4   9
BRANCH   7  19
HETATM   19  C   UNL     1      -8.303  12.621  68.162  1.00  0.00    -0.175 A  
HETATM   20  C   UNL     1     -10.433   9.029  67.444  1.00  0.00    -0.338 A  
HETATM   21  C   UNL     1      -8.648  10.229  68.585  1.00  0.00    -0.128 A  
HETATM   22  C   UNL     1     -10.039  11.381  66.968  1.00  0.00    -0.237 A  
HETATM   23  C   UNL     1      -9.357  12.567  67.233  1.00  0.00    -0.190 A  
HETATM   24  C   UNL     1      -7.951  11.428  68.814  1.00  0.00    -0.122 A  
HETATM   25  C   UNL     1      -9.707  10.209  67.651  1.00  0.00    -0.187 A  
HETATM   26  C   UNL     1     -10.112   7.869  68.158  1.00  0.00    -0.228 A  
HETATM   27  C   UNL     1      -9.066   7.889  69.085  1.00  0.00    -0.145 A  
HETATM   28  C   UNL     1     -10.903   6.621  68.020  1.00  0.00    -0.271 C  
HETATM   29  O   UNL     1     -11.056   5.835  68.938  1.00  0.00    -0.265 OA 
HETATM   30  C   UNL     1      -8.331   9.058  69.290  1.00  0.00    -0.122 A  
HETATM   31  O   UNL     1     -11.408   6.422  66.785  1.00  0.00    -0.257 OA 
ENDBRANCH   7  19
ENDBRANCH   2   3
TORSDOF 3
ENDMDL
MODEL       74
REMARK 921   NORMALIZED FREE ENERGY PREDICTED BY IDOCK:   -5.51 KCAL/MOL
REMARK 922        TOTAL FREE ENERGY PREDICTED BY IDOCK:   -7.27 KCAL/MOL
REMARK 923 INTER-LIGAND FREE ENERGY PREDICTED BY IDOCK:   -6.82 KCAL/MOL
REMARK 924 INTRA-LIGAND FREE ENERGY PREDICTED BY IDOCK:   -0.44 KCAL/MOL
REMARK 927      BINDING AFFINITY PREDICTED BY RF-SCORE:    0.00 PKD
ROOT
HETATM    1  C   UNL     1      -5.125  17.521  66.109  1.00  0.00    -0.173 C  
HETATM    2  O   UNL     1      -5.433  17.201  67.468  1.00  0.00    -0.116 OA 
ENDROOT
BRANCH   2   3
HETATM    3  C   UNL     1      -6.136  16.039  67.676  1.00  0.00    -0.156 A  
HETATM    4  C   UNL     1      -7.554  16.098  67.747  1.00  0.00    -0.154 A  
HETATM    5  C   UNL     1      -8.224  14.872  67.950  1.00  0.00    -0.148 A  
HETATM    6  C   UNL     1      -5.474  14.815  67.863  1.00  0.00    -0.106 A  
HETATM    7  C   UNL     1      -7.574  13.643  68.159  1.00  0.00    -0.137 A  
HETATM    8  C   UNL     1      -6.180  13.641  68.112  1.00  0.00    -0.117 A  
BRANCH   4   9
HETATM    9  C   UNL     1      -8.376  17.409  67.679  1.00  0.00    -0.214 C  
HETATM   10  C   UNL     1      -8.366  17.952  66.220  1.00  0.00    -0.230 C  
HETATM   11  C   UNL     1      -9.832  17.198  68.180  1.00  0.00    -0.281 C  
HETATM   12  C   UNL     1     -10.076  19.589  68.884  1.00  0.00    -0.486 C  
HETATM   13  C   UNL     1     -10.658  18.907  66.539  1.00  0.00    -0.462 C  
HETATM   14  C   UNL     1     -10.672  18.475  68.015  1.00  0.00    -0.271 C  
HETATM   15  C   UNL     1      -8.636  19.870  68.442  1.00  0.00    -0.219 C  
HETATM   16  C   UNL     1      -9.223  19.225  66.089  1.00  0.00    -0.287 C  
HETATM   17  C   UNL     1      -8.642  20.333  66.980  1.00  0.00    -0.398 C  
HETATM   18  C   UNL     1      -7.798  18.583  68.560  1.00  0.00    -0.341 C  
ENDBRANCH   4   9
BRANCH   7  19
HETATM   19  C   UNL     1      -8.343  12.425  68.477  1.00  0.00    -0.081 A  
HETATM   20  C   UNL     1     -10.629   9.034  69.585  1.00  0.00    -0.230 A  
HETATM   21  C   UNL     1      -8.477  10.162  69.413  1.00  0.00    -0.179 A  
HETATM   22  C   UNL     1     -10.482  11.246  68.585  1.00  0.00    -0.226 A  
HETATM   23  C   UNL     1      -9.730  12.372  68.253  1.00  0.00    -0.218 A  
HETATM   24  C   UNL     1      -7.732  11.294  69.042  1.00  0.00    -0.095 A  
HETATM   25  C   UNL     1      -9.871  10.142  69.183  1.00  0.00    -0.225 A  
HETATM   26  C   UNL     1     -10.011   7.947  70.213  1.00  0.00    -0.189 A  
HETATM   27  C   UNL     1      -8.632   7.968  70.444  1.00  0.00    -0.131 A  
HETATM   28  C   UNL     1     -10.789   6.789  70.717  1.00  0.00    -0.249 C  
HETATM   29  O   UNL     1     -10.454   6.149  71.699  1.00  0.00    -0.211 OA 
HETATM   30  C   UNL     1      -7.868   9.063  70.037  1.00  0.00    -0.088 A  
HETATM   31  O   UNL     1     -11.878   6.492  69.977  1.00  0.00    -0.404 OA 
ENDBRANCH   7  19
ENDBRANCH   2   3
TORSDOF 3
ENDMDL
MODEL       75
REMARK 921   NORMALIZED FREE ENERGY PREDICTED BY IDOCK:   -5.51 KCAL/MOL
REMARK 922        TOTAL FREE ENERGY PREDICTED BY IDOCK:   -7.26 KCAL/MOL
REMARK 923 INTER-LIGAND FREE ENERGY PREDICTED BY IDOCK:   -6.51 KCAL/MOL
REMARK 924 INTRA-LIGAND FREE ENERGY PREDICTED BY IDOCK:   -0.76 KCAL/MOL
REMARK 927      BINDING AFFINITY PREDICTED BY RF-SCORE:    0.00 PKD
ROOT
HETATM    1  C   UNL     1      -5.308  14.823  67.833  1.00  0.00    -0.082 C  
HETATM    2  O   UNL     1      -6.529  14.235  67.375  1.00  0.00    -0.307 OA 
ENDROOT
BRANCH   2   3
HETATM    3  C   UNL     1      -6.871  13.029  67.938  1.00  0.00    -0.130 A  
HETATM    4  C   UNL     1      -8.246  12.723  68.122  1.00  0.00    -0.167 A  
HETATM    5  C   UNL     1      -8.539  11.466  68.695  1.00  0.00    -0.126 A  
HETATM    6  C   UNL     1      -5.887  12.125  68.371  1.00  0.00    -0.053 A  
HETATM    7  C   UNL     1      -7.565  10.561  69.151  1.00  0.00    -0.123 A  
HETATM    8  C   UNL     1      -6.229  10.919  68.977  1.00  0.00    -0.043 A  
BRANCH   4   9
HETATM    9  C   UNL     1      -9.406  13.697  67.797  1.00  0.00    -0.218 C  
HETATM   10  C   UNL     1     -10.763  13.028  68.167  1.00  0.00    -0.258 C  
HETATM   11  C   UNL     1      -9.240  15.053  68.538  1.00  0.00    -0.192 C  
HETATM   12  C   UNL     1     -10.531  16.311  66.799  1.00  0.00    -0.287 C  
HETATM   13  C   UNL     1     -11.732  15.263  68.740  1.00  0.00    -0.374 C  
HETATM   14  C   UNL     1     -10.444  15.977  68.294  1.00  0.00    -0.269 C  
HETATM   15  C   UNL     1     -10.712  15.020  65.995  1.00  0.00    -0.329 C  
HETATM   16  C   UNL     1     -11.945  13.982  67.918  1.00  0.00    -0.387 C  
HETATM   17  C   UNL     1     -12.017  14.339  66.426  1.00  0.00    -0.438 C  
HETATM   18  C   UNL     1      -9.532  14.069  66.270  1.00  0.00    -0.249 C  
ENDBRANCH   4   9
BRANCH   7  19
HETATM   19  C   UNL     1      -7.952   9.316  69.840  1.00  0.00    -0.113 A  
HETATM   20  C   UNL     1      -9.203   5.687  71.636  1.00  0.00    -0.157 A  
HETATM   21  C   UNL     1      -9.323   8.115  71.482  1.00  0.00    -0.210 A  
HETATM   22  C   UNL     1      -7.788   6.887  70.063  1.00  0.00    -0.110 A  
HETATM   23  C   UNL     1      -7.404   8.080  69.453  1.00  0.00    -0.080 A  
HETATM   24  C   UNL     1      -8.899   9.311  70.877  1.00  0.00    -0.252 A  
HETATM   25  C   UNL     1      -8.760   6.889  71.066  1.00  0.00    -0.136 A  
HETATM   26  C   UNL     1     -10.201   5.699  72.616  1.00  0.00    -0.216 A  
HETATM   27  C   UNL     1     -10.761   6.912  73.026  1.00  0.00    -0.328 A  
HETATM   28  C   UNL     1     -10.747   4.444  73.191  1.00  0.00    -0.220 C  
HETATM   29  O   UNL     1     -11.902   4.341  73.565  1.00  0.00    -0.144 OA 
HETATM   30  C   UNL     1     -10.318   8.114  72.471  1.00  0.00    -0.401 A  
HETATM   31  O   UNL     1      -9.847   3.445  73.289  1.00  0.00    -0.108 OA 
ENDBRANCH   7  19
ENDBRANCH   2   3
TORSDOF 3
ENDMDL
MODEL       76
REMARK 921   NORMALIZED FREE ENERGY PREDICTED BY IDOCK:   -5.46 KCAL/MOL
REMARK 922        TOTAL FREE ENERGY PREDICTED BY IDOCK:   -7.21 KCAL/MOL
REMARK 923 INTER-LIGAND FREE ENERGY PREDICTED BY IDOCK:   -6.43 KCAL/MOL
REMARK 924 INTRA-LIGAND FREE ENERGY PREDICTED BY IDOCK:   -0.78 KCAL/MOL
REMARK 927      BINDING AFFINITY PREDICTED BY RF-SCORE:    0.00 PKD
ROOT
HETATM    1  C   UNL     1      -5.873   6.207  70.715  1.00  0.00    -0.019 C  
HETATM    2  O   UNL     1      -7.210   6.157  70.212  1.00  0.00    -0.078 OA 
ENDROOT
BRANCH   2   3
HETATM    3  C   UNL     1      -7.690   7.311  69.642  1.00  0.00    -0.105 A  
HETATM    4  C   UNL     1      -8.212   7.259  68.322  1.00  0.00    -0.125 A  
HETATM    5  C   UNL     1      -8.701   8.474  67.791  1.00  0.00    -0.137 A  
HETATM    6  C   UNL     1      -7.627   8.538  70.324  1.00  0.00    -0.075 A  
HETATM    7  C   UNL     1      -8.626   9.711  68.454  1.00  0.00    -0.119 A  
HETATM    8  C   UNL     1      -8.076   9.717  69.736  1.00  0.00    -0.160 A  
BRANCH   4   9
HETATM    9  C   UNL     1      -8.214   5.990  67.435  1.00  0.00    -0.106 C  
HETATM   10  C   UNL     1      -8.813   6.334  66.040  1.00  0.00    -0.159 C  
HETATM   11  C   UNL     1      -6.788   5.390  67.290  1.00  0.00    -0.060 C  
HETATM   12  C   UNL     1      -7.658   3.074  66.902  1.00  0.00    -0.075 C  
HETATM   13  C   UNL     1      -7.328   4.632  64.960  1.00  0.00    -0.072 C  
HETATM   14  C   UNL     1      -6.779   4.192  66.328  1.00  0.00    -0.053 C  
HETATM   15  C   UNL     1      -9.094   3.583  67.062  1.00  0.00    -0.188 C  
HETATM   16  C   UNL     1      -8.781   5.114  65.100  1.00  0.00    -0.151 C  
HETATM   17  C   UNL     1      -9.640   3.984  65.686  1.00  0.00    -0.190 C  
HETATM   18  C   UNL     1      -9.107   4.813  67.989  1.00  0.00    -0.137 C  
ENDBRANCH   4   9
BRANCH   7  19
HETATM   19  C   UNL     1      -9.056  10.954  67.788  1.00  0.00    -0.149 A  
HETATM   20  C   UNL     1     -10.468  14.542  66.030  1.00  0.00    -0.315 A  
HETATM   21  C   UNL     1     -10.261  12.115  65.994  1.00  0.00    -0.265 A  
HETATM   22  C   UNL     1      -9.207  13.394  67.765  1.00  0.00    -0.211 A  
HETATM   23  C   UNL     1      -8.774  12.209  68.356  1.00  0.00    -0.141 A  
HETATM   24  C   UNL     1      -9.787  10.933  66.589  1.00  0.00    -0.237 A  
HETATM   25  C   UNL     1      -9.968  13.360  66.594  1.00  0.00    -0.277 A  
HETATM   26  C   UNL     1     -11.256  14.493  64.875  1.00  0.00    -0.395 A  
HETATM   27  C   UNL     1     -11.550  13.260  64.283  1.00  0.00    -0.444 A  
HETATM   28  C   UNL     1     -11.863  15.714  64.290  1.00  0.00    -0.146 C  
HETATM   29  O   UNL     1     -12.932  15.701  63.705  1.00  0.00    -0.403 OA 
HETATM   30  C   UNL     1     -11.046  12.080  64.832  1.00  0.00    -0.368 A  
HETATM   31  O   UNL     1     -11.115  16.827  64.437  1.00  0.00    -1.072 OA 
ENDBRANCH   7  19
ENDBRANCH   2   3
TORSDOF 3
ENDMDL
MODEL       77
REMARK 921   NORMALIZED FREE ENERGY PREDICTED BY IDOCK:   -5.45 KCAL/MOL
REMARK 922        TOTAL FREE ENERGY PREDICTED BY IDOCK:   -7.20 KCAL/MOL
REMARK 923 INTER-LIGAND FREE ENERGY PREDICTED BY IDOCK:   -6.51 KCAL/MOL
REMARK 924 INTRA-LIGAND FREE ENERGY PREDICTED BY IDOCK:   -0.69 KCAL/MOL
REMARK 927      BINDING AFFINITY PREDICTED BY RF-SCORE:    0.00 PKD
ROOT
HETATM    1  C   UNL     1      -5.920  14.917  67.948  1.00  0.00    -0.146 C  
HETATM    2  O   UNL     1      -6.831  14.006  67.328  1.00  0.00    -0.214 OA 
ENDROOT
BRANCH   2   3
HETATM    3  C   UNL     1      -7.147  12.878  68.046  1.00  0.00    -0.111 A  
HETATM    4  C   UNL     1      -8.456  12.338  67.936  1.00  0.00    -0.165 A  
HETATM    5  C   UNL     1      -8.720  11.173  68.688  1.00  0.00    -0.153 A  
HETATM    6  C   UNL     1      -6.214  12.286  68.914  1.00  0.00    -0.078 A  
HETATM    7  C   UNL     1      -7.804  10.582  69.576  1.00  0.00    -0.134 A  
HETATM    8  C   UNL     1      -6.541  11.166  69.673  1.00  0.00    -0.139 A  
BRANCH   4   9
HETATM    9  C   UNL     1      -9.597  12.981  67.109  1.00  0.00    -0.230 C  
HETATM   10  C   UNL     1     -10.953  12.321  67.496  1.00  0.00    -0.298 C  
HETATM   11  C   UNL     1      -9.654  14.520  67.312  1.00  0.00    -0.226 C  
HETATM   12  C   UNL     1     -10.684  14.911  65.063  1.00  0.00    -0.451 C  
HETATM   13  C   UNL     1     -12.149  14.475  67.054  1.00  0.00    -0.303 C  
HETATM   14  C   UNL     1     -10.850  15.140  66.570  1.00  0.00    -0.317 C  
HETATM   15  C   UNL     1     -10.633  13.407  64.774  1.00  0.00    -0.420 C  
HETATM   16  C   UNL     1     -12.128  12.970  66.741  1.00  0.00    -0.366 C  
HETATM   17  C   UNL     1     -11.949  12.765  65.230  1.00  0.00    -0.473 C  
HETATM   18  C   UNL     1      -9.465  12.771  65.551  1.00  0.00     0.098 C  
ENDBRANCH   4   9
BRANCH   7  19
HETATM   19  C   UNL     1      -8.194   9.430  70.410  1.00  0.00    -0.214 A  
HETATM   20  C   UNL     1      -9.278   5.981  72.620  1.00  0.00    -0.143 A  
HETATM   21  C   UNL     1      -9.914   8.006  71.426  1.00  0.00    -0.221 A  
HETATM   22  C   UNL     1      -7.571   7.437  71.681  1.00  0.00    -0.085 A  
HETATM   23  C   UNL     1      -7.222   8.554  70.925  1.00  0.00    -0.065 A  
HETATM   24  C   UNL     1      -9.539   9.145  70.693  1.00  0.00    -0.312 A  
HETATM   25  C   UNL     1      -8.914   7.141  71.922  1.00  0.00    -0.135 A  
HETATM   26  C   UNL     1     -10.628   5.678  72.828  1.00  0.00    -0.266 A  
HETATM   27  C   UNL     1     -11.618   6.532  72.333  1.00  0.00    -0.292 A  
HETATM   28  C   UNL     1     -11.054   4.425  73.499  1.00  0.00    -0.303 C  
HETATM   29  O   UNL     1     -12.093   3.851  73.221  1.00  0.00     0.110 OA 
HETATM   30  C   UNL     1     -11.264   7.694  71.646  1.00  0.00    -0.282 A  
HETATM   31  O   UNL     1     -10.208   3.998  74.458  1.00  0.00    -0.173 OA 
ENDBRANCH   7  19
ENDBRANCH   2   3
TORSDOF 3
ENDMDL
MODEL       78
REMARK 921   NORMALIZED FREE ENERGY PREDICTED BY IDOCK:   -5.42 KCAL/MOL
REMARK 922        TOTAL FREE ENERGY PREDICTED BY IDOCK:   -7.16 KCAL/MOL
REMARK 923 INTER-LIGAND FREE ENERGY PREDICTED BY IDOCK:   -6.47 KCAL/MOL
REMARK 924 INTRA-LIGAND FREE ENERGY PREDICTED BY IDOCK:   -0.70 KCAL/MOL
REMARK 927      BINDING AFFINITY PREDICTED BY RF-SCORE:    0.00 PKD
ROOT
HETATM    1  C   UNL     1     -13.512  11.605  72.067  1.00  0.00    -0.199 C  
HETATM    2  O   UNL     1     -12.970  11.197  70.808  1.00  0.00    -0.262 OA 
ENDROOT
BRANCH   2   3
HETATM    3  C   UNL     1     -12.293  12.159  70.097  1.00  0.00    -0.145 A  
HETATM    4  C   UNL     1     -11.135  11.784  69.364  1.00  0.00    -0.245 A  
HETATM    5  C   UNL     1     -10.487  12.811  68.645  1.00  0.00    -0.230 A  
HETATM    6  C   UNL     1     -12.701  13.503  70.126  1.00  0.00    -0.066 A  
HETATM    7  C   UNL     1     -10.872  14.162  68.680  1.00  0.00    -0.268 A  
HETATM    8  C   UNL     1     -11.996  14.487  69.438  1.00  0.00    -0.362 A  
BRANCH   4   9
HETATM    9  C   UNL     1     -10.527  10.359  69.366  1.00  0.00    -0.261 C  
HETATM   10  C   UNL     1     -11.463   9.396  68.577  1.00  0.00     0.456 C  
HETATM   11  C   UNL     1      -9.093  10.349  68.767  1.00  0.00    -0.165 C  
HETATM   12  C   UNL     1      -8.415   8.331  70.088  1.00  0.00    -0.126 C  
HETATM   13  C   UNL     1      -9.486   8.053  67.833  1.00  0.00    -0.161 C  
HETATM   14  C   UNL     1      -8.534   8.919  68.676  1.00  0.00    -0.128 C  
HETATM   15  C   UNL     1      -9.798   8.293  70.746  1.00  0.00    -0.205 C  
HETATM   16  C   UNL     1     -10.869   7.977  68.499  1.00  0.00     0.042 C  
HETATM   17  C   UNL     1     -10.724   7.397  69.914  1.00  0.00    -0.254 C  
HETATM   18  C   UNL     1     -10.385   9.716  70.799  1.00  0.00    -0.356 C  
ENDBRANCH   4   9
BRANCH   7  19
HETATM   19  C   UNL     1     -10.075  15.194  67.990  1.00  0.00    -0.222 A  
HETATM   20  C   UNL     1      -7.596  18.075  66.116  1.00  0.00    -0.285 A  
HETATM   21  C   UNL     1      -9.242  17.495  67.815  1.00  0.00    -0.253 A  
HETATM   22  C   UNL     1      -8.482  15.814  66.242  1.00  0.00    -0.245 A  
HETATM   23  C   UNL     1      -9.274  14.863  66.882  1.00  0.00    -0.265 A  
HETATM   24  C   UNL     1     -10.059  16.529  68.427  1.00  0.00    -0.255 A  
HETATM   25  C   UNL     1      -8.443  17.129  66.709  1.00  0.00    -0.264 A  
HETATM   26  C   UNL     1      -7.540  19.381  66.614  1.00  0.00    -0.266 A  
HETATM   27  C   UNL     1      -8.329  19.743  67.711  1.00  0.00    -0.344 A  
HETATM   28  C   UNL     1      -6.605  20.391  66.060  1.00  0.00    -0.223 C  
HETATM   29  O   UNL     1      -6.111  21.273  66.741  1.00  0.00    -0.280 OA 
HETATM   30  C   UNL     1      -9.183  18.810  68.300  1.00  0.00    -0.366 A  
HETATM   31  O   UNL     1      -6.375  20.263  64.737  1.00  0.00    -0.261 OA 
ENDBRANCH   7  19
ENDBRANCH   2   3
TORSDOF 3
ENDMDL
MODEL       79
REMARK 921   NORMALIZED FREE ENERGY PREDICTED BY IDOCK:   -5.42 KCAL/MOL
REMARK 922        TOTAL FREE ENERGY PREDICTED BY IDOCK:   -7.15 KCAL/MOL
REMARK 923 INTER-LIGAND FREE ENERGY PREDICTED BY IDOCK:   -6.77 KCAL/MOL
REMARK 924 INTRA-LIGAND FREE ENERGY PREDICTED BY IDOCK:   -0.39 KCAL/MOL
REMARK 927      BINDING AFFINITY PREDICTED BY RF-SCORE:    0.00 PKD
ROOT
HETATM    1  C   UNL     1     -12.690  14.169  71.590  1.00  0.00    -0.349 C  
HETATM    2  O   UNL     1     -12.532  13.674  70.258  1.00  0.00    -0.316 OA 
ENDROOT
BRANCH   2   3
HETATM    3  C   UNL     1     -12.010  12.409  70.137  1.00  0.00    -0.298 A  
HETATM    4  C   UNL     1     -11.108  12.138  69.073  1.00  0.00    -0.290 A  
HETATM    5  C   UNL     1     -10.594  10.824  69.005  1.00  0.00    -0.250 A  
HETATM    6  C   UNL     1     -12.390  11.380  71.015  1.00  0.00    -0.448 A  
HETATM    7  C   UNL     1     -10.980   9.780  69.863  1.00  0.00    -0.299 A  
HETATM    8  C   UNL     1     -11.892  10.087  70.873  1.00  0.00    -0.459 A  
BRANCH   4   9
HETATM    9  C   UNL     1     -10.719  13.161  67.978  1.00  0.00    -0.248 C  
HETATM   10  C   UNL     1     -11.714  13.047  66.786  1.00  0.00    -0.440 C  
HETATM   11  C   UNL     1     -10.690  14.612  68.535  1.00  0.00    -0.248 C  
HETATM   12  C   UNL     1      -9.012  15.371  66.838  1.00  0.00    -0.273 C  
HETATM   13  C   UNL     1     -11.466  15.493  66.318  1.00  0.00     0.099 C  
HETATM   14  C   UNL     1     -10.405  15.634  67.423  1.00  0.00    -0.275 C  
HETATM   15  C   UNL     1      -8.962  13.956  66.250  1.00  0.00     0.081 C  
HETATM   16  C   UNL     1     -11.405  14.089  65.695  1.00  0.00    -0.313 C  
HETATM   17  C   UNL     1     -10.000  13.843  65.127  1.00  0.00    -0.249 C  
HETATM   18  C   UNL     1      -9.292  12.928  67.349  1.00  0.00    -0.194 C  
ENDBRANCH   4   9
BRANCH   7  19
HETATM   19  C   UNL     1     -10.483   8.407  69.657  1.00  0.00    -0.221 A  
HETATM   20  C   UNL     1      -8.854   4.555  68.981  1.00  0.00    -0.123 A  
HETATM   21  C   UNL     1     -10.351   6.356  68.317  1.00  0.00    -0.228 A  
HETATM   22  C   UNL     1      -9.045   6.556  70.350  1.00  0.00    -0.156 A  
HETATM   23  C   UNL     1      -9.559   7.836  70.550  1.00  0.00    -0.167 A  
HETATM   24  C   UNL     1     -10.883   7.636  68.553  1.00  0.00    -0.007 A  
HETATM   25  C   UNL     1      -9.419   5.813  69.228  1.00  0.00    -0.159 A  
HETATM   26  C   UNL     1      -9.211   3.834  67.837  1.00  0.00    -0.218 A  
HETATM   27  C   UNL     1     -10.131   4.373  66.933  1.00  0.00    -0.159 A  
HETATM   28  C   UNL     1      -8.582   2.532  67.504  1.00  0.00    -0.103 C  
HETATM   29  O   UNL     1      -8.406   2.160  66.357  1.00  0.00    -0.085 OA 
HETATM   30  C   UNL     1     -10.707   5.621  67.177  1.00  0.00    -0.316 A  
HETATM   31  O   UNL     1      -8.251   1.788  68.580  1.00  0.00    -0.054 OA 
ENDBRANCH   7  19
ENDBRANCH   2   3
TORSDOF 3
ENDMDL
MODEL       80
REMARK 921   NORMALIZED FREE ENERGY PREDICTED BY IDOCK:   -5.39 KCAL/MOL
REMARK 922        TOTAL FREE ENERGY PREDICTED BY IDOCK:   -7.13 KCAL/MOL
REMARK 923 INTER-LIGAND FREE ENERGY PREDICTED BY IDOCK:   -6.77 KCAL/MOL
REMARK 924 INTRA-LIGAND FREE ENERGY PREDICTED BY IDOCK:   -0.36 KCAL/MOL
REMARK 927      BINDING AFFINITY PREDICTED BY RF-SCORE:    0.00 PKD
ROOT
HETATM    1  C   UNL     1     -11.010   5.667  69.119  1.00  0.00    -0.118 C  
HETATM    2  O   UNL     1      -9.822   6.270  68.599  1.00  0.00    -0.131 OA 
ENDROOT
BRANCH   2   3
HETATM    3  C   UNL     1      -9.872   7.627  68.388  1.00  0.00    -0.166 A  
HETATM    4  C   UNL     1      -9.313   8.495  69.364  1.00  0.00    -0.154 A  
HETATM    5  C   UNL     1      -9.382   9.878  69.088  1.00  0.00    -0.197 A  
HETATM    6  C   UNL     1     -10.504   8.161  67.253  1.00  0.00    -0.379 A  
HETATM    7  C   UNL     1     -10.029  10.427  67.967  1.00  0.00    -0.178 A  
HETATM    8  C   UNL     1     -10.590   9.536  67.053  1.00  0.00    -0.271 A  
BRANCH   4   9
HETATM    9  C   UNL     1      -8.706   8.019  70.707  1.00  0.00    -0.139 C  
HETATM   10  C   UNL     1      -9.828   7.944  71.784  1.00  0.00    -0.223 C  
HETATM   11  C   UNL     1      -7.991   6.647  70.558  1.00  0.00    -0.111 C  
HETATM   12  C   UNL     1      -6.430   7.105  72.463  1.00  0.00    -0.052 C  
HETATM   13  C   UNL     1      -8.658   6.031  72.897  1.00  0.00    -0.123 C  
HETATM   14  C   UNL     1      -7.480   6.131  71.913  1.00  0.00    -0.095 C  
HETATM   15  C   UNL     1      -7.064   8.488  72.654  1.00  0.00    -0.064 C  
HETATM   16  C   UNL     1      -9.283   7.416  73.125  1.00  0.00    -0.222 C  
HETATM   17  C   UNL     1      -8.213   8.377  73.663  1.00  0.00    -0.182 C  
HETATM   18  C   UNL     1      -7.620   8.992  71.309  1.00  0.00    -0.104 C  
ENDBRANCH   4   9
BRANCH   7  19
HETATM   19  C   UNL     1     -10.156  11.888  67.808  1.00  0.00    -0.200 A  
HETATM   20  C   UNL     1     -10.577  16.048  67.122  1.00  0.00    -0.305 A  
HETATM   21  C   UNL     1      -9.155  14.098  67.444  1.00  0.00    -0.199 A  
HETATM   22  C   UNL     1     -11.566  13.870  67.562  1.00  0.00    -0.392 A  
HETATM   23  C   UNL     1     -11.422  12.497  67.754  1.00  0.00    -0.378 A  
HETATM   24  C   UNL     1      -9.030  12.716  67.671  1.00  0.00    -0.186 A  
HETATM   25  C   UNL     1     -10.441  14.678  67.387  1.00  0.00    -0.255 A  
HETATM   26  C   UNL     1      -9.444  16.842  66.916  1.00  0.00    -0.261 A  
HETATM   27  C   UNL     1      -8.171  16.267  66.969  1.00  0.00    -0.238 A  
HETATM   28  C   UNL     1      -9.549  18.280  66.563  1.00  0.00    -0.320 C  
HETATM   29  O   UNL     1      -8.734  18.844  65.854  1.00  0.00    -0.464 OA 
HETATM   30  C   UNL     1      -8.026  14.906  67.242  1.00  0.00    -0.237 A  
HETATM   31  O   UNL     1     -10.607  18.908  67.117  1.00  0.00    -0.422 OA 
ENDBRANCH   7  19
ENDBRANCH   2   3
TORSDOF 3
ENDMDL
MODEL       81
REMARK 921   NORMALIZED FREE ENERGY PREDICTED BY IDOCK:   -5.38 KCAL/MOL
REMARK 922        TOTAL FREE ENERGY PREDICTED BY IDOCK:   -7.11 KCAL/MOL
REMARK 923 INTER-LIGAND FREE ENERGY PREDICTED BY IDOCK:   -6.39 KCAL/MOL
REMARK 924 INTRA-LIGAND FREE ENERGY PREDICTED BY IDOCK:   -0.72 KCAL/MOL
REMARK 927      BINDING AFFINITY PREDICTED BY RF-SCORE:    0.00 PKD
ROOT
HETATM    1  C   UNL     1      -5.676  15.053  67.850  1.00  0.00    -0.130 C  
HETATM    2  O   UNL     1      -6.601  14.202  67.167  1.00  0.00    -0.183 OA 
ENDROOT
BRANCH   2   3
HETATM    3  C   UNL     1      -6.929  13.028  67.801  1.00  0.00    -0.143 A  
HETATM    4  C   UNL     1      -8.300  12.722  68.015  1.00  0.00    -0.173 A  
HETATM    5  C   UNL     1      -8.577  11.498  68.661  1.00  0.00    -0.109 A  
HETATM    6  C   UNL     1      -5.933  12.158  68.276  1.00  0.00    -0.052 A  
HETATM    7  C   UNL     1      -7.592  10.628  69.159  1.00  0.00    -0.131 A  
HETATM    8  C   UNL     1      -6.260  10.985  68.953  1.00  0.00    -0.042 A  
BRANCH   4   9
HETATM    9  C   UNL     1      -9.470  13.666  67.645  1.00  0.00    -0.221 C  
HETATM   10  C   UNL     1      -9.277  15.035  68.361  1.00  0.00    -0.193 C  
HETATM   11  C   UNL     1      -9.586  13.859  66.107  1.00  0.00    -0.249 C  
HETATM   12  C   UNL     1     -12.041  14.341  66.220  1.00  0.00    -0.433 C  
HETATM   13  C   UNL     1     -10.384  16.213  66.449  1.00  0.00    -0.321 C  
HETATM   14  C   UNL     1     -10.683  14.876  65.751  1.00  0.00    -0.338 C  
HETATM   15  C   UNL     1     -12.015  14.136  67.739  1.00  0.00    -0.389 C  
HETATM   16  C   UNL     1     -10.387  16.031  67.976  1.00  0.00    -0.266 C  
HETATM   17  C   UNL     1     -11.751  15.484  68.421  1.00  0.00    -0.323 C  
HETATM   18  C   UNL     1     -10.888  13.154  68.108  1.00  0.00    -0.271 C  
ENDBRANCH   4   9
BRANCH   7  19
HETATM   19  C   UNL     1      -7.963   9.421  69.922  1.00  0.00    -0.132 A  
HETATM   20  C   UNL     1      -9.119   5.865  71.914  1.00  0.00    -0.142 A  
HETATM   21  C   UNL     1      -9.491   8.220  71.419  1.00  0.00    -0.227 A  
HETATM   22  C   UNL     1      -7.562   7.079  70.494  1.00  0.00    -0.090 A  
HETATM   23  C   UNL     1      -7.205   8.241  69.814  1.00  0.00    -0.060 A  
HETATM   24  C   UNL     1      -9.096   9.392  70.751  1.00  0.00    -0.268 A  
HETATM   25  C   UNL     1      -8.713   7.049  71.284  1.00  0.00    -0.130 A  
HETATM   26  C   UNL     1     -10.292   5.839  72.677  1.00  0.00    -0.229 A  
HETATM   27  C   UNL     1     -11.064   6.997  72.807  1.00  0.00    -0.320 A  
HETATM   28  C   UNL     1     -10.793   4.588  73.299  1.00  0.00    -0.269 C  
HETATM   29  O   UNL     1     -11.979   4.362  73.458  1.00  0.00    -0.088 OA 
HETATM   30  C   UNL     1     -10.661   8.183  72.192  1.00  0.00    -0.358 A  
HETATM   31  O   UNL     1      -9.820   3.743  73.699  1.00  0.00    -0.108 OA 
ENDBRANCH   7  19
ENDBRANCH   2   3
TORSDOF 3
ENDMDL
MODEL       82
REMARK 921   NORMALIZED FREE ENERGY PREDICTED BY IDOCK:   -5.32 KCAL/MOL
REMARK 922        TOTAL FREE ENERGY PREDICTED BY IDOCK:   -7.04 KCAL/MOL
REMARK 923 INTER-LIGAND FREE ENERGY PREDICTED BY IDOCK:   -6.35 KCAL/MOL
REMARK 924 INTRA-LIGAND FREE ENERGY PREDICTED BY IDOCK:   -0.69 KCAL/MOL
REMARK 927      BINDING AFFINITY PREDICTED BY RF-SCORE:    0.00 PKD
ROOT
HETATM    1  C   UNL     1      -5.465   5.123  69.976  1.00  0.00    -0.011 C  
HETATM    2  O   UNL     1      -6.814   5.140  69.503  1.00  0.00    -0.050 OA 
ENDROOT
BRANCH   2   3
HETATM    3  C   UNL     1      -7.251   6.319  68.950  1.00  0.00    -0.084 A  
HETATM    4  C   UNL     1      -8.223   7.086  69.647  1.00  0.00    -0.131 A  
HETATM    5  C   UNL     1      -8.627   8.294  69.037  1.00  0.00    -0.135 A  
HETATM    6  C   UNL     1      -6.787   6.748  67.696  1.00  0.00    -0.080 A  
HETATM    7  C   UNL     1      -8.186   8.725  67.774  1.00  0.00    -0.111 A  
HETATM    8  C   UNL     1      -7.255   7.923  67.114  1.00  0.00    -0.090 A  
BRANCH   4   9
HETATM    9  C   UNL     1      -8.893   6.645  70.973  1.00  0.00    -0.142 C  
HETATM   10  C   UNL     1      -9.865   7.761  71.457  1.00  0.00    -0.200 C  
HETATM   11  C   UNL     1      -9.642   5.293  70.814  1.00  0.00    -0.234 C  
HETATM   12  C   UNL     1      -9.376   4.711  73.235  1.00  0.00    -0.127 C  
HETATM   13  C   UNL     1     -11.368   6.038  72.475  1.00  0.00    -0.344 C  
HETATM   14  C   UNL     1     -10.389   4.911  72.102  1.00  0.00    -0.263 C  
HETATM   15  C   UNL     1      -8.602   6.013  73.467  1.00  0.00    -0.119 C  
HETATM   16  C   UNL     1     -10.602   7.343  72.743  1.00  0.00    -0.345 C  
HETATM   17  C   UNL     1      -9.587   7.117  73.872  1.00  0.00    -0.319 C  
HETATM   18  C   UNL     1      -7.887   6.427  72.167  1.00  0.00    -0.099 C  
ENDBRANCH   4   9
BRANCH   7  19
HETATM   19  C   UNL     1      -8.739   9.944  67.155  1.00  0.00    -0.136 A  
HETATM   20  C   UNL     1     -10.138  13.453  65.236  1.00  0.00    -0.266 A  
HETATM   21  C   UNL     1      -9.109  12.369  67.159  1.00  0.00    -0.199 A  
HETATM   22  C   UNL     1      -9.842  11.039  65.268  1.00  0.00    -0.309 A  
HETATM   23  C   UNL     1      -9.350   9.893  65.889  1.00  0.00    -0.245 A  
HETATM   24  C   UNL     1      -8.649  11.196  67.783  1.00  0.00    -0.131 A  
HETATM   25  C   UNL     1      -9.711  12.286  65.884  1.00  0.00    -0.247 A  
HETATM   26  C   UNL     1      -9.972  14.700  65.849  1.00  0.00    -0.352 A  
HETATM   27  C   UNL     1      -9.373  14.783  67.109  1.00  0.00    -0.233 A  
HETATM   28  C   UNL     1     -10.345  15.963  65.166  1.00  0.00    -0.252 C  
HETATM   29  O   UNL     1      -9.751  17.011  65.350  1.00  0.00    -0.467 OA 
HETATM   30  C   UNL     1      -8.954  13.624  67.765  1.00  0.00    -0.196 A  
HETATM   31  O   UNL     1     -11.414  15.854  64.350  1.00  0.00    -0.428 OA 
ENDBRANCH   7  19
ENDBRANCH   2   3
TORSDOF 3
ENDMDL
MODEL       83
REMARK 921   NORMALIZED FREE ENERGY PREDICTED BY IDOCK:   -5.30 KCAL/MOL
REMARK 922        TOTAL FREE ENERGY PREDICTED BY IDOCK:   -7.02 KCAL/MOL
REMARK 923 INTER-LIGAND FREE ENERGY PREDICTED BY IDOCK:   -6.47 KCAL/MOL
REMARK 924 INTRA-LIGAND FREE ENERGY PREDICTED BY IDOCK:   -0.55 KCAL/MOL
REMARK 927      BINDING AFFINITY PREDICTED BY RF-SCORE:    0.00 PKD
ROOT
HETATM    1  C   UNL     1      -9.577  15.775  67.571  1.00  0.00    -0.224 C  
HETATM    2  O   UNL     1     -10.791  15.106  67.926  1.00  0.00    -0.274 OA 
ENDROOT
BRANCH   2   3
HETATM    3  C   UNL     1     -10.730  13.736  68.003  1.00  0.00    -0.250 A  
HETATM    4  C   UNL     1     -11.312  13.085  69.125  1.00  0.00    -0.328 A  
HETATM    5  C   UNL     1     -11.229  11.676  69.146  1.00  0.00    -0.325 A  
HETATM    6  C   UNL     1     -10.066  12.982  67.021  1.00  0.00    -0.243 A  
HETATM    7  C   UNL     1     -10.550  10.911  68.181  1.00  0.00    -0.233 A  
HETATM    8  C   UNL     1      -9.969  11.597  67.115  1.00  0.00    -0.219 A  
BRANCH   4   9
HETATM    9  C   UNL     1     -11.956  13.825  70.323  1.00  0.00    -0.397 C  
HETATM   10  C   UNL     1     -12.862  14.976  69.795  1.00  0.00     0.050 C  
HETATM   11  C   UNL     1     -12.769  12.854  71.225  1.00  0.00    -0.371 C  
HETATM   12  C   UNL     1     -12.450  14.272  73.265  1.00  0.00    -0.135 C  
HETATM   13  C   UNL     1     -14.405  14.684  71.744  1.00  0.00    -0.638 C  
HETATM   14  C   UNL     1     -13.490  13.608  72.354  1.00  0.00    -0.685 C  
HETATM   15  C   UNL     1     -11.611  15.262  72.449  1.00  0.00    -0.515 C  
HETATM   16  C   UNL     1     -13.574  15.704  70.950  1.00  0.00    -0.089 C  
HETATM   17  C   UNL     1     -12.533  16.347  71.878  1.00  0.00     0.067 C  
HETATM   18  C   UNL     1     -10.922  14.522  71.288  1.00  0.00     0.675 C  
ENDBRANCH   4   9
BRANCH   7  19
HETATM   19  C   UNL     1     -10.413   9.451  68.333  1.00  0.00    -0.256 A  
HETATM   20  C   UNL     1     -10.245   5.246  68.828  1.00  0.00    -0.231 A  
HETATM   21  C   UNL     1      -9.772   7.486  69.656  1.00  0.00    -0.167 A  
HETATM   22  C   UNL     1     -10.808   7.193  67.483  1.00  0.00    -0.311 A  
HETATM   23  C   UNL     1     -10.890   8.576  67.340  1.00  0.00    -0.082 A  
HETATM   24  C   UNL     1      -9.836   8.879  69.479  1.00  0.00    -0.180 A  
HETATM   25  C   UNL     1     -10.268   6.635  68.644  1.00  0.00    -0.184 A  
HETATM   26  C   UNL     1      -9.732   4.699  70.009  1.00  0.00    -0.277 A  
HETATM   27  C   UNL     1      -9.245   5.542  71.013  1.00  0.00    -0.174 A  
HETATM   28  C   UNL     1      -9.757   3.239  70.271  1.00  0.00    -0.043 C  
HETATM   29  O   UNL     1      -9.873   2.774  71.391  1.00  0.00    -0.160 OA 
HETATM   30  C   UNL     1      -9.254   6.926  70.833  1.00  0.00    -0.157 A  
HETATM   31  O   UNL     1      -9.611   2.478  69.167  1.00  0.00    -0.117 OA 
ENDBRANCH   7  19
ENDBRANCH   2   3
TORSDOF 3
ENDMDL
MODEL       84
REMARK 921   NORMALIZED FREE ENERGY PREDICTED BY IDOCK:   -5.30 KCAL/MOL
REMARK 922        TOTAL FREE ENERGY PREDICTED BY IDOCK:   -7.02 KCAL/MOL
REMARK 923 INTER-LIGAND FREE ENERGY PREDICTED BY IDOCK:   -6.58 KCAL/MOL
REMARK 924 INTRA-LIGAND FREE ENERGY PREDICTED BY IDOCK:   -0.44 KCAL/MOL
REMARK 927      BINDING AFFINITY PREDICTED BY RF-SCORE:    0.00 PKD
ROOT
HETATM    1  C   UNL     1      -5.181  17.908  70.655  1.00  0.00    -0.279 C  
HETATM    2  O   UNL     1      -5.862  17.831  69.400  1.00  0.00    -0.206 OA 
ENDROOT
BRANCH   2   3
HETATM    3  C   UNL     1      -6.347  16.595  69.047  1.00  0.00    -0.183 A  
HETATM    4  C   UNL     1      -7.546  16.519  68.289  1.00  0.00    -0.170 A  
HETATM    5  C   UNL     1      -7.992  15.224  67.946  1.00  0.00    -0.145 A  
HETATM    6  C   UNL     1      -5.703  15.417  69.462  1.00  0.00    -0.106 A  
HETATM    7  C   UNL     1      -7.369  14.037  68.371  1.00  0.00    -0.113 A  
HETATM    8  C   UNL     1      -6.212  14.162  69.139  1.00  0.00    -0.101 A  
BRANCH   4   9
HETATM    9  C   UNL     1      -8.402  17.746  67.887  1.00  0.00    -0.241 C  
HETATM   10  C   UNL     1      -7.945  18.261  66.491  1.00  0.00    -0.294 C  
HETATM   11  C   UNL     1      -9.919  17.409  67.881  1.00  0.00    -0.301 C  
HETATM   12  C   UNL     1     -10.582  19.779  68.347  1.00  0.00    -0.247 C  
HETATM   13  C   UNL     1     -10.279  19.003  65.978  1.00  0.00    -0.462 C  
HETATM   14  C   UNL     1     -10.756  18.598  67.383  1.00  0.00    -0.456 C  
HETATM   15  C   UNL     1      -9.105  20.185  68.399  1.00  0.00    -0.092 C  
HETATM   16  C   UNL     1      -8.808  19.446  66.020  1.00  0.00    -0.173 C  
HETATM   17  C   UNL     1      -8.655  20.620  66.999  1.00  0.00    -0.269 C  
HETATM   18  C   UNL     1      -8.254  18.984  68.853  1.00  0.00    -0.303 C  
ENDBRANCH   4   9
BRANCH   7  19
HETATM   19  C   UNL     1      -7.960  12.721  68.064  1.00  0.00    -0.160 A  
HETATM   20  C   UNL     1      -9.869   9.037  67.203  1.00  0.00    -0.262 A  
HETATM   21  C   UNL     1      -8.674  10.480  68.760  1.00  0.00    -0.154 A  
HETATM   22  C   UNL     1      -9.090  11.229  66.491  1.00  0.00    -0.193 A  
HETATM   23  C   UNL     1      -8.491  12.451  66.790  1.00  0.00    -0.095 A  
HETATM   24  C   UNL     1      -8.045  11.707  69.031  1.00  0.00     0.078 A  
HETATM   25  C   UNL     1      -9.205  10.242  67.472  1.00  0.00    -0.153 A  
HETATM   26  C   UNL     1     -10.007   8.069  68.203  1.00  0.00    -0.217 A  
HETATM   27  C   UNL     1      -9.485   8.306  69.479  1.00  0.00    -0.162 A  
HETATM   28  C   UNL     1     -10.765   6.814  67.978  1.00  0.00    -0.241 C  
HETATM   29  O   UNL     1     -11.382   6.250  68.865  1.00  0.00    -0.373 OA 
HETATM   30  C   UNL     1      -8.813   9.498  69.752  1.00  0.00    -0.211 A  
HETATM   31  O   UNL     1     -10.685   6.340  66.717  1.00  0.00    -0.290 OA 
ENDBRANCH   7  19
ENDBRANCH   2   3
TORSDOF 3
ENDMDL
MODEL       85
REMARK 921   NORMALIZED FREE ENERGY PREDICTED BY IDOCK:   -5.27 KCAL/MOL
REMARK 922        TOTAL FREE ENERGY PREDICTED BY IDOCK:   -6.98 KCAL/MOL
REMARK 923 INTER-LIGAND FREE ENERGY PREDICTED BY IDOCK:   -6.37 KCAL/MOL
REMARK 924 INTRA-LIGAND FREE ENERGY PREDICTED BY IDOCK:   -0.61 KCAL/MOL
REMARK 927      BINDING AFFINITY PREDICTED BY RF-SCORE:    0.00 PKD
ROOT
HETATM    1  C   UNL     1      -5.595   8.425  71.917  1.00  0.00    -0.040 C  
HETATM    2  O   UNL     1      -6.430   8.255  70.769  1.00  0.00    -0.036 OA 
ENDROOT
BRANCH   2   3
HETATM    3  C   UNL     1      -6.912   9.404  70.191  1.00  0.00    -0.077 A  
HETATM    4  C   UNL     1      -8.312   9.644  70.203  1.00  0.00    -0.221 A  
HETATM    5  C   UNL     1      -8.749  10.846  69.604  1.00  0.00     0.390 A  
HETATM    6  C   UNL     1      -6.050  10.312  69.555  1.00  0.00    -0.045 A  
HETATM    7  C   UNL     1      -7.900  11.753  68.947  1.00  0.00    -0.013 A  
HETATM    8  C   UNL     1      -6.537  11.459  68.934  1.00  0.00    -0.071 A  
BRANCH   4   9
HETATM    9  C   UNL     1      -9.361   8.652  70.764  1.00  0.00    -0.231 C  
HETATM   10  C   UNL     1      -9.036   7.215  70.261  1.00  0.00    -0.152 C  
HETATM   11  C   UNL     1      -9.415   8.694  72.316  1.00  0.00    -0.336 C  
HETATM   12  C   UNL     1     -11.803   7.944  72.385  1.00  0.00    -0.402 C  
HETATM   13  C   UNL     1      -9.955   6.244  72.377  1.00  0.00    -0.187 C  
HETATM   14  C   UNL     1     -10.382   7.636  72.873  1.00  0.00    -0.380 C  
HETATM   15  C   UNL     1     -11.839   7.907  70.854  1.00  0.00    -0.242 C  
HETATM   16  C   UNL     1     -10.018   6.181  70.843  1.00  0.00    -0.223 C  
HETATM   17  C   UNL     1     -11.446   6.503  70.377  1.00  0.00    -0.465 C  
HETATM   18  C   UNL     1     -10.838   8.932  70.288  1.00  0.00    -0.265 C  
ENDBRANCH   4   9
BRANCH   7  19
HETATM   19  C   UNL     1      -8.448  12.931  68.248  1.00  0.00    -0.161 A  
HETATM   20  C   UNL     1      -9.817  16.331  66.122  1.00  0.00    -0.358 A  
HETATM   21  C   UNL     1      -8.936  15.334  68.162  1.00  0.00    -0.173 A  
HETATM   22  C   UNL     1      -9.406  13.937  66.236  1.00  0.00    -0.180 A  
HETATM   23  C   UNL     1      -8.924  12.828  66.929  1.00  0.00    -0.213 A  
HETATM   24  C   UNL     1      -8.484  14.197  68.854  1.00  0.00     0.002 A  
HETATM   25  C   UNL     1      -9.400  15.198  66.835  1.00  0.00    -0.251 A  
HETATM   26  C   UNL     1      -9.776  17.595  66.721  1.00  0.00    -0.300 A  
HETATM   27  C   UNL     1      -9.313  17.729  68.033  1.00  0.00    -0.276 A  
HETATM   28  C   UNL     1     -10.140  18.826  65.976  1.00  0.00    -0.317 C  
HETATM   29  O   UNL     1      -9.621  19.906  66.197  1.00  0.00    -0.398 OA 
HETATM   30  C   UNL     1      -8.907  16.605  68.753  1.00  0.00    -0.264 A  
HETATM   31  O   UNL     1     -11.113  18.648  65.059  1.00  0.00    -0.488 OA 
ENDBRANCH   7  19
ENDBRANCH   2   3
TORSDOF 3
ENDMDL
MODEL       86
REMARK 921   NORMALIZED FREE ENERGY PREDICTED BY IDOCK:   -5.26 KCAL/MOL
REMARK 922        TOTAL FREE ENERGY PREDICTED BY IDOCK:   -6.97 KCAL/MOL
REMARK 923 INTER-LIGAND FREE ENERGY PREDICTED BY IDOCK:   -6.58 KCAL/MOL
REMARK 924 INTRA-LIGAND FREE ENERGY PREDICTED BY IDOCK:   -0.40 KCAL/MOL
REMARK 927      BINDING AFFINITY PREDICTED BY RF-SCORE:    0.00 PKD
ROOT
HETATM    1  C   UNL     1      -9.693  13.643  65.144  1.00  0.00     0.050 C  
HETATM    2  O   UNL     1     -10.911  12.993  65.517  1.00  0.00    -0.271 OA 
ENDROOT
BRANCH   2   3
HETATM    3  C   UNL     1     -10.787  11.865  66.290  1.00  0.00    -0.282 A  
HETATM    4  C   UNL     1     -10.896  11.984  67.702  1.00  0.00    -0.273 A  
HETATM    5  C   UNL     1     -10.770  10.790  68.445  1.00  0.00    -0.255 A  
HETATM    6  C   UNL     1     -10.510  10.615  65.711  1.00  0.00    -0.235 A  
HETATM    7  C   UNL     1     -10.474   9.537  67.881  1.00  0.00    -0.293 A  
HETATM    8  C   UNL     1     -10.345   9.475  66.494  1.00  0.00    -0.263 A  
BRANCH   4   9
HETATM    9  C   UNL     1     -11.074  13.328  68.451  1.00  0.00    -0.299 C  
HETATM   10  C   UNL     1      -9.681  13.985  68.675  1.00  0.00    -0.179 C  
HETATM   11  C   UNL     1     -12.021  14.290  67.682  1.00  0.00    -0.400 C  
HETATM   12  C   UNL     1     -12.726  15.479  69.771  1.00  0.00     0.005 C  
HETATM   13  C   UNL     1     -10.705  16.262  68.503  1.00  0.00    -0.307 C  
HETATM   14  C   UNL     1     -12.114  15.659  68.376  1.00  0.00     0.063 C  
HETATM   15  C   UNL     1     -11.839  14.548  70.604  1.00  0.00    -0.367 C  
HETATM   16  C   UNL     1      -9.812  15.356  69.365  1.00  0.00    -0.273 C  
HETATM   17  C   UNL     1     -10.449  15.180  70.751  1.00  0.00     0.112 C  
HETATM   18  C   UNL     1     -11.702  13.189  69.891  1.00  0.00    -0.327 C  
ENDBRANCH   4   9
BRANCH   7  19
HETATM   19  C   UNL     1     -10.248   8.357  68.735  1.00  0.00    -0.223 A  
HETATM   20  C   UNL     1      -9.736   4.840  71.044  1.00  0.00    -0.257 A  
HETATM   21  C   UNL     1     -10.778   7.018  70.722  1.00  0.00    -0.252 A  
HETATM   22  C   UNL     1      -9.153   6.204  69.116  1.00  0.00    -0.128 A  
HETATM   23  C   UNL     1      -9.350   7.347  68.344  1.00  0.00    -0.144 A  
HETATM   24  C   UNL     1     -10.938   8.179  69.945  1.00  0.00    -0.168 A  
HETATM   25  C   UNL     1      -9.874   6.019  70.297  1.00  0.00    -0.221 A  
HETATM   26  C   UNL     1     -10.488   4.651  72.208  1.00  0.00    -0.238 A  
HETATM   27  C   UNL     1     -11.385   5.639  72.626  1.00  0.00    -0.356 A  
HETATM   28  C   UNL     1     -10.423   3.389  72.985  1.00  0.00    -0.166 C  
HETATM   29  O   UNL     1     -11.376   2.946  73.601  1.00  0.00    -0.228 OA 
HETATM   30  C   UNL     1     -11.521   6.819  71.894  1.00  0.00    -0.318 A  
HETATM   31  O   UNL     1      -9.211   2.796  72.973  1.00  0.00    -0.087 OA 
ENDBRANCH   7  19
ENDBRANCH   2   3
TORSDOF 3
ENDMDL
MODEL       87
REMARK 921   NORMALIZED FREE ENERGY PREDICTED BY IDOCK:   -5.22 KCAL/MOL
REMARK 922        TOTAL FREE ENERGY PREDICTED BY IDOCK:   -6.92 KCAL/MOL
REMARK 923 INTER-LIGAND FREE ENERGY PREDICTED BY IDOCK:   -6.23 KCAL/MOL
REMARK 924 INTRA-LIGAND FREE ENERGY PREDICTED BY IDOCK:   -0.69 KCAL/MOL
REMARK 927      BINDING AFFINITY PREDICTED BY RF-SCORE:    0.00 PKD
ROOT
HETATM    1  C   UNL     1      -9.739   3.346  70.418  1.00  0.00    -0.080 C  
HETATM    2  O   UNL     1      -9.698   3.845  69.078  1.00  0.00    -0.164 OA 
ENDROOT
BRANCH   2   3
HETATM    3  C   UNL     1      -9.895   5.197  68.927  1.00  0.00    -0.172 A  
HETATM    4  C   UNL     1      -9.465   5.823  67.726  1.00  0.00    -0.116 A  
HETATM    5  C   UNL     1      -9.703   7.211  67.621  1.00  0.00    -0.172 A  
HETATM    6  C   UNL     1     -10.468   5.966  69.953  1.00  0.00    -0.337 A  
HETATM    7  C   UNL     1     -10.257   7.996  68.647  1.00  0.00    -0.225 A  
HETATM    8  C   UNL     1     -10.635   7.342  69.819  1.00  0.00    -0.247 A  
BRANCH   4   9
HETATM    9  C   UNL     1      -8.710   5.095  66.586  1.00  0.00    -0.109 C  
HETATM   10  C   UNL     1      -9.698   4.163  65.824  1.00  0.00    -0.205 C  
HETATM   11  C   UNL     1      -8.039   6.101  65.611  1.00  0.00    -0.128 C  
HETATM   12  C   UNL     1      -6.257   4.471  64.946  1.00  0.00    -0.034 C  
HETATM   13  C   UNL     1      -8.434   4.529  63.695  1.00  0.00    -0.118 C  
HETATM   14  C   UNL     1      -7.379   5.378  64.425  1.00  0.00    -0.060 C  
HETATM   15  C   UNL     1      -6.843   3.433  65.910  1.00  0.00    -0.053 C  
HETATM   16  C   UNL     1      -9.007   3.461  64.641  1.00  0.00    -0.127 C  
HETATM   17  C   UNL     1      -7.866   2.573  65.159  1.00  0.00    -0.078 C  
HETATM   18  C   UNL     1      -7.547   4.151  67.077  1.00  0.00    -0.077 C  
ENDBRANCH   4   9
BRANCH   7  19
HETATM   19  C   UNL     1     -10.370   9.459  68.503  1.00  0.00    -0.236 A  
HETATM   20  C   UNL     1     -10.485  13.684  68.192  1.00  0.00    -0.250 A  
HETATM   21  C   UNL     1     -11.202  11.630  69.287  1.00  0.00    -0.328 A  
HETATM   22  C   UNL     1      -9.725  11.525  67.367  1.00  0.00    -0.191 A  
HETATM   23  C   UNL     1      -9.664  10.139  67.495  1.00  0.00    -0.190 A  
HETATM   24  C   UNL     1     -11.153  10.228  69.379  1.00  0.00    -0.299 A  
HETATM   25  C   UNL     1     -10.475  12.284  68.268  1.00  0.00    -0.236 A  
HETATM   26  C   UNL     1     -11.214  14.435  69.120  1.00  0.00    -0.300 A  
HETATM   27  C   UNL     1     -11.931  13.788  70.131  1.00  0.00    -0.404 A  
HETATM   28  C   UNL     1     -11.191  15.919  69.116  1.00  0.00    -0.334 C  
HETATM   29  O   UNL     1     -11.296  16.580  70.134  1.00  0.00    -0.267 OA 
HETATM   30  C   UNL     1     -11.934  12.394  70.208  1.00  0.00    -0.371 A  
HETATM   31  O   UNL     1     -11.076  16.465  67.888  1.00  0.00    -0.326 OA 
ENDBRANCH   7  19
ENDBRANCH   2   3
TORSDOF 3
ENDMDL
MODEL       88
REMARK 921   NORMALIZED FREE ENERGY PREDICTED BY IDOCK:   -5.19 KCAL/MOL
REMARK 922        TOTAL FREE ENERGY PREDICTED BY IDOCK:   -6.89 KCAL/MOL
REMARK 923 INTER-LIGAND FREE ENERGY PREDICTED BY IDOCK:   -6.11 KCAL/MOL
REMARK 924 INTRA-LIGAND FREE ENERGY PREDICTED BY IDOCK:   -0.78 KCAL/MOL
REMARK 927      BINDING AFFINITY PREDICTED BY RF-SCORE:    0.00 PKD
ROOT
HETATM    1  C   UNL     1     -11.099   6.370  68.748  1.00  0.00    -0.326 C  
HETATM    2  O   UNL     1      -9.914   7.032  68.300  1.00  0.00    -0.145 OA 
ENDROOT
BRANCH   2   3
HETATM    3  C   UNL     1      -9.962   8.404  68.258  1.00  0.00    -0.187 A  
HETATM    4  C   UNL     1      -9.064   9.147  69.071  1.00  0.00    -0.143 A  
HETATM    5  C   UNL     1      -9.151  10.554  68.980  1.00  0.00    -0.188 A  
HETATM    6  C   UNL     1     -10.910   9.073  67.467  1.00  0.00    -0.130 A  
HETATM    7  C   UNL     1     -10.107  11.236  68.207  1.00  0.00    -0.198 A  
HETATM    8  C   UNL     1     -10.988  10.463  67.451  1.00  0.00    -0.335 A  
BRANCH   4   9
HETATM    9  C   UNL     1      -8.066   8.513  70.072  1.00  0.00    -0.111 C  
HETATM   10  C   UNL     1      -7.055   9.596  70.551  1.00  0.00    -0.137 C  
HETATM   11  C   UNL     1      -8.800   7.870  71.281  1.00  0.00    -0.152 C  
HETATM   12  C   UNL     1      -6.961   6.219  71.687  1.00  0.00    -0.076 C  
HETATM   13  C   UNL     1      -6.885   8.477  72.784  1.00  0.00    -0.065 C  
HETATM   14  C   UNL     1      -7.803   7.333  72.321  1.00  0.00    -0.097 C  
HETATM   15  C   UNL     1      -6.189   6.779  70.488  1.00  0.00    -0.031 C  
HETATM   16  C   UNL     1      -6.078   9.027  71.596  1.00  0.00    -0.074 C  
HETATM   17  C   UNL     1      -5.252   7.893  70.971  1.00  0.00    -0.026 C  
HETATM   18  C   UNL     1      -7.179   7.361  69.461  1.00  0.00    -0.082 C  
ENDBRANCH   4   9
BRANCH   7  19
HETATM   19  C   UNL     1     -10.206  12.707  68.252  1.00  0.00    -0.240 A  
HETATM   20  C   UNL     1     -10.507  16.932  68.144  1.00  0.00    -0.350 A  
HETATM   21  C   UNL     1      -9.158  14.920  68.393  1.00  0.00    -0.185 A  
HETATM   22  C   UNL     1     -11.556  14.738  68.084  1.00  0.00    -0.356 A  
HETATM   23  C   UNL     1     -11.446  13.349  68.087  1.00  0.00    -0.339 A  
HETATM   24  C   UNL     1      -9.073  13.518  68.425  1.00  0.00    -0.155 A  
HETATM   25  C   UNL     1     -10.417  15.536  68.217  1.00  0.00    -0.242 A  
HETATM   26  C   UNL     1      -9.355  17.719  68.246  1.00  0.00    -0.288 A  
HETATM   27  C   UNL     1      -8.108  17.111  68.417  1.00  0.00    -0.255 A  
HETATM   28  C   UNL     1      -9.401  19.196  68.102  1.00  0.00    -0.335 C  
HETATM   29  O   UNL     1      -8.481  19.839  67.629  1.00  0.00    -0.303 OA 
HETATM   30  C   UNL     1      -8.011  15.721  68.501  1.00  0.00    -0.141 A  
HETATM   31  O   UNL     1     -10.535  19.760  68.568  1.00  0.00    -0.415 OA 
ENDBRANCH   7  19
ENDBRANCH   2   3
TORSDOF 3
ENDMDL
MODEL       89
REMARK 921   NORMALIZED FREE ENERGY PREDICTED BY IDOCK:   -5.17 KCAL/MOL
REMARK 922        TOTAL FREE ENERGY PREDICTED BY IDOCK:   -6.87 KCAL/MOL
REMARK 923 INTER-LIGAND FREE ENERGY PREDICTED BY IDOCK:   -6.34 KCAL/MOL
REMARK 924 INTRA-LIGAND FREE ENERGY PREDICTED BY IDOCK:   -0.53 KCAL/MOL
REMARK 927      BINDING AFFINITY PREDICTED BY RF-SCORE:    0.00 PKD
ROOT
HETATM    1  C   UNL     1      -6.290   5.421  64.172  1.00  0.00    -0.022 C  
HETATM    2  O   UNL     1      -7.533   5.174  64.833  1.00  0.00    -0.069 OA 
ENDROOT
BRANCH   2   3
HETATM    3  C   UNL     1      -8.098   6.244  65.485  1.00  0.00    -0.129 A  
HETATM    4  C   UNL     1      -8.471   6.100  66.848  1.00  0.00    -0.105 A  
HETATM    5  C   UNL     1      -9.037   7.235  67.468  1.00  0.00    -0.125 A  
HETATM    6  C   UNL     1      -8.351   7.452  64.812  1.00  0.00     0.000 A  
HETATM    7  C   UNL     1      -9.314   8.442  66.803  1.00  0.00    -0.235 A  
HETATM    8  C   UNL     1      -8.958   8.526  65.457  1.00  0.00    -0.182 A  
BRANCH   4   9
HETATM    9  C   UNL     1      -8.353   4.779  67.648  1.00  0.00    -0.104 C  
HETATM   10  C   UNL     1      -6.970   4.727  68.361  1.00  0.00    -0.056 C  
HETATM   11  C   UNL     1      -9.510   4.626  68.675  1.00  0.00    -0.213 C  
HETATM   12  C   UNL     1      -9.390   2.125  68.636  1.00  0.00    -0.235 C  
HETATM   13  C   UNL     1      -7.971   3.424  70.249  1.00  0.00    -0.052 C  
HETATM   14  C   UNL     1      -9.332   3.365  69.536  1.00  0.00    -0.240 C  
HETATM   15  C   UNL     1      -8.265   2.191  67.598  1.00  0.00    -0.074 C  
HETATM   16  C   UNL     1      -6.830   3.457  69.220  1.00  0.00    -0.041 C  
HETATM   17  C   UNL     1      -6.914   2.213  68.323  1.00  0.00    -0.040 C  
HETATM   18  C   UNL     1      -8.410   3.476  66.760  1.00  0.00    -0.100 C  
ENDBRANCH   4   9
BRANCH   7  19
HETATM   19  C   UNL     1     -10.009   9.544  67.493  1.00  0.00    -0.235 A  
HETATM   20  C   UNL     1     -11.797  12.780  69.564  1.00  0.00    -0.379 A  
HETATM   21  C   UNL     1     -11.330  10.397  69.376  1.00  0.00    -0.310 A  
HETATM   22  C   UNL     1     -10.555  11.922  67.657  1.00  0.00    -0.241 A  
HETATM   23  C   UNL     1      -9.941  10.859  66.997  1.00  0.00    -0.227 A  
HETATM   24  C   UNL     1     -10.731   9.334  68.679  1.00  0.00    -0.180 A  
HETATM   25  C   UNL     1     -11.237  11.708  68.856  1.00  0.00    -0.306 A  
HETATM   26  C   UNL     1     -12.450  12.558  70.781  1.00  0.00    -0.357 A  
HETATM   27  C   UNL     1     -12.539  11.261  71.297  1.00  0.00    -0.487 A  
HETATM   28  C   UNL     1     -12.992  13.675  71.593  1.00  0.00    -0.362 C  
HETATM   29  O   UNL     1     -13.036  13.641  72.811  1.00  0.00    -0.447 OA 
HETATM   30  C   UNL     1     -11.993  10.186  70.594  1.00  0.00    -0.423 A  
HETATM   31  O   UNL     1     -13.457  14.711  70.865  1.00  0.00    -0.361 OA 
ENDBRANCH   7  19
ENDBRANCH   2   3
TORSDOF 3
ENDMDL
MODEL       90
REMARK 921   NORMALIZED FREE ENERGY PREDICTED BY IDOCK:   -5.12 KCAL/MOL
REMARK 922        TOTAL FREE ENERGY PREDICTED BY IDOCK:   -6.80 KCAL/MOL
REMARK 923 INTER-LIGAND FREE ENERGY PREDICTED BY IDOCK:   -7.10 KCAL/MOL
REMARK 924 INTRA-LIGAND FREE ENERGY PREDICTED BY IDOCK:    0.29 KCAL/MOL
REMARK 927      BINDING AFFINITY PREDICTED BY RF-SCORE:    0.00 PKD
ROOT
HETATM    1  C   UNL     1     -10.936  19.542  66.022  1.00  0.00    -0.178 C  
HETATM    2  O   UNL     1     -10.167  18.644  65.217  1.00  0.00    -0.208 OA 
ENDROOT
BRANCH   2   3
HETATM    3  C   UNL     1     -10.246  17.313  65.545  1.00  0.00    -0.022 A  
HETATM    4  C   UNL     1      -9.263  16.760  66.409  1.00  0.00    -0.309 A  
HETATM    5  C   UNL     1      -9.400  15.389  66.721  1.00  0.00    -0.267 A  
HETATM    6  C   UNL     1     -11.249  16.490  65.006  1.00  0.00    -0.091 A  
HETATM    7  C   UNL     1     -10.385  14.551  66.173  1.00  0.00    -0.305 A  
HETATM    8  C   UNL     1     -11.310  15.132  65.306  1.00  0.00    -0.318 A  
BRANCH   4   9
HETATM    9  C   UNL     1      -8.045  17.544  66.959  1.00  0.00    -0.240 C  
HETATM   10  C   UNL     1      -6.754  16.695  66.770  1.00  0.00    -0.241 C  
HETATM   11  C   UNL     1      -7.899  18.930  66.271  1.00  0.00    -0.299 C  
HETATM   12  C   UNL     1      -6.741  19.937  68.250  1.00  0.00    -0.323 C  
HETATM   13  C   UNL     1      -5.403  18.780  66.468  1.00  0.00    -0.161 C  
HETATM   14  C   UNL     1      -6.633  19.661  66.745  1.00  0.00    -0.203 C  
HETATM   15  C   UNL     1      -6.874  18.612  69.007  1.00  0.00    -0.302 C  
HETATM   16  C   UNL     1      -5.506  17.459  67.248  1.00  0.00    -0.154 C  
HETATM   17  C   UNL     1      -5.625  17.760  68.749  1.00  0.00    -0.174 C  
HETATM   18  C   UNL     1      -8.116  17.851  68.504  1.00  0.00    -0.305 C  
ENDBRANCH   4   9
BRANCH   7  19
HETATM   19  C   UNL     1     -10.394  13.104  66.462  1.00  0.00    -0.284 A  
HETATM   20  C   UNL     1     -10.656   8.956  67.286  1.00  0.00    -0.304 A  
HETATM   21  C   UNL     1     -10.263  11.236  68.047  1.00  0.00    -0.201 A  
HETATM   22  C   UNL     1     -10.707  10.802  65.703  1.00  0.00    -0.142 A  
HETATM   23  C   UNL     1     -10.653  12.169  65.444  1.00  0.00    -0.309 A  
HETATM   24  C   UNL     1     -10.181  12.609  67.759  1.00  0.00    -0.222 A  
HETATM   25  C   UNL     1     -10.533  10.323  67.003  1.00  0.00    -0.304 A  
HETATM   26  C   UNL     1     -10.512   8.492  68.598  1.00  0.00    -0.200 A  
HETATM   27  C   UNL     1     -10.248   9.396  69.632  1.00  0.00    -0.225 A  
HETATM   28  C   UNL     1     -10.706   7.063  68.949  1.00  0.00    -0.200 C  
HETATM   29  O   UNL     1     -11.145   6.705  70.028  1.00  0.00    -0.282 OA 
HETATM   30  C   UNL     1     -10.114  10.758  69.357  1.00  0.00    -0.166 A  
HETATM   31  O   UNL     1     -10.327   6.202  67.982  1.00  0.00    -0.157 OA 
ENDBRANCH   7  19
ENDBRANCH   2   3
TORSDOF 3
ENDMDL
MODEL       91
REMARK 921   NORMALIZED FREE ENERGY PREDICTED BY IDOCK:   -4.97 KCAL/MOL
REMARK 922        TOTAL FREE ENERGY PREDICTED BY IDOCK:   -6.63 KCAL/MOL
REMARK 923 INTER-LIGAND FREE ENERGY PREDICTED BY IDOCK:   -5.89 KCAL/MOL
REMARK 924 INTRA-LIGAND FREE ENERGY PREDICTED BY IDOCK:   -0.74 KCAL/MOL
REMARK 927      BINDING AFFINITY PREDICTED BY RF-SCORE:    0.00 PKD
ROOT
HETATM    1  C   UNL     1      -5.855   5.105  69.026  1.00  0.00    -0.020 C  
HETATM    2  O   UNL     1      -7.245   5.179  68.695  1.00  0.00    -0.060 OA 
ENDROOT
BRANCH   2   3
HETATM    3  C   UNL     1      -7.706   6.403  68.276  1.00  0.00    -0.104 A  
HETATM    4  C   UNL     1      -8.258   6.519  66.972  1.00  0.00    -0.113 A  
HETATM    5  C   UNL     1      -8.725   7.798  66.599  1.00  0.00    -0.151 A  
HETATM    6  C   UNL     1      -7.596   7.539  69.095  1.00  0.00    -0.100 A  
HETATM    7  C   UNL     1      -8.603   8.947  67.400  1.00  0.00    -0.119 A  
HETATM    8  C   UNL     1      -8.027   8.789  68.660  1.00  0.00    -0.107 A  
BRANCH   4   9
HETATM    9  C   UNL     1      -8.312   5.362  65.943  1.00  0.00    -0.123 C  
HETATM   10  C   UNL     1      -6.863   4.950  65.550  1.00  0.00    -0.061 C  
HETATM   11  C   UNL     1      -9.102   4.143  66.494  1.00  0.00    -0.137 C  
HETATM   12  C   UNL     1      -9.760   3.367  64.205  1.00  0.00    -0.166 C  
HETATM   13  C   UNL     1      -7.604   2.581  65.225  1.00  0.00    -0.076 C  
HETATM   14  C   UNL     1      -9.067   2.961  65.512  1.00  0.00    -0.147 C  
HETATM   15  C   UNL     1      -9.027   4.563  63.586  1.00  0.00    -0.130 C  
HETATM   16  C   UNL     1      -6.864   3.760  64.573  1.00  0.00    -0.045 C  
HETATM   17  C   UNL     1      -7.581   4.157  63.274  1.00  0.00    -0.062 C  
HETATM   18  C   UNL     1      -9.018   5.737  64.584  1.00  0.00     0.258 C  
ENDBRANCH   4   9
BRANCH   7  19
HETATM   19  C   UNL     1      -9.015  10.269  66.894  1.00  0.00    -0.149 A  
HETATM   20  C   UNL     1     -10.346  14.087  65.623  1.00  0.00    -0.342 A  
HETATM   21  C   UNL     1     -10.368  11.662  65.394  1.00  0.00    -0.313 A  
HETATM   22  C   UNL     1      -8.946  12.708  67.057  1.00  0.00    -0.216 A  
HETATM   23  C   UNL     1      -8.537  11.449  67.492  1.00  0.00    -0.137 A  
HETATM   24  C   UNL     1      -9.918  10.403  65.827  1.00  0.00    -0.334 A  
HETATM   25  C   UNL     1      -9.875  12.828  66.021  1.00  0.00    -0.258 A  
HETATM   26  C   UNL     1     -11.301  14.193  64.607  1.00  0.00    -0.374 A  
HETATM   27  C   UNL     1     -11.792  13.039  63.988  1.00  0.00    -0.510 A  
HETATM   28  C   UNL     1     -11.877  15.501  64.208  1.00  0.00    -0.173 C  
HETATM   29  O   UNL     1     -13.019  15.620  63.800  1.00  0.00    -0.403 OA 
HETATM   30  C   UNL     1     -11.320  11.782  64.371  1.00  0.00    -0.373 A  
HETATM   31  O   UNL     1     -11.016  16.536  64.308  1.00  0.00    -0.848 OA 
ENDBRANCH   7  19
ENDBRANCH   2   3
TORSDOF 3
ENDMDL
MODEL       92
REMARK 921   NORMALIZED FREE ENERGY PREDICTED BY IDOCK:   -4.97 KCAL/MOL
REMARK 922        TOTAL FREE ENERGY PREDICTED BY IDOCK:   -6.63 KCAL/MOL
REMARK 923 INTER-LIGAND FREE ENERGY PREDICTED BY IDOCK:   -5.90 KCAL/MOL
REMARK 924 INTRA-LIGAND FREE ENERGY PREDICTED BY IDOCK:   -0.73 KCAL/MOL
REMARK 927      BINDING AFFINITY PREDICTED BY RF-SCORE:    0.00 PKD
ROOT
HETATM    1  C   UNL     1     -10.676   5.723  68.716  1.00  0.00    -0.247 C  
HETATM    2  O   UNL     1      -9.525   6.571  68.695  1.00  0.00    -0.125 OA 
ENDROOT
BRANCH   2   3
HETATM    3  C   UNL     1      -9.764   7.918  68.568  1.00  0.00    -0.161 A  
HETATM    4  C   UNL     1      -9.260   8.600  67.429  1.00  0.00    -0.158 A  
HETATM    5  C   UNL     1      -9.545   9.981  67.346  1.00  0.00    -0.182 A  
HETATM    6  C   UNL     1     -10.453   8.629  69.564  1.00  0.00    -0.222 A  
HETATM    7  C   UNL     1     -10.216  10.709  68.344  1.00  0.00    -0.191 A  
HETATM    8  C   UNL     1     -10.665  10.001  69.459  1.00  0.00    -0.269 A  
BRANCH   4   9
HETATM    9  C   UNL     1      -8.382   7.941  66.336  1.00  0.00    -0.129 C  
HETATM   10  C   UNL     1      -7.131   7.293  66.998  1.00  0.00    -0.087 C  
HETATM   11  C   UNL     1      -9.181   6.888  65.519  1.00  0.00     0.279 C  
HETATM   12  C   UNL     1      -7.743   7.180  63.489  1.00  0.00    -0.119 C  
HETATM   13  C   UNL     1      -7.106   5.505  65.247  1.00  0.00    -0.066 C  
HETATM   14  C   UNL     1      -8.280   6.165  64.505  1.00  0.00    -0.079 C  
HETATM   15  C   UNL     1      -6.926   8.251  64.218  1.00  0.00    -0.073 C  
HETATM   16  C   UNL     1      -6.256   6.571  65.957  1.00  0.00    -0.038 C  
HETATM   17  C   UNL     1      -5.739   7.583  64.923  1.00  0.00    -0.037 C  
HETATM   18  C   UNL     1      -7.809   8.950  65.268  1.00  0.00    -0.104 C  
ENDBRANCH   4   9
BRANCH   7  19
HETATM   19  C   UNL     1     -10.378  12.171  68.235  1.00  0.00    -0.218 A  
HETATM   20  C   UNL     1     -10.966  16.336  67.724  1.00  0.00    -0.281 A  
HETATM   21  C   UNL     1      -9.527  14.376  67.578  1.00  0.00    -0.207 A  
HETATM   22  C   UNL     1     -11.780  14.162  68.449  1.00  0.00    -0.380 A  
HETATM   23  C   UNL     1     -11.592  12.788  68.584  1.00  0.00    -0.352 A  
HETATM   24  C   UNL     1      -9.347  12.993  67.752  1.00  0.00    -0.199 A  
HETATM   25  C   UNL     1     -10.762  14.964  67.930  1.00  0.00    -0.265 A  
HETATM   26  C   UNL     1      -9.950  17.124  67.173  1.00  0.00    -0.283 A  
HETATM   27  C   UNL     1      -8.729  16.541  66.821  1.00  0.00    -0.257 A  
HETATM   28  C   UNL     1     -10.152  18.563  66.873  1.00  0.00    -0.370 C  
HETATM   29  O   UNL     1      -9.597  19.126  65.945  1.00  0.00    -0.445 OA 
HETATM   30  C   UNL     1      -8.514  15.178  67.032  1.00  0.00    -0.259 A  
HETATM   31  O   UNL     1     -10.976  19.195  67.734  1.00  0.00    -0.373 OA 
ENDBRANCH   7  19
ENDBRANCH   2   3
TORSDOF 3
ENDMDL
MODEL       93
REMARK 921   NORMALIZED FREE ENERGY PREDICTED BY IDOCK:   -4.89 KCAL/MOL
REMARK 922        TOTAL FREE ENERGY PREDICTED BY IDOCK:   -6.54 KCAL/MOL
REMARK 923 INTER-LIGAND FREE ENERGY PREDICTED BY IDOCK:   -6.02 KCAL/MOL
REMARK 924 INTRA-LIGAND FREE ENERGY PREDICTED BY IDOCK:   -0.53 KCAL/MOL
REMARK 927      BINDING AFFINITY PREDICTED BY RF-SCORE:    0.00 PKD
ROOT
HETATM    1  C   UNL     1     -13.276  14.734  65.408  1.00  0.00     0.643 C  
HETATM    2  O   UNL     1     -12.000  14.674  64.765  1.00  0.00    -0.411 OA 
ENDROOT
BRANCH   2   3
HETATM    3  C   UNL     1     -11.364  13.456  64.790  1.00  0.00    -0.337 A  
HETATM    4  C   UNL     1     -10.329  13.241  65.740  1.00  0.00    -0.290 A  
HETATM    5  C   UNL     1      -9.718  11.968  65.726  1.00  0.00    -0.254 A  
HETATM    6  C   UNL     1     -11.689  12.449  63.867  1.00  0.00    -0.529 A  
HETATM    7  C   UNL     1     -10.020  10.959  64.796  1.00  0.00    -0.366 A  
HETATM    8  C   UNL     1     -11.021  11.227  63.863  1.00  0.00    -0.382 A  
BRANCH   4   9
HETATM    9  C   UNL     1      -9.806  14.323  66.717  1.00  0.00    -0.274 C  
HETATM   10  C   UNL     1      -9.706  15.688  65.975  1.00  0.00    -0.378 C  
HETATM   11  C   UNL     1     -10.711  14.443  67.975  1.00  0.00    -0.244 C  
HETATM   12  C   UNL     1      -8.835  15.281  69.407  1.00  0.00    -0.220 C  
HETATM   13  C   UNL     1     -10.235  16.903  68.098  1.00  0.00    -0.311 C  
HETATM   14  C   UNL     1     -10.247  15.586  68.892  1.00  0.00    -0.210 C  
HETATM   15  C   UNL     1      -7.872  15.160  68.222  1.00  0.00    -0.124 C  
HETATM   16  C   UNL     1      -9.247  16.810  66.924  1.00  0.00    -0.249 C  
HETATM   17  C   UNL     1      -7.844  16.492  67.462  1.00  0.00    -0.175 C  
HETATM   18  C   UNL     1      -8.356  14.047  67.273  1.00  0.00    -0.209 C  
ENDBRANCH   4   9
BRANCH   7  19
HETATM   19  C   UNL     1      -9.259   9.695  64.777  1.00  0.00    -0.298 A  
HETATM   20  C   UNL     1      -7.242   5.973  64.586  1.00  0.00    -0.063 A  
HETATM   21  C   UNL     1      -8.622   7.563  65.810  1.00  0.00    -0.158 A  
HETATM   22  C   UNL     1      -7.809   8.121  63.595  1.00  0.00    -0.151 A  
HETATM   23  C   UNL     1      -8.501   9.329  63.650  1.00  0.00    -0.200 A  
HETATM   24  C   UNL     1      -9.287   8.801  65.859  1.00  0.00    -0.284 A  
HETATM   25  C   UNL     1      -7.877   7.221  64.660  1.00  0.00    -0.123 A  
HETATM   26  C   UNL     1      -7.344   5.066  65.646  1.00  0.00    -0.077 A  
HETATM   27  C   UNL     1      -8.085   5.403  66.782  1.00  0.00    -0.105 A  
HETATM   28  C   UNL     1      -6.747   3.709  65.575  1.00  0.00    -0.048 C  
HETATM   29  O   UNL     1      -7.239   2.745  66.134  1.00  0.00    -0.063 OA 
HETATM   30  C   UNL     1      -8.711   6.648  66.869  1.00  0.00    -0.116 A  
HETATM   31  O   UNL     1      -5.603   3.647  64.863  1.00  0.00    -0.009 OA 
ENDBRANCH   7  19
ENDBRANCH   2   3
TORSDOF 3
ENDMDL
MODEL       94
REMARK 921   NORMALIZED FREE ENERGY PREDICTED BY IDOCK:   -4.89 KCAL/MOL
REMARK 922        TOTAL FREE ENERGY PREDICTED BY IDOCK:   -6.54 KCAL/MOL
REMARK 923 INTER-LIGAND FREE ENERGY PREDICTED BY IDOCK:   -5.82 KCAL/MOL
REMARK 924 INTRA-LIGAND FREE ENERGY PREDICTED BY IDOCK:   -0.72 KCAL/MOL
REMARK 927      BINDING AFFINITY PREDICTED BY RF-SCORE:    0.00 PKD
ROOT
HETATM    1  C   UNL     1      -9.652   3.182  69.999  1.00  0.00    -0.092 C  
HETATM    2  O   UNL     1      -9.561   3.821  68.724  1.00  0.00    -0.161 OA 
ENDROOT
BRANCH   2   3
HETATM    3  C   UNL     1      -9.836   5.167  68.697  1.00  0.00    -0.160 A  
HETATM    4  C   UNL     1      -9.587   5.896  67.503  1.00  0.00    -0.114 A  
HETATM    5  C   UNL     1      -9.898   7.273  67.531  1.00  0.00    -0.198 A  
HETATM    6  C   UNL     1     -10.310   5.833  69.840  1.00  0.00    -0.330 A  
HETATM    7  C   UNL     1     -10.354   7.956  68.672  1.00  0.00    -0.224 A  
HETATM    8  C   UNL     1     -10.553   7.204  69.829  1.00  0.00    -0.250 A  
BRANCH   4   9
HETATM    9  C   UNL     1      -8.950   5.288  66.229  1.00  0.00    -0.133 C  
HETATM   10  C   UNL     1      -7.487   4.855  66.538  1.00  0.00    -0.087 C  
HETATM   11  C   UNL     1      -9.778   4.089  65.691  1.00  0.00    -0.192 C  
HETATM   12  C   UNL     1      -8.996   4.435  63.337  1.00  0.00    -0.139 C  
HETATM   13  C   UNL     1      -7.675   2.975  64.896  1.00  0.00    -0.077 C  
HETATM   14  C   UNL     1      -9.088   3.425  64.488  1.00  0.00    -0.130 C  
HETATM   15  C   UNL     1      -8.176   5.649  63.784  1.00  0.00    -0.091 C  
HETATM   16  C   UNL     1      -6.829   4.188  65.316  1.00  0.00    -0.053 C  
HETATM   17  C   UNL     1      -6.760   5.190  64.153  1.00  0.00    -0.046 C  
HETATM   18  C   UNL     1      -8.836   6.293  65.018  1.00  0.00     0.181 C  
ENDBRANCH   4   9
BRANCH   7  19
HETATM   19  C   UNL     1     -10.549   9.417  68.651  1.00  0.00    -0.230 A  
HETATM   20  C   UNL     1     -11.304  13.583  68.460  1.00  0.00    -0.327 A  
HETATM   21  C   UNL     1     -10.041  11.633  67.729  1.00  0.00    -0.200 A  
HETATM   22  C   UNL     1     -11.753  11.398  69.430  1.00  0.00    -0.406 A  
HETATM   23  C   UNL     1     -11.523  10.024  69.465  1.00  0.00    -0.176 A  
HETATM   24  C   UNL     1      -9.802  10.250  67.802  1.00  0.00    -0.195 A  
HETATM   25  C   UNL     1     -11.032  12.211  68.554  1.00  0.00    -0.276 A  
HETATM   26  C   UNL     1     -10.598  14.382  67.555  1.00  0.00    -0.265 A  
HETATM   27  C   UNL     1      -9.620  13.809  66.736  1.00  0.00    -0.283 A  
HETATM   28  C   UNL     1     -10.908  15.822  67.376  1.00  0.00    -0.306 C  
HETATM   29  O   UNL     1     -10.775  16.395  66.309  1.00  0.00    -0.266 OA 
HETATM   30  C   UNL     1      -9.335  12.446  66.830  1.00  0.00    -0.220 A  
HETATM   31  O   UNL     1     -11.318  16.442  68.501  1.00  0.00    -0.371 OA 
ENDBRANCH   7  19
ENDBRANCH   2   3
TORSDOF 3
ENDMDL
MODEL       95
REMARK 921   NORMALIZED FREE ENERGY PREDICTED BY IDOCK:   -4.87 KCAL/MOL
REMARK 922        TOTAL FREE ENERGY PREDICTED BY IDOCK:   -6.51 KCAL/MOL
REMARK 923 INTER-LIGAND FREE ENERGY PREDICTED BY IDOCK:   -5.87 KCAL/MOL
REMARK 924 INTRA-LIGAND FREE ENERGY PREDICTED BY IDOCK:   -0.64 KCAL/MOL
REMARK 927      BINDING AFFINITY PREDICTED BY RF-SCORE:    0.00 PKD
ROOT
HETATM    1  C   UNL     1      -6.913   3.253  68.983  1.00  0.00    -0.045 C  
HETATM    2  O   UNL     1      -8.209   3.776  69.285  1.00  0.00    -0.057 OA 
ENDROOT
BRANCH   2   3
HETATM    3  C   UNL     1      -8.393   5.118  69.052  1.00  0.00    -0.087 A  
HETATM    4  C   UNL     1      -8.736   5.964  70.141  1.00  0.00    -0.141 A  
HETATM    5  C   UNL     1      -8.901   7.334  69.844  1.00  0.00    -0.142 A  
HETATM    6  C   UNL     1      -8.292   5.649  67.755  1.00  0.00    -0.100 A  
HETATM    7  C   UNL     1      -8.823   7.876  68.549  1.00  0.00    -0.134 A  
HETATM    8  C   UNL     1      -8.514   7.001  67.508  1.00  0.00    -0.122 A  
BRANCH   4   9
HETATM    9  C   UNL     1      -8.995   5.464  71.584  1.00  0.00    -0.147 C  
HETATM   10  C   UNL     1      -7.634   5.250  72.309  1.00  0.00    -0.096 C  
HETATM   11  C   UNL     1      -9.894   6.452  72.378  1.00  0.00    -0.176 C  
HETATM   12  C   UNL     1     -10.780   4.648  73.873  1.00  0.00    -0.360 C  
HETATM   13  C   UNL     1      -8.679   5.874  74.496  1.00  0.00    -0.120 C  
HETATM   14  C   UNL     1     -10.064   6.004  73.839  1.00  0.00    -0.249 C  
HETATM   15  C   UNL     1      -9.945   3.608  73.119  1.00  0.00    -0.195 C  
HETATM   16  C   UNL     1      -7.841   4.810  73.771  1.00  0.00    -0.098 C  
HETATM   17  C   UNL     1      -8.582   3.465  73.807  1.00  0.00    -0.081 C  
HETATM   18  C   UNL     1      -9.731   4.072  71.666  1.00  0.00    -0.242 C  
ENDBRANCH   4   9
BRANCH   7  19
HETATM   19  C   UNL     1      -9.119   9.300  68.305  1.00  0.00    -0.128 A  
HETATM   20  C   UNL     1      -9.829  13.445  67.787  1.00  0.00    -0.234 A  
HETATM   21  C   UNL     1     -10.573  11.259  68.562  1.00  0.00    -0.227 A  
HETATM   22  C   UNL     1      -8.424  11.486  67.462  1.00  0.00    -0.143 A  
HETATM   23  C   UNL     1      -8.181  10.130  67.665  1.00  0.00    -0.110 A  
HETATM   24  C   UNL     1     -10.323   9.886  68.728  1.00  0.00    -0.222 A  
HETATM   25  C   UNL     1      -9.607  12.068  67.922  1.00  0.00    -0.196 A  
HETATM   26  C   UNL     1     -11.004  14.022  68.281  1.00  0.00    -0.272 A  
HETATM   27  C   UNL     1     -11.958  13.222  68.917  1.00  0.00    -0.336 A  
HETATM   28  C   UNL     1     -11.243  15.485  68.220  1.00  0.00    -0.343 C  
HETATM   29  O   UNL     1     -11.887  16.081  69.066  1.00  0.00    -0.362 OA 
HETATM   30  C   UNL     1     -11.750  11.848  69.047  1.00  0.00    -0.391 A  
HETATM   31  O   UNL     1     -10.711  16.086  67.136  1.00  0.00    -0.314 OA 
ENDBRANCH   7  19
ENDBRANCH   2   3
TORSDOF 3
ENDMDL
MODEL       96
REMARK 921   NORMALIZED FREE ENERGY PREDICTED BY IDOCK:   -4.86 KCAL/MOL
REMARK 922        TOTAL FREE ENERGY PREDICTED BY IDOCK:   -6.50 KCAL/MOL
REMARK 923 INTER-LIGAND FREE ENERGY PREDICTED BY IDOCK:   -5.71 KCAL/MOL
REMARK 924 INTRA-LIGAND FREE ENERGY PREDICTED BY IDOCK:   -0.79 KCAL/MOL
REMARK 927      BINDING AFFINITY PREDICTED BY RF-SCORE:    0.00 PKD
ROOT
HETATM    1  C   UNL     1      -5.887   3.673  70.326  1.00  0.00    -0.018 C  
HETATM    2  O   UNL     1      -7.135   3.606  69.631  1.00  0.00    -0.041 OA 
ENDROOT
BRANCH   2   3
HETATM    3  C   UNL     1      -7.758   4.806  69.382  1.00  0.00    -0.063 A  
HETATM    4  C   UNL     1      -8.212   5.084  68.065  1.00  0.00    -0.097 A  
HETATM    5  C   UNL     1      -8.854   6.326  67.871  1.00  0.00    -0.112 A  
HETATM    6  C   UNL     1      -7.907   5.769  70.394  1.00  0.00    -0.104 A  
HETATM    7  C   UNL     1      -8.992   7.307  68.869  1.00  0.00    -0.133 A  
HETATM    8  C   UNL     1      -8.503   7.001  70.138  1.00  0.00    -0.139 A  
BRANCH   4   9
HETATM    9  C   UNL     1      -7.988   4.149  66.851  1.00  0.00    -0.097 C  
HETATM   10  C   UNL     1      -8.565   4.818  65.569  1.00  0.00    -0.131 C  
HETATM   11  C   UNL     1      -6.484   3.803  66.665  1.00  0.00    -0.041 C  
HETATM   12  C   UNL     1      -6.989   1.621  65.545  1.00  0.00    -0.042 C  
HETATM   13  C   UNL     1      -6.799   3.718  64.177  1.00  0.00    -0.045 C  
HETATM   14  C   UNL     1      -6.256   2.959  65.400  1.00  0.00    -0.024 C  
HETATM   15  C   UNL     1      -8.490   1.875  65.719  1.00  0.00    -0.105 C  
HETATM   16  C   UNL     1      -8.311   3.951  64.322  1.00  0.00    -0.091 C  
HETATM   17  C   UNL     1      -9.023   2.599  64.477  1.00  0.00    -0.121 C  
HETATM   18  C   UNL     1      -8.725   2.758  66.959  1.00  0.00    -0.132 C  
ENDBRANCH   4   9
BRANCH   7  19
HETATM   19  C   UNL     1      -9.576   8.625  68.558  1.00  0.00    -0.162 A  
HETATM   20  C   UNL     1     -11.466  12.321  67.707  1.00  0.00    -0.392 A  
HETATM   21  C   UNL     1     -10.359  10.293  66.938  1.00  0.00    -0.298 A  
HETATM   22  C   UNL     1     -10.618  10.703  69.313  1.00  0.00    -0.263 A  
HETATM   23  C   UNL     1     -10.026   9.472  69.587  1.00  0.00    -0.220 A  
HETATM   24  C   UNL     1      -9.735   9.069  67.235  1.00  0.00    -0.232 A  
HETATM   25  C   UNL     1     -10.808  11.117  67.993  1.00  0.00    -0.274 A  
HETATM   26  C   UNL     1     -11.679  12.709  66.380  1.00  0.00    -0.466 A  
HETATM   27  C   UNL     1     -11.238  11.891  65.335  1.00  0.00    -0.351 A  
HETATM   28  C   UNL     1     -12.435  13.939  66.036  1.00  0.00    -0.461 C  
HETATM   29  O   UNL     1     -13.114  14.034  65.029  1.00  0.00    -0.742 OA 
HETATM   30  C   UNL     1     -10.572  10.696  65.612  1.00  0.00    -0.175 A  
HETATM   31  O   UNL     1     -12.278  14.947  66.919  1.00  0.00    -0.140 OA 
ENDBRANCH   7  19
ENDBRANCH   2   3
TORSDOF 3
ENDMDL
MODEL       97
REMARK 921   NORMALIZED FREE ENERGY PREDICTED BY IDOCK:   -4.83 KCAL/MOL
REMARK 922        TOTAL FREE ENERGY PREDICTED BY IDOCK:   -6.46 KCAL/MOL
REMARK 923 INTER-LIGAND FREE ENERGY PREDICTED BY IDOCK:   -6.14 KCAL/MOL
REMARK 924 INTRA-LIGAND FREE ENERGY PREDICTED BY IDOCK:   -0.32 KCAL/MOL
REMARK 927      BINDING AFFINITY PREDICTED BY RF-SCORE:    0.00 PKD
ROOT
HETATM    1  C   UNL     1     -10.124  13.111  65.310  1.00  0.00    -0.235 C  
HETATM    2  O   UNL     1     -11.251  12.831  66.144  1.00  0.00    -0.279 OA 
ENDROOT
BRANCH   2   3
HETATM    3  C   UNL     1     -11.130  11.752  66.987  1.00  0.00    -0.304 A  
HETATM    4  C   UNL     1     -11.183  11.969  68.390  1.00  0.00    -0.313 A  
HETATM    5  C   UNL     1     -11.064  10.823  69.207  1.00  0.00    -0.312 A  
HETATM    6  C   UNL     1     -10.908  10.460  66.484  1.00  0.00    -0.098 A  
HETATM    7  C   UNL     1     -10.823   9.528  68.719  1.00  0.00    -0.173 A  
HETATM    8  C   UNL     1     -10.747   9.370  67.335  1.00  0.00    -0.280 A  
BRANCH   4   9
HETATM    9  C   UNL     1     -11.297  13.364  69.053  1.00  0.00    -0.335 C  
HETATM   10  C   UNL     1     -12.087  14.321  68.113  1.00  0.00    -0.275 C  
HETATM   11  C   UNL     1     -11.974  13.280  70.450  1.00  0.00    -0.350 C  
HETATM   12  C   UNL     1     -10.811  15.337  71.282  1.00  0.00    -0.084 C  
HETATM   13  C   UNL     1     -13.015  15.535  70.095  1.00  0.00    -0.035 C  
HETATM   14  C   UNL     1     -12.177  14.677  71.058  1.00  0.00    -0.399 C  
HETATM   15  C   UNL     1     -10.081  15.470  69.941  1.00  0.00    -0.282 C  
HETATM   16  C   UNL     1     -12.280  15.706  68.756  1.00  0.00     0.023 C  
HETATM   17  C   UNL     1     -10.911  16.357  69.004  1.00  0.00    -0.331 C  
HETATM   18  C   UNL     1      -9.914  14.078  69.302  1.00  0.00     0.173 C  
ENDBRANCH   4   9
BRANCH   7  19
HETATM   19  C   UNL     1     -10.599   8.400  69.643  1.00  0.00    -0.219 A  
HETATM   20  C   UNL     1      -9.757   5.268  72.370  1.00  0.00    -0.183 A  
HETATM   21  C   UNL     1      -9.789   6.128  70.092  1.00  0.00    -0.209 A  
HETATM   22  C   UNL     1     -10.632   7.490  71.912  1.00  0.00    -0.245 A  
HETATM   23  C   UNL     1     -10.876   8.529  71.015  1.00  0.00    -0.290 A  
HETATM   24  C   UNL     1     -10.073   7.176  69.199  1.00  0.00    -0.183 A  
HETATM   25  C   UNL     1     -10.072   6.292  71.466  1.00  0.00    -0.218 A  
HETATM   26  C   UNL     1      -9.166   4.084  71.916  1.00  0.00    -0.179 A  
HETATM   27  C   UNL     1      -8.883   3.923  70.556  1.00  0.00    -0.136 A  
HETATM   28  C   UNL     1      -8.752   3.008  72.851  1.00  0.00    -0.080 C  
HETATM   29  O   UNL     1      -7.794   2.285  72.639  1.00  0.00    -0.051 OA 
HETATM   30  C   UNL     1      -9.202   4.934  69.648  1.00  0.00    -0.172 A  
HETATM   31  O   UNL     1      -9.547   2.883  73.934  1.00  0.00    -0.087 OA 
ENDBRANCH   7  19
ENDBRANCH   2   3
TORSDOF 3
ENDMDL
MODEL       98
REMARK 921   NORMALIZED FREE ENERGY PREDICTED BY IDOCK:   -4.78 KCAL/MOL
REMARK 922        TOTAL FREE ENERGY PREDICTED BY IDOCK:   -6.40 KCAL/MOL
REMARK 923 INTER-LIGAND FREE ENERGY PREDICTED BY IDOCK:   -5.72 KCAL/MOL
REMARK 924 INTRA-LIGAND FREE ENERGY PREDICTED BY IDOCK:   -0.68 KCAL/MOL
REMARK 927      BINDING AFFINITY PREDICTED BY RF-SCORE:    0.00 PKD
ROOT
HETATM    1  C   UNL     1      -9.776   3.817  66.031  1.00  0.00    -0.125 C  
HETATM    2  O   UNL     1      -8.710   4.460  66.734  1.00  0.00    -0.111 OA 
ENDROOT
BRANCH   2   3
HETATM    3  C   UNL     1      -8.865   5.804  66.978  1.00  0.00    -0.112 A  
HETATM    4  C   UNL     1      -8.772   6.274  68.315  1.00  0.00    -0.115 A  
HETATM    5  C   UNL     1      -8.930   7.664  68.505  1.00  0.00    -0.129 A  
HETATM    6  C   UNL     1      -9.159   6.701  65.937  1.00  0.00    -0.059 A  
HETATM    7  C   UNL     1      -9.243   8.570  67.476  1.00  0.00    -0.151 A  
HETATM    8  C   UNL     1      -9.355   8.056  66.185  1.00  0.00    -0.212 A  
BRANCH   4   9
HETATM    9  C   UNL     1      -8.578   5.358  69.549  1.00  0.00    -0.103 C  
HETATM   10  C   UNL     1      -9.886   4.556  69.810  1.00  0.00    -0.295 C  
HETATM   11  C   UNL     1      -7.370   4.398  69.364  1.00  0.00    -0.051 C  
HETATM   12  C   UNL     1      -6.969   4.215  71.830  1.00  0.00    -0.045 C  
HETATM   13  C   UNL     1      -8.554   2.631  70.695  1.00  0.00    -0.104 C  
HETATM   14  C   UNL     1      -7.243   3.423  70.546  1.00  0.00    -0.037 C  
HETATM   15  C   UNL     1      -8.129   5.181  72.093  1.00  0.00    -0.113 C  
HETATM   16  C   UNL     1      -9.722   3.585  70.994  1.00  0.00    -0.225 C  
HETATM   17  C   UNL     1      -9.421   4.375  72.276  1.00  0.00    -0.183 C  
HETATM   18  C   UNL     1      -8.293   6.133  70.893  1.00  0.00    -0.127 C  
ENDBRANCH   4   9
BRANCH   7  19
HETATM   19  C   UNL     1      -9.502   9.991  67.773  1.00  0.00    -0.157 A  
HETATM   20  C   UNL     1     -10.096  14.058  68.805  1.00  0.00    -0.183 A  
HETATM   21  C   UNL     1     -10.875  11.751  68.791  1.00  0.00    -0.268 A  
HETATM   22  C   UNL     1      -8.774  12.324  67.726  1.00  0.00    -0.174 A  
HETATM   23  C   UNL     1      -8.568  10.981  67.418  1.00  0.00    -0.132 A  
HETATM   24  C   UNL     1     -10.664  10.405  68.443  1.00  0.00    -0.263 A  
HETATM   25  C   UNL     1      -9.914  12.720  68.429  1.00  0.00    -0.210 A  
HETATM   26  C   UNL     1     -11.226  14.437  69.537  1.00  0.00    -0.294 A  
HETATM   27  C   UNL     1     -12.176  13.477  69.899  1.00  0.00    -0.356 A  
HETATM   28  C   UNL     1     -11.419  15.829  70.015  1.00  0.00    -0.356 C  
HETATM   29  O   UNL     1     -12.002  16.093  71.052  1.00  0.00    -0.392 OA 
HETATM   30  C   UNL     1     -12.008  12.144  69.519  1.00  0.00    -0.338 A  
HETATM   31  O   UNL     1     -10.919  16.770  69.188  1.00  0.00    -0.301 OA 
ENDBRANCH   7  19
ENDBRANCH   2   3
TORSDOF 3
ENDMDL
MODEL       99
REMARK 921   NORMALIZED FREE ENERGY PREDICTED BY IDOCK:   -4.73 KCAL/MOL
REMARK 922        TOTAL FREE ENERGY PREDICTED BY IDOCK:   -6.34 KCAL/MOL
REMARK 923 INTER-LIGAND FREE ENERGY PREDICTED BY IDOCK:   -5.68 KCAL/MOL
REMARK 924 INTRA-LIGAND FREE ENERGY PREDICTED BY IDOCK:   -0.67 KCAL/MOL
REMARK 927      BINDING AFFINITY PREDICTED BY RF-SCORE:    0.00 PKD
ROOT
HETATM    1  C   UNL     1      -6.025  14.707  69.494  1.00  0.00    -0.106 C  
HETATM    2  O   UNL     1      -7.297  14.186  69.100  1.00  0.00    -0.122 OA 
ENDROOT
BRANCH   2   3
HETATM    3  C   UNL     1      -7.304  12.901  68.612  1.00  0.00    -0.099 A  
HETATM    4  C   UNL     1      -8.269  12.543  67.634  1.00  0.00    -0.172 A  
HETATM    5  C   UNL     1      -8.222  11.213  67.161  1.00  0.00    -0.137 A  
HETATM    6  C   UNL     1      -6.407  11.936  69.099  1.00  0.00    -0.092 A  
HETATM    7  C   UNL     1      -7.343  10.233  67.653  1.00  0.00    -0.088 A  
HETATM    8  C   UNL     1      -6.434  10.623  68.635  1.00  0.00    -0.051 A  
BRANCH   4   9
HETATM    9  C   UNL     1      -9.382  13.490  67.121  1.00  0.00    -0.240 C  
HETATM   10  C   UNL     1     -10.449  13.689  68.237  1.00  0.00    -0.253 C  
HETATM   11  C   UNL     1      -8.803  14.857  66.661  1.00  0.00    -0.287 C  
HETATM   12  C   UNL     1     -10.673  15.255  65.043  1.00  0.00    -0.461 C  
HETATM   13  C   UNL     1     -10.893  16.015  67.426  1.00  0.00    -0.277 C  
HETATM   14  C   UNL     1      -9.920  15.830  66.249  1.00  0.00    -0.315 C  
HETATM   15  C   UNL     1     -11.291  13.904  65.420  1.00  0.00    -0.311 C  
HETATM   16  C   UNL     1     -11.547  14.674  67.795  1.00  0.00    -0.382 C  
HETATM   17  C   UNL     1     -12.284  14.112  66.570  1.00  0.00    -0.463 C  
HETATM   18  C   UNL     1     -10.182  12.938  65.879  1.00  0.00    -0.299 C  
ENDBRANCH   4   9
BRANCH   7  19
HETATM   19  C   UNL     1      -7.430   8.836  67.186  1.00  0.00    -0.088 A  
HETATM   20  C   UNL     1      -7.672   4.904  65.625  1.00  0.00    -0.087 A  
HETATM   21  C   UNL     1      -8.746   6.837  66.646  1.00  0.00    -0.128 A  
HETATM   22  C   UNL     1      -6.356   6.857  66.234  1.00  0.00    -0.050 A  
HETATM   23  C   UNL     1      -6.288   8.162  66.718  1.00  0.00    -0.055 A  
HETATM   24  C   UNL     1      -8.651   8.142  67.160  1.00  0.00    -0.124 A  
HETATM   25  C   UNL     1      -7.582   6.190  66.175  1.00  0.00    -0.090 A  
HETATM   26  C   UNL     1      -8.911   4.259  65.541  1.00  0.00    -0.124 A  
HETATM   27  C   UNL     1     -10.064   4.901  66.004  1.00  0.00    -0.264 A  
HETATM   28  C   UNL     1      -9.058   2.929  64.900  1.00  0.00    -0.141 C  
HETATM   29  O   UNL     1     -10.068   2.592  64.308  1.00  0.00    -0.115 OA 
HETATM   30  C   UNL     1      -9.981   6.177  66.563  1.00  0.00    -0.179 A  
HETATM   31  O   UNL     1      -7.990   2.120  65.057  1.00  0.00    -0.076 OA 
ENDBRANCH   7  19
ENDBRANCH   2   3
TORSDOF 3
ENDMDL
MODEL      100
REMARK 921   NORMALIZED FREE ENERGY PREDICTED BY IDOCK:   -4.71 KCAL/MOL
REMARK 922        TOTAL FREE ENERGY PREDICTED BY IDOCK:   -6.32 KCAL/MOL
REMARK 923 INTER-LIGAND FREE ENERGY PREDICTED BY IDOCK:   -5.61 KCAL/MOL
REMARK 924 INTRA-LIGAND FREE ENERGY PREDICTED BY IDOCK:   -0.71 KCAL/MOL
REMARK 927      BINDING AFFINITY PREDICTED BY RF-SCORE:    0.00 PKD
ROOT
HETATM    1  C   UNL     1      -5.540  14.214  67.932  1.00  0.00    -0.093 C  
HETATM    2  O   UNL     1      -6.726  13.847  67.222  1.00  0.00    -0.237 OA 
ENDROOT
BRANCH   2   3
HETATM    3  C   UNL     1      -7.051  12.513  67.229  1.00  0.00    -0.112 A  
HETATM    4  C   UNL     1      -8.422  12.140  67.222  1.00  0.00    -0.178 A  
HETATM    5  C   UNL     1      -8.696  10.755  67.219  1.00  0.00    -0.130 A  
HETATM    6  C   UNL     1      -6.055  11.524  67.290  1.00  0.00    -0.100 A  
HETATM    7  C   UNL     1      -7.711   9.755  67.300  1.00  0.00    -0.095 A  
HETATM    8  C   UNL     1      -6.380  10.171  67.336  1.00  0.00    -0.066 A  
BRANCH   4   9
HETATM    9  C   UNL     1      -9.598  13.145  67.282  1.00  0.00    -0.233 C  
HETATM   10  C   UNL     1     -10.934  12.369  67.475  1.00  0.00    -0.293 C  
HETATM   11  C   UNL     1      -9.400  14.191  68.414  1.00  0.00    -0.208 C  
HETATM   12  C   UNL     1     -10.775  15.922  67.237  1.00  0.00    -0.306 C  
HETATM   13  C   UNL     1     -11.880  14.281  68.784  1.00  0.00    -0.377 C  
HETATM   14  C   UNL     1     -10.616  15.123  68.536  1.00  0.00    -0.237 C  
HETATM   15  C   UNL     1     -10.992  14.957  66.066  1.00  0.00    -0.334 C  
HETATM   16  C   UNL     1     -12.129  13.332  67.601  1.00  0.00    -0.295 C  
HETATM   17  C   UNL     1     -12.273  14.151  66.311  1.00  0.00    -0.474 C  
HETATM   18  C   UNL     1      -9.797  13.990  65.965  1.00  0.00    -0.316 C  
ENDBRANCH   4   9
BRANCH   7  19
HETATM   19  C   UNL     1      -8.084   8.332  67.405  1.00  0.00    -0.121 A  
HETATM   20  C   UNL     1      -9.315   4.304  67.867  1.00  0.00    -0.200 A  
HETATM   21  C   UNL     1      -7.709   6.081  68.306  1.00  0.00    -0.102 A  
HETATM   22  C   UNL     1      -9.643   6.516  66.909  1.00  0.00    -0.191 A  
HETATM   23  C   UNL     1      -9.250   7.847  66.787  1.00  0.00    -0.206 A  
HETATM   24  C   UNL     1      -7.314   7.421  68.145  1.00  0.00    -0.100 A  
HETATM   25  C   UNL     1      -8.891   5.627  67.681  1.00  0.00    -0.105 A  
HETATM   26  C   UNL     1      -8.572   3.432  68.669  1.00  0.00    -0.123 A  
HETATM   27  C   UNL     1      -7.404   3.883  69.292  1.00  0.00    -0.053 A  
HETATM   28  C   UNL     1      -9.025   2.047  68.948  1.00  0.00    -0.110 C  
HETATM   29  O   UNL     1      -8.786   1.476  69.998  1.00  0.00    -0.047 OA 
HETATM   30  C   UNL     1      -6.969   5.196  69.103  1.00  0.00    -0.055 A  
HETATM   31  O   UNL     1      -9.697   1.471  67.930  1.00  0.00    -0.111 OA 
ENDBRANCH   7  19
ENDBRANCH   2   3
TORSDOF 3
ENDMDL
MODEL      101
REMARK 921   NORMALIZED FREE ENERGY PREDICTED BY IDOCK:   -4.65 KCAL/MOL
REMARK 922        TOTAL FREE ENERGY PREDICTED BY IDOCK:   -6.25 KCAL/MOL
REMARK 923 INTER-LIGAND FREE ENERGY PREDICTED BY IDOCK:   -6.05 KCAL/MOL
REMARK 924 INTRA-LIGAND FREE ENERGY PREDICTED BY IDOCK:   -0.20 KCAL/MOL
REMARK 927      BINDING AFFINITY PREDICTED BY RF-SCORE:    0.00 PKD
ROOT
HETATM    1  C   UNL     1     -12.005  13.866  63.438  1.00  0.00     0.126 C  
HETATM    2  O   UNL     1     -11.759  14.272  64.787  1.00  0.00    -0.373 OA 
ENDROOT
BRANCH   2   3
HETATM    3  C   UNL     1     -11.312  13.295  65.643  1.00  0.00    -0.304 A  
HETATM    4  C   UNL     1     -10.498  13.669  66.747  1.00  0.00    -0.270 A  
HETATM    5  C   UNL     1     -10.077  12.625  67.599  1.00  0.00    -0.218 A  
HETATM    6  C   UNL     1     -11.607  11.940  65.417  1.00  0.00    -0.284 A  
HETATM    7  C   UNL     1     -10.348  11.265  67.374  1.00  0.00    -0.233 A  
HETATM    8  C   UNL     1     -11.124  10.944  66.260  1.00  0.00    -0.038 A  
BRANCH   4   9
HETATM    9  C   UNL     1     -10.010  15.113  67.018  1.00  0.00    -0.242 C  
HETATM   10  C   UNL     1     -10.604  15.616  68.367  1.00  0.00    -0.252 C  
HETATM   11  C   UNL     1      -8.458  15.199  67.033  1.00  0.00    -0.259 C  
HETATM   12  C   UNL     1      -8.454  17.605  66.336  1.00  0.00    -0.279 C  
HETATM   13  C   UNL     1      -8.561  17.005  68.772  1.00  0.00    -0.238 C  
HETATM   14  C   UNL     1      -7.979  16.612  67.404  1.00  0.00    -0.186 C  
HETATM   15  C   UNL     1      -9.985  17.592  66.269  1.00  0.00    -0.316 C  
HETATM   16  C   UNL     1     -10.097  17.029  68.711  1.00  0.00    -0.307 C  
HETATM   17  C   UNL     1     -10.550  18.020  67.629  1.00  0.00    -0.413 C  
HETATM   18  C   UNL     1     -10.475  16.169  65.943  1.00  0.00    -0.366 C  
ENDBRANCH   4   9
BRANCH   7  19
HETATM   19  C   UNL     1      -9.778  10.224  68.250  1.00  0.00    -0.154 A  
HETATM   20  C   UNL     1      -7.957   7.378  70.807  1.00  0.00    -0.104 A  
HETATM   21  C   UNL     1      -8.501   8.153  68.563  1.00  0.00    -0.127 A  
HETATM   22  C   UNL     1      -9.290   9.388  70.494  1.00  0.00    -0.319 A  
HETATM   23  C   UNL     1      -9.859  10.339  69.649  1.00  0.00    -0.230 A  
HETATM   24  C   UNL     1      -9.109   9.105  67.727  1.00  0.00    -0.135 A  
HETATM   25  C   UNL     1      -8.593   8.301  69.965  1.00  0.00    -0.128 A  
HETATM   26  C   UNL     1      -7.233   6.311  70.264  1.00  0.00    -0.083 A  
HETATM   27  C   UNL     1      -7.139   6.166  68.877  1.00  0.00    -0.081 A  
HETATM   28  C   UNL     1      -6.488   5.355  71.121  1.00  0.00    -0.035 C  
HETATM   29  O   UNL     1      -5.457   4.816  70.760  1.00  0.00    -0.007 OA 
HETATM   30  C   UNL     1      -7.778   7.075  68.031  1.00  0.00    -0.113 A  
HETATM   31  O   UNL     1      -7.067   5.118  72.316  1.00  0.00    -0.078 OA 
ENDBRANCH   7  19
ENDBRANCH   2   3
TORSDOF 3
ENDMDL
MODEL      102
REMARK 921   NORMALIZED FREE ENERGY PREDICTED BY IDOCK:   -4.51 KCAL/MOL
REMARK 922        TOTAL FREE ENERGY PREDICTED BY IDOCK:   -6.09 KCAL/MOL
REMARK 923 INTER-LIGAND FREE ENERGY PREDICTED BY IDOCK:   -5.59 KCAL/MOL
REMARK 924 INTRA-LIGAND FREE ENERGY PREDICTED BY IDOCK:   -0.50 KCAL/MOL
REMARK 927      BINDING AFFINITY PREDICTED BY RF-SCORE:    0.00 PKD
ROOT
HETATM    1  C   UNL     1      -5.425  14.868  68.004  1.00  0.00    -0.129 C  
HETATM    2  O   UNL     1      -6.802  14.485  68.043  1.00  0.00    -0.113 OA 
ENDROOT
BRANCH   2   3
HETATM    3  C   UNL     1      -7.058  13.135  68.048  1.00  0.00    -0.115 A  
HETATM    4  C   UNL     1      -8.296  12.669  67.529  1.00  0.00    -0.177 A  
HETATM    5  C   UNL     1      -8.500  11.272  67.550  1.00  0.00    -0.131 A  
HETATM    6  C   UNL     1      -6.140  12.224  68.597  1.00  0.00    -0.057 A  
HETATM    7  C   UNL     1      -7.600  10.352  68.113  1.00  0.00    -0.091 A  
HETATM    8  C   UNL     1      -6.412  10.859  68.638  1.00  0.00    -0.055 A  
BRANCH   4   9
HETATM    9  C   UNL     1      -9.429  13.593  67.017  1.00  0.00    -0.252 C  
HETATM   10  C   UNL     1     -10.209  12.873  65.878  1.00  0.00    -0.299 C  
HETATM   11  C   UNL     1     -10.389  14.011  68.165  1.00  0.00    -0.241 C  
HETATM   12  C   UNL     1     -11.035  16.146  67.024  1.00  0.00    -0.123 C  
HETATM   13  C   UNL     1     -12.318  14.037  66.560  1.00  0.00    -0.442 C  
HETATM   14  C   UNL     1     -11.568  14.843  67.634  1.00  0.00    -0.357 C  
HETATM   15  C   UNL     1     -10.085  15.818  65.867  1.00  0.00    -0.381 C  
HETATM   16  C   UNL     1     -11.386  13.730  65.376  1.00  0.00    -0.314 C  
HETATM   17  C   UNL     1     -10.856  15.046  64.789  1.00  0.00    -0.375 C  
HETATM   18  C   UNL     1      -8.925  14.946  66.382  1.00  0.00    -0.254 C  
ENDBRANCH   4   9
BRANCH   7  19
HETATM   19  C   UNL     1      -7.936   8.918  68.196  1.00  0.00    -0.102 A  
HETATM   20  C   UNL     1      -8.670   4.751  68.433  1.00  0.00    -0.112 A  
HETATM   21  C   UNL     1      -8.609   6.811  67.135  1.00  0.00    -0.120 A  
HETATM   22  C   UNL     1      -8.080   6.855  69.501  1.00  0.00    -0.130 A  
HETATM   23  C   UNL     1      -7.808   8.219  69.410  1.00  0.00    -0.104 A  
HETATM   24  C   UNL     1      -8.361   8.193  67.071  1.00  0.00    -0.116 A  
HETATM   25  C   UNL     1      -8.463   6.136  68.367  1.00  0.00    -0.114 A  
HETATM   26  C   UNL     1      -9.022   4.036  67.283  1.00  0.00    -0.148 A  
HETATM   27  C   UNL     1      -9.163   4.704  66.063  1.00  0.00    -0.144 A  
HETATM   28  C   UNL     1      -9.179   2.560  67.297  1.00  0.00    -0.130 C  
HETATM   29  O   UNL     1      -8.922   1.863  66.332  1.00  0.00    -0.124 OA 
HETATM   30  C   UNL     1      -8.969   6.084  65.991  1.00  0.00    -0.157 A  
HETATM   31  O   UNL     1      -9.658   2.068  68.458  1.00  0.00    -0.184 OA 
ENDBRANCH   7  19
ENDBRANCH   2   3
TORSDOF 3
ENDMDL
MODEL      103
REMARK 921   NORMALIZED FREE ENERGY PREDICTED BY IDOCK:   -4.49 KCAL/MOL
REMARK 922        TOTAL FREE ENERGY PREDICTED BY IDOCK:   -6.07 KCAL/MOL
REMARK 923 INTER-LIGAND FREE ENERGY PREDICTED BY IDOCK:   -5.76 KCAL/MOL
REMARK 924 INTRA-LIGAND FREE ENERGY PREDICTED BY IDOCK:   -0.31 KCAL/MOL
REMARK 927      BINDING AFFINITY PREDICTED BY RF-SCORE:    0.00 PKD
ROOT
HETATM    1  C   UNL     1      -6.080  14.280  67.860  1.00  0.00    -0.148 C  
HETATM    2  O   UNL     1      -7.366  13.654  67.845  1.00  0.00    -0.113 OA 
ENDROOT
BRANCH   2   3
HETATM    3  C   UNL     1      -7.420  12.390  67.309  1.00  0.00    -0.135 A  
HETATM    4  C   UNL     1      -8.548  12.024  66.526  1.00  0.00    -0.100 A  
HETATM    5  C   UNL     1      -8.545  10.717  65.991  1.00  0.00    -0.181 A  
HETATM    6  C   UNL     1      -6.407  11.450  67.562  1.00  0.00    -0.069 A  
HETATM    7  C   UNL     1      -7.549   9.761  66.253  1.00  0.00    -0.100 A  
HETATM    8  C   UNL     1      -6.477  10.156  67.052  1.00  0.00    -0.069 A  
BRANCH   4   9
HETATM    9  C   UNL     1      -9.777  12.937  66.289  1.00  0.00    -0.268 C  
HETATM   10  C   UNL     1     -10.207  12.849  64.795  1.00  0.00    -0.307 C  
HETATM   11  C   UNL     1     -10.958  12.561  67.226  1.00  0.00    -0.300 C  
HETATM   12  C   UNL     1     -11.902  14.881  67.182  1.00  0.00    -0.229 C  
HETATM   13  C   UNL     1     -12.598  13.210  65.441  1.00  0.00    -0.512 C  
HETATM   14  C   UNL     1     -12.208  13.402  66.917  1.00  0.00    -0.343 C  
HETATM   15  C   UNL     1     -10.750  15.336  66.280  1.00  0.00    -0.315 C  
HETATM   16  C   UNL     1     -11.464  13.695  64.523  1.00  0.00    -0.401 C  
HETATM   17  C   UNL     1     -11.168  15.173  64.814  1.00  0.00    -0.396 C  
HETATM   18  C   UNL     1      -9.507  14.468  66.551  1.00  0.00    -0.310 C  
ENDBRANCH   4   9
BRANCH   7  19
HETATM   19  C   UNL     1      -7.674   8.380  65.748  1.00  0.00    -0.094 A  
HETATM   20  C   UNL     1      -8.124   4.503  64.100  1.00  0.00    -0.100 A  
HETATM   21  C   UNL     1      -8.882   6.249  65.619  1.00  0.00    -0.086 A  
HETATM   22  C   UNL     1      -6.883   6.586  64.288  1.00  0.00    -0.042 A  
HETATM   23  C   UNL     1      -6.759   7.873  64.809  1.00  0.00    -0.051 A  
HETATM   24  C   UNL     1      -8.720   7.538  66.157  1.00  0.00    -0.174 A  
HETATM   25  C   UNL     1      -7.950   5.771  64.671  1.00  0.00    -0.122 A  
HETATM   26  C   UNL     1      -9.216   3.708  64.467  1.00  0.00    -0.141 A  
HETATM   27  C   UNL     1     -10.140   4.183  65.403  1.00  0.00    -0.207 A  
HETATM   28  C   UNL     1      -9.473   2.391  63.833  1.00  0.00    -0.120 C  
HETATM   29  O   UNL     1     -10.597   1.949  63.670  1.00  0.00    -0.136 OA 
HETATM   30  C   UNL     1      -9.968   5.440  65.984  1.00  0.00    -0.118 A  
HETATM   31  O   UNL     1      -8.356   1.720  63.483  1.00  0.00    -0.071 OA 
ENDBRANCH   7  19
ENDBRANCH   2   3
TORSDOF 3
ENDMDL
MODEL      104
REMARK 921   NORMALIZED FREE ENERGY PREDICTED BY IDOCK:   -4.47 KCAL/MOL
REMARK 922        TOTAL FREE ENERGY PREDICTED BY IDOCK:   -6.04 KCAL/MOL
REMARK 923 INTER-LIGAND FREE ENERGY PREDICTED BY IDOCK:   -5.28 KCAL/MOL
REMARK 924 INTRA-LIGAND FREE ENERGY PREDICTED BY IDOCK:   -0.76 KCAL/MOL
REMARK 927      BINDING AFFINITY PREDICTED BY RF-SCORE:    0.00 PKD
ROOT
HETATM    1  C   UNL     1      -6.160  15.469  69.866  1.00  0.00    -0.157 C  
HETATM    2  O   UNL     1      -6.981  15.131  68.745  1.00  0.00    -0.102 OA 
ENDROOT
BRANCH   2   3
HETATM    3  C   UNL     1      -6.981  13.810  68.368  1.00  0.00    -0.103 A  
HETATM    4  C   UNL     1      -8.054  13.324  67.573  1.00  0.00    -0.187 A  
HETATM    5  C   UNL     1      -7.996  11.961  67.206  1.00  0.00    -0.171 A  
HETATM    6  C   UNL     1      -5.970  12.933  68.794  1.00  0.00    -0.072 A  
HETATM    7  C   UNL     1      -7.002  11.069  67.642  1.00  0.00    -0.083 A  
HETATM    8  C   UNL     1      -5.987  11.586  68.447  1.00  0.00    -0.045 A  
BRANCH   4   9
HETATM    9  C   UNL     1      -9.281  14.170  67.153  1.00  0.00    -0.237 C  
HETATM   10  C   UNL     1     -10.149  13.360  66.146  1.00  0.00    -0.304 C  
HETATM   11  C   UNL     1     -10.125  14.604  68.384  1.00  0.00    -0.237 C  
HETATM   12  C   UNL     1     -10.999  16.648  67.230  1.00  0.00    -0.064 C  
HETATM   13  C   UNL     1     -12.221  14.464  67.012  1.00  0.00    -0.274 C  
HETATM   14  C   UNL     1     -11.395  15.356  67.955  1.00  0.00    -0.345 C  
HETATM   15  C   UNL     1     -10.171  16.304  65.987  1.00  0.00    -0.376 C  
HETATM   16  C   UNL     1     -11.415  14.139  65.745  1.00  0.00    -0.327 C  
HETATM   17  C   UNL     1     -11.020  15.445  65.041  1.00  0.00    -0.450 C  
HETATM   18  C   UNL     1      -8.919  15.510  66.403  1.00  0.00    -0.359 C  
ENDBRANCH   4   9
BRANCH   7  19
HETATM   19  C   UNL     1      -7.073   9.634  67.307  1.00  0.00    -0.086 A  
HETATM   20  C   UNL     1      -7.271   5.572  66.117  1.00  0.00    -0.077 A  
HETATM   21  C   UNL     1      -8.365   7.578  66.959  1.00  0.00    -0.121 A  
HETATM   22  C   UNL     1      -5.977   7.588  66.538  1.00  0.00    -0.040 A  
HETATM   23  C   UNL     1      -5.924   8.933  66.899  1.00  0.00    -0.057 A  
HETATM   24  C   UNL     1      -8.285   8.926  67.350  1.00  0.00    -0.108 A  
HETATM   25  C   UNL     1      -7.195   6.904  66.546  1.00  0.00    -0.072 A  
HETATM   26  C   UNL     1      -8.501   4.907  66.098  1.00  0.00    -0.112 A  
HETATM   27  C   UNL     1      -9.661   5.575  66.504  1.00  0.00    -0.169 A  
HETATM   28  C   UNL     1      -8.634   3.521  65.584  1.00  0.00    -0.115 C  
HETATM   29  O   UNL     1      -9.642   3.119  65.029  1.00  0.00    -0.153 OA 
HETATM   30  C   UNL     1      -9.592   6.898  66.942  1.00  0.00    -0.205 A  
HETATM   31  O   UNL     1      -7.555   2.743  65.811  1.00  0.00    -0.071 OA 
ENDBRANCH   7  19
ENDBRANCH   2   3
TORSDOF 3
ENDMDL
MODEL      105
REMARK 921   NORMALIZED FREE ENERGY PREDICTED BY IDOCK:   -4.40 KCAL/MOL
REMARK 922        TOTAL FREE ENERGY PREDICTED BY IDOCK:   -5.96 KCAL/MOL
REMARK 923 INTER-LIGAND FREE ENERGY PREDICTED BY IDOCK:   -5.30 KCAL/MOL
REMARK 924 INTRA-LIGAND FREE ENERGY PREDICTED BY IDOCK:   -0.66 KCAL/MOL
REMARK 927      BINDING AFFINITY PREDICTED BY RF-SCORE:    0.00 PKD
ROOT
HETATM    1  C   UNL     1      -5.291  15.694  68.972  1.00  0.00    -0.103 C  
HETATM    2  O   UNL     1      -6.415  15.079  69.608  1.00  0.00    -0.130 OA 
ENDROOT
BRANCH   2   3
HETATM    3  C   UNL     1      -6.713  13.798  69.210  1.00  0.00    -0.101 A  
HETATM    4  C   UNL     1      -7.871  13.577  68.417  1.00  0.00    -0.143 A  
HETATM    5  C   UNL     1      -8.122  12.243  68.028  1.00  0.00    -0.156 A  
HETATM    6  C   UNL     1      -5.921  12.710  69.613  1.00  0.00    -0.122 A  
HETATM    7  C   UNL     1      -7.349  11.143  68.440  1.00  0.00    -0.094 A  
HETATM    8  C   UNL     1      -6.240  11.406  69.244  1.00  0.00    -0.073 A  
BRANCH   4   9
HETATM    9  C   UNL     1      -8.880  14.684  68.022  1.00  0.00    -0.169 C  
HETATM   10  C   UNL     1      -8.312  15.499  66.824  1.00  0.00    -0.301 C  
HETATM   11  C   UNL     1     -10.273  14.090  67.674  1.00  0.00    -0.241 C  
HETATM   12  C   UNL     1     -11.475  16.192  68.312  1.00  0.00    -0.259 C  
HETATM   13  C   UNL     1     -10.630  15.894  65.966  1.00  0.00    -0.331 C  
HETATM   14  C   UNL     1     -11.241  15.180  67.185  1.00  0.00    -0.320 C  
HETATM   15  C   UNL     1     -10.143  16.838  68.706  1.00  0.00    -0.286 C  
HETATM   16  C   UNL     1      -9.308  16.575  66.355  1.00  0.00    -0.316 C  
HETATM   17  C   UNL     1      -9.565  17.575  67.492  1.00  0.00    -0.265 C  
HETATM   18  C   UNL     1      -9.152  15.747  69.154  1.00  0.00    -0.262 C  
ENDBRANCH   4   9
BRANCH   7  19
HETATM   19  C   UNL     1      -7.741   9.767  68.084  1.00  0.00    -0.082 A  
HETATM   20  C   UNL     1      -9.084   5.860  67.139  1.00  0.00    -0.113 A  
HETATM   21  C   UNL     1      -7.841   7.369  68.592  1.00  0.00    -0.122 A  
HETATM   22  C   UNL     1      -8.917   8.225  66.595  1.00  0.00    -0.179 A  
HETATM   23  C   UNL     1      -8.501   9.513  66.928  1.00  0.00    -0.128 A  
HETATM   24  C   UNL     1      -7.403   8.670  68.893  1.00  0.00    -0.082 A  
HETATM   25  C   UNL     1      -8.610   7.147  67.428  1.00  0.00    -0.121 A  
HETATM   26  C   UNL     1      -8.797   4.794  67.998  1.00  0.00    -0.115 A  
HETATM   27  C   UNL     1      -8.039   5.014  69.152  1.00  0.00    -0.083 A  
HETATM   28  C   UNL     1      -9.341   3.433  67.765  1.00  0.00    -0.194 C  
HETATM   29  O   UNL     1      -9.612   2.669  68.674  1.00  0.00    -0.165 OA 
HETATM   30  C   UNL     1      -7.554   6.291  69.442  1.00  0.00    -0.098 A  
HETATM   31  O   UNL     1      -9.477   3.110  66.462  1.00  0.00    -0.144 OA 
ENDBRANCH   7  19
ENDBRANCH   2   3
TORSDOF 3
ENDMDL
MODEL      106
REMARK 921   NORMALIZED FREE ENERGY PREDICTED BY IDOCK:   -4.32 KCAL/MOL
REMARK 922        TOTAL FREE ENERGY PREDICTED BY IDOCK:   -5.87 KCAL/MOL
REMARK 923 INTER-LIGAND FREE ENERGY PREDICTED BY IDOCK:   -5.21 KCAL/MOL
REMARK 924 INTRA-LIGAND FREE ENERGY PREDICTED BY IDOCK:   -0.66 KCAL/MOL
REMARK 927      BINDING AFFINITY PREDICTED BY RF-SCORE:    0.00 PKD
ROOT
HETATM    1  C   UNL     1      -5.387  18.378  70.762  1.00  0.00    -0.253 C  
HETATM    2  O   UNL     1      -6.286  18.280  69.655  1.00  0.00    -0.251 OA 
ENDROOT
BRANCH   2   3
HETATM    3  C   UNL     1      -6.535  17.013  69.185  1.00  0.00    -0.221 A  
HETATM    4  C   UNL     1      -7.539  16.832  68.196  1.00  0.00    -0.177 A  
HETATM    5  C   UNL     1      -7.744  15.511  67.743  1.00  0.00    -0.156 A  
HETATM    6  C   UNL     1      -5.848  15.900  69.699  1.00  0.00    -0.143 A  
HETATM    7  C   UNL     1      -7.079  14.387  68.262  1.00  0.00    -0.112 A  
HETATM    8  C   UNL     1      -6.124  14.611  69.253  1.00  0.00    -0.107 A  
BRANCH   4   9
HETATM    9  C   UNL     1      -8.441  17.968  67.653  1.00  0.00    -0.239 C  
HETATM   10  C   UNL     1      -9.275  18.571  68.821  1.00  0.00    -0.292 C  
HETATM   11  C   UNL     1      -7.606  19.072  66.945  1.00  0.00    -0.244 C  
HETATM   12  C   UNL     1      -9.511  19.746  65.464  1.00  0.00     0.331 C  
HETATM   13  C   UNL     1      -9.234  20.818  67.718  1.00  0.00    -0.176 C  
HETATM   14  C   UNL     1      -8.493  20.245  66.498  1.00  0.00    -0.262 C  
HETATM   15  C   UNL     1     -10.389  18.659  66.093  1.00  0.00    -0.481 C  
HETATM   16  C   UNL     1     -10.145  19.747  68.340  1.00  0.00    -0.568 C  
HETATM   17  C   UNL     1     -11.147  19.255  67.286  1.00  0.00    -0.273 C  
HETATM   18  C   UNL     1      -9.503  17.499  66.585  1.00  0.00    -0.285 C  
ENDBRANCH   4   9
BRANCH   7  19
HETATM   19  C   UNL     1      -7.430  13.026  67.814  1.00  0.00    -0.146 A  
HETATM   20  C   UNL     1      -8.380   9.038  66.742  1.00  0.00    -0.115 A  
HETATM   21  C   UNL     1      -6.858  10.937  66.661  1.00  0.00    -0.127 A  
HETATM   22  C   UNL     1      -8.980  11.136  67.817  1.00  0.00    -0.139 A  
HETATM   23  C   UNL     1      -8.648  12.435  68.194  1.00  0.00    -0.185 A  
HETATM   24  C   UNL     1      -6.555  12.261  67.025  1.00  0.00    -0.046 A  
HETATM   25  C   UNL     1      -8.086  10.370  67.066  1.00  0.00    -0.116 A  
HETATM   26  C   UNL     1      -7.462   8.270  66.018  1.00  0.00    -0.077 A  
HETATM   27  C   UNL     1      -6.245   8.830  65.620  1.00  0.00    -0.052 A  
HETATM   28  C   UNL     1      -7.706   6.837  65.717  1.00  0.00    -0.096 C  
HETATM   29  O   UNL     1      -6.805   6.022  65.628  1.00  0.00    -0.053 OA 
HETATM   30  C   UNL     1      -5.948  10.159  65.930  1.00  0.00    -0.084 A  
HETATM   31  O   UNL     1      -9.005   6.527  65.524  1.00  0.00    -0.064 OA 
ENDBRANCH   7  19
ENDBRANCH   2   3
TORSDOF 3
ENDMDL
MODEL      107
REMARK 921   NORMALIZED FREE ENERGY PREDICTED BY IDOCK:   -4.19 KCAL/MOL
REMARK 922        TOTAL FREE ENERGY PREDICTED BY IDOCK:   -5.71 KCAL/MOL
REMARK 923 INTER-LIGAND FREE ENERGY PREDICTED BY IDOCK:   -4.95 KCAL/MOL
REMARK 924 INTRA-LIGAND FREE ENERGY PREDICTED BY IDOCK:   -0.77 KCAL/MOL
REMARK 927      BINDING AFFINITY PREDICTED BY RF-SCORE:    0.00 PKD
ROOT
HETATM    1  C   UNL     1      -6.139   4.659  62.819  1.00  0.00    -0.017 C  
HETATM    2  O   UNL     1      -7.373   4.774  63.532  1.00  0.00    -0.051 OA 
ENDROOT
BRANCH   2   3
HETATM    3  C   UNL     1      -7.723   6.038  63.941  1.00  0.00    -0.101 A  
HETATM    4  C   UNL     1      -8.030   6.256  65.311  1.00  0.00    -0.117 A  
HETATM    5  C   UNL     1      -8.372   7.576  65.676  1.00  0.00    -0.144 A  
HETATM    6  C   UNL     1      -7.825   7.096  63.022  1.00  0.00    -0.118 A  
HETATM    7  C   UNL     1      -8.498   8.639  64.765  1.00  0.00    -0.168 A  
HETATM    8  C   UNL     1      -8.216   8.369  63.426  1.00  0.00    -0.114 A  
BRANCH   4   9
HETATM    9  C   UNL     1      -8.071   5.138  66.383  1.00  0.00    -0.108 C  
HETATM   10  C   UNL     1      -8.297   5.775  67.786  1.00  0.00    -0.104 C  
HETATM   11  C   UNL     1      -9.171   4.086  66.071  1.00  0.00    -0.153 C  
HETATM   12  C   UNL     1      -7.956   2.262  67.283  1.00  0.00    -0.066 C  
HETATM   13  C   UNL     1      -9.559   3.744  68.526  1.00  0.00    -0.174 C  
HETATM   14  C   UNL     1      -9.277   3.037  67.189  1.00  0.00    -0.204 C  
HETATM   15  C   UNL     1      -6.815   3.233  67.606  1.00  0.00    -0.049 C  
HETATM   16  C   UNL     1      -8.405   4.696  68.880  1.00  0.00    -0.085 C  
HETATM   17  C   UNL     1      -7.093   3.902  68.957  1.00  0.00    -0.047 C  
HETATM   18  C   UNL     1      -6.732   4.315  66.513  1.00  0.00    -0.050 C  
ENDBRANCH   4   9
BRANCH   7  19
HETATM   19  C   UNL     1      -8.969   9.964  65.208  1.00  0.00    -0.228 A  
HETATM   20  C   UNL     1     -10.201  13.868  66.303  1.00  0.00    -0.299 A  
HETATM   21  C   UNL     1      -8.785  11.922  66.675  1.00  0.00    -0.185 A  
HETATM   22  C   UNL     1     -10.436  11.895  64.900  1.00  0.00    -0.331 A  
HETATM   23  C   UNL     1     -10.005  10.625  64.523  1.00  0.00    -0.410 A  
HETATM   24  C   UNL     1      -8.386  10.627  66.300  1.00  0.00    -0.155 A  
HETATM   25  C   UNL     1      -9.822  12.562  65.962  1.00  0.00    -0.266 A  
HETATM   26  C   UNL     1      -9.557  14.539  67.348  1.00  0.00    -0.212 A  
HETATM   27  C   UNL     1      -8.527  13.906  68.052  1.00  0.00    -0.173 A  
HETATM   28  C   UNL     1      -9.880  15.946  67.692  1.00  0.00    -0.233 C  
HETATM   29  O   UNL     1      -9.051  16.720  68.136  1.00  0.00    -0.216 OA 
HETATM   30  C   UNL     1      -8.151  12.602  67.725  1.00  0.00    -0.166 A  
HETATM   31  O   UNL     1     -11.173  16.278  67.497  1.00  0.00    -0.204 OA 
ENDBRANCH   7  19
ENDBRANCH   2   3
TORSDOF 3
ENDMDL
MODEL      108
REMARK 921   NORMALIZED FREE ENERGY PREDICTED BY IDOCK:   -3.95 KCAL/MOL
REMARK 922        TOTAL FREE ENERGY PREDICTED BY IDOCK:   -5.43 KCAL/MOL
REMARK 923 INTER-LIGAND FREE ENERGY PREDICTED BY IDOCK:   -5.00 KCAL/MOL
REMARK 924 INTRA-LIGAND FREE ENERGY PREDICTED BY IDOCK:   -0.43 KCAL/MOL
REMARK 927      BINDING AFFINITY PREDICTED BY RF-SCORE:    0.00 PKD
ROOT
HETATM    1  C   UNL     1      -7.080  15.030  67.814  1.00  0.00    -0.170 C  
HETATM    2  O   UNL     1      -8.263  14.265  68.057  1.00  0.00    -0.133 OA 
ENDROOT
BRANCH   2   3
HETATM    3  C   UNL     1      -8.119  12.899  68.040  1.00  0.00    -0.159 A  
HETATM    4  C   UNL     1      -8.953  12.131  67.185  1.00  0.00    -0.189 A  
HETATM    5  C   UNL     1      -8.753  10.733  67.201  1.00  0.00    -0.131 A  
HETATM    6  C   UNL     1      -7.197  12.257  68.884  1.00  0.00    -0.069 A  
HETATM    7  C   UNL     1      -7.849  10.076  68.054  1.00  0.00    -0.089 A  
HETATM    8  C   UNL     1      -7.074  10.870  68.898  1.00  0.00    -0.090 A  
BRANCH   4   9
HETATM    9  C   UNL     1     -10.085  12.724  66.309  1.00  0.00    -0.267 C  
HETATM   10  C   UNL     1     -10.734  13.930  67.049  1.00  0.00    -0.283 C  
HETATM   11  C   UNL     1      -9.560  13.152  64.910  1.00  0.00     0.254 C  
HETATM   12  C   UNL     1     -11.797  12.833  63.828  1.00  0.00    -0.572 C  
HETATM   13  C   UNL     1     -11.206  15.046  64.858  1.00  0.00    -0.423 C  
HETATM   14  C   UNL     1     -10.662  13.833  64.083  1.00  0.00    -0.055 C  
HETATM   15  C   UNL     1     -12.381  12.370  65.167  1.00  0.00    -0.403 C  
HETATM   16  C   UNL     1     -11.827  14.593  66.190  1.00  0.00    -0.282 C  
HETATM   17  C   UNL     1     -12.951  13.584  65.912  1.00  0.00    -0.078 C  
HETATM   18  C   UNL     1     -11.273  11.728  66.021  1.00  0.00    -0.352 C  
ENDBRANCH   4   9
BRANCH   7  19
HETATM   19  C   UNL     1      -7.778   8.603  68.091  1.00  0.00    -0.102 A  
HETATM   20  C   UNL     1      -7.655   4.369  67.975  1.00  0.00    -0.069 A  
HETATM   21  C   UNL     1      -8.730   6.428  68.707  1.00  0.00    -0.122 A  
HETATM   22  C   UNL     1      -6.670   6.526  67.432  1.00  0.00    -0.067 A  
HETATM   23  C   UNL     1      -6.733   7.918  67.445  1.00  0.00    -0.069 A  
HETATM   24  C   UNL     1      -8.759   7.833  68.736  1.00  0.00    -0.128 A  
HETATM   25  C   UNL     1      -7.672   5.769  68.043  1.00  0.00    -0.096 A  
HETATM   26  C   UNL     1      -8.681   3.622  68.562  1.00  0.00    -0.137 A  
HETATM   27  C   UNL     1      -9.731   4.274  69.216  1.00  0.00    -0.240 A  
HETATM   28  C   UNL     1      -8.737   2.143  68.449  1.00  0.00    -0.091 C  
HETATM   29  O   UNL     1      -9.786   1.526  68.414  1.00  0.00    -0.136 OA 
HETATM   30  C   UNL     1      -9.750   5.668  69.298  1.00  0.00    -0.205 A  
HETATM   31  O   UNL     1      -7.527   1.547  68.420  1.00  0.00    -0.046 OA 
ENDBRANCH   7  19
ENDBRANCH   2   3
TORSDOF 3
ENDMDL
MODEL      109
REMARK 921   NORMALIZED FREE ENERGY PREDICTED BY IDOCK:   -3.90 KCAL/MOL
REMARK 922        TOTAL FREE ENERGY PREDICTED BY IDOCK:   -5.37 KCAL/MOL
REMARK 923 INTER-LIGAND FREE ENERGY PREDICTED BY IDOCK:   -5.19 KCAL/MOL
REMARK 924 INTRA-LIGAND FREE ENERGY PREDICTED BY IDOCK:   -0.18 KCAL/MOL
REMARK 927      BINDING AFFINITY PREDICTED BY RF-SCORE:    0.00 PKD
ROOT
HETATM    1  C   UNL     1      -8.200  15.188  68.368  1.00  0.00    -0.145 C  
HETATM    2  O   UNL     1      -7.964  14.162  67.401  1.00  0.00    -0.175 OA 
ENDROOT
BRANCH   2   3
HETATM    3  C   UNL     1      -8.130  12.869  67.834  1.00  0.00    -0.161 A  
HETATM    4  C   UNL     1      -9.201  12.099  67.304  1.00  0.00    -0.185 A  
HETATM    5  C   UNL     1      -9.317  10.774  67.778  1.00  0.00    -0.158 A  
HETATM    6  C   UNL     1      -7.292  12.320  68.819  1.00  0.00    -0.083 A  
HETATM    7  C   UNL     1      -8.498  10.219  68.776  1.00  0.00    -0.130 A  
HETATM    8  C   UNL     1      -7.480  11.023  69.288  1.00  0.00    -0.100 A  
BRANCH   4   9
HETATM    9  C   UNL     1     -10.257  12.644  66.311  1.00  0.00    -0.264 C  
HETATM   10  C   UNL     1      -9.747  12.449  64.853  1.00  0.00    -0.019 C  
HETATM   11  C   UNL     1     -11.637  11.958  66.509  1.00  0.00    -0.328 C  
HETATM   12  C   UNL     1     -12.895  13.933  65.621  1.00  0.00    -0.467 C  
HETATM   13  C   UNL     1     -12.098  12.143  64.050  1.00  0.00    -0.540 C  
HETATM   14  C   UNL     1     -12.654  12.428  65.456  1.00  0.00     0.121 C  
HETATM   15  C   UNL     1     -11.577  14.688  65.424  1.00  0.00    -0.345 C  
HETATM   16  C   UNL     1     -10.791  12.922  63.825  1.00  0.00    -0.351 C  
HETATM   17  C   UNL     1     -11.054  14.424  64.007  1.00  0.00     0.350 C  
HETATM   18  C   UNL     1     -10.538  14.190  66.447  1.00  0.00    -0.280 C  
ENDBRANCH   4   9
BRANCH   7  19
HETATM   19  C   UNL     1      -8.754   8.863  69.297  1.00  0.00    -0.138 A  
HETATM   20  C   UNL     1      -9.255   4.938  70.813  1.00  0.00    -0.196 A  
HETATM   21  C   UNL     1      -9.251   6.488  68.935  1.00  0.00    -0.129 A  
HETATM   22  C   UNL     1      -8.840   7.306  71.180  1.00  0.00    -0.140 A  
HETATM   23  C   UNL     1      -8.644   8.589  70.672  1.00  0.00    -0.163 A  
HETATM   24  C   UNL     1      -9.081   7.795  68.446  1.00  0.00    -0.131 A  
HETATM   25  C   UNL     1      -9.126   6.243  70.320  1.00  0.00    -0.156 A  
HETATM   26  C   UNL     1      -9.508   3.876  69.938  1.00  0.00    -0.267 A  
HETATM   27  C   UNL     1      -9.629   4.118  68.566  1.00  0.00    -0.192 A  
HETATM   28  C   UNL     1      -9.580   2.472  70.411  1.00  0.00    -0.049 C  
HETATM   29  O   UNL     1      -9.236   1.527  69.723  1.00  0.00    -0.083 OA 
HETATM   30  C   UNL     1      -9.512   5.417  68.068  1.00  0.00    -0.138 A  
HETATM   31  O   UNL     1     -10.085   2.334  71.655  1.00  0.00    -0.151 OA 
ENDBRANCH   7  19
ENDBRANCH   2   3
TORSDOF 3
ENDMDL
MODEL      110
REMARK 921   NORMALIZED FREE ENERGY PREDICTED BY IDOCK:   -3.87 KCAL/MOL
REMARK 922        TOTAL FREE ENERGY PREDICTED BY IDOCK:   -5.34 KCAL/MOL
REMARK 923 INTER-LIGAND FREE ENERGY PREDICTED BY IDOCK:   -4.67 KCAL/MOL
REMARK 924 INTRA-LIGAND FREE ENERGY PREDICTED BY IDOCK:   -0.67 KCAL/MOL
REMARK 927      BINDING AFFINITY PREDICTED BY RF-SCORE:    0.00 PKD
ROOT
HETATM    1  C   UNL     1      -5.520  17.825  71.363  1.00  0.00     0.205 C  
HETATM    2  O   UNL     1      -6.325  17.759  70.182  1.00  0.00    -0.064 OA 
ENDROOT
BRANCH   2   3
HETATM    3  C   UNL     1      -6.306  16.568  69.499  1.00  0.00    -0.214 A  
HETATM    4  C   UNL     1      -7.164  16.405  68.378  1.00  0.00    -0.158 A  
HETATM    5  C   UNL     1      -7.094  15.164  67.708  1.00  0.00    -0.185 A  
HETATM    6  C   UNL     1      -5.490  15.504  69.918  1.00  0.00    -0.117 A  
HETATM    7  C   UNL     1      -6.298  14.085  68.128  1.00  0.00    -0.128 A  
HETATM    8  C   UNL     1      -5.495  14.281  69.251  1.00  0.00    -0.081 A  
BRANCH   4   9
HETATM    9  C   UNL     1      -8.192  17.463  67.907  1.00  0.00    -0.225 C  
HETATM   10  C   UNL     1      -8.579  17.186  66.425  1.00  0.00    -0.300 C  
HETATM   11  C   UNL     1      -9.454  17.479  68.813  1.00  0.00    -0.249 C  
HETATM   12  C   UNL     1      -9.947  19.883  68.312  1.00  0.00    -0.552 C  
HETATM   13  C   UNL     1     -10.881  18.077  66.838  1.00  0.00    -0.089 C  
HETATM   14  C   UNL     1     -10.514  18.458  68.282  1.00  0.00    -0.329 C  
HETATM   15  C   UNL     1      -8.699  19.956  67.425  1.00  0.00    -0.401 C  
HETATM   16  C   UNL     1      -9.646  18.179  65.929  1.00  0.00     0.075 C  
HETATM   17  C   UNL     1      -9.089  19.609  65.983  1.00  0.00    -0.288 C  
HETATM   18  C   UNL     1      -7.650  18.944  67.923  1.00  0.00    -0.283 C  
ENDBRANCH   4   9
BRANCH   7  19
HETATM   19  C   UNL     1      -6.364  12.782  67.439  1.00  0.00    -0.139 A  
HETATM   20  C   UNL     1      -6.467   9.146  65.266  1.00  0.00    -0.068 A  
HETATM   21  C   UNL     1      -7.622  11.068  66.215  1.00  0.00    -0.111 A  
HETATM   22  C   UNL     1      -5.235  10.805  66.548  1.00  0.00    -0.072 A  
HETATM   23  C   UNL     1      -5.201  12.018  67.233  1.00  0.00    -0.113 A  
HETATM   24  C   UNL     1      -7.572  12.274  66.937  1.00  0.00     0.001 A  
HETATM   25  C   UNL     1      -6.435  10.328  66.018  1.00  0.00    -0.107 A  
HETATM   26  C   UNL     1      -7.670   8.695  64.712  1.00  0.00    -0.108 A  
HETATM   27  C   UNL     1      -8.844   9.429  64.904  1.00  0.00    -0.240 A  
HETATM   28  C   UNL     1      -7.731   7.487  63.852  1.00  0.00    -0.125 C  
HETATM   29  O   UNL     1      -8.529   7.371  62.938  1.00  0.00     0.035 OA 
HETATM   30  C   UNL     1      -8.823  10.602  65.660  1.00  0.00    -0.201 A  
HETATM   31  O   UNL     1      -6.849   6.524  64.190  1.00  0.00    -0.043 OA 
ENDBRANCH   7  19
ENDBRANCH   2   3
TORSDOF 3
ENDMDL
MODEL      111
REMARK 921   NORMALIZED FREE ENERGY PREDICTED BY IDOCK:   -3.64 KCAL/MOL
REMARK 922        TOTAL FREE ENERGY PREDICTED BY IDOCK:   -5.06 KCAL/MOL
REMARK 923 INTER-LIGAND FREE ENERGY PREDICTED BY IDOCK:   -4.60 KCAL/MOL
REMARK 924 INTRA-LIGAND FREE ENERGY PREDICTED BY IDOCK:   -0.47 KCAL/MOL
REMARK 927      BINDING AFFINITY PREDICTED BY RF-SCORE:    0.00 PKD
ROOT
HETATM    1  C   UNL     1      -6.134  15.144  67.594  1.00  0.00    -0.102 C  
HETATM    2  O   UNL     1      -7.197  14.754  68.468  1.00  0.00    -0.105 OA 
ENDROOT
BRANCH   2   3
HETATM    3  C   UNL     1      -7.284  13.413  68.757  1.00  0.00    -0.092 A  
HETATM    4  C   UNL     1      -8.405  12.680  68.280  1.00  0.00    -0.165 A  
HETATM    5  C   UNL     1      -8.437  11.305  68.598  1.00  0.00    -0.143 A  
HETATM    6  C   UNL     1      -6.314  12.777  69.548  1.00  0.00    -0.108 A  
HETATM    7  C   UNL     1      -7.484  10.660  69.406  1.00  0.00    -0.135 A  
HETATM    8  C   UNL     1      -6.419  11.428  69.876  1.00  0.00    -0.118 A  
BRANCH   4   9
HETATM    9  C   UNL     1      -9.592  13.307  67.508  1.00  0.00    -0.218 C  
HETATM   10  C   UNL     1      -9.339  13.179  65.977  1.00  0.00    -0.023 C  
HETATM   11  C   UNL     1     -10.943  12.647  67.901  1.00  0.00    -0.262 C  
HETATM   12  C   UNL     1     -12.260  14.701  67.337  1.00  0.00    -0.087 C  
HETATM   13  C   UNL     1     -11.800  12.981  65.567  1.00  0.00    -0.438 C  
HETATM   14  C   UNL     1     -12.103  13.202  67.059  1.00  0.00    -0.366 C  
HETATM   15  C   UNL     1     -10.967  15.431  66.960  1.00  0.00    -0.306 C  
HETATM   16  C   UNL     1     -10.523  13.736  65.165  1.00  0.00    -0.399 C  
HETATM   17  C   UNL     1     -10.698  15.232  65.463  1.00  0.00    -0.385 C  
HETATM   18  C   UNL     1      -9.791  14.850  67.766  1.00  0.00    -0.217 C  
ENDBRANCH   4   9
BRANCH   7  19
HETATM   19  C   UNL     1      -7.647   9.244  69.785  1.00  0.00    -0.082 A  
HETATM   20  C   UNL     1      -8.222   5.248  71.074  1.00  0.00    -0.116 A  
HETATM   21  C   UNL     1      -6.759   7.167  70.742  1.00  0.00    -0.052 A  
HETATM   22  C   UNL     1      -9.081   7.281  70.052  1.00  0.00    -0.148 A  
HETATM   23  C   UNL     1      -8.894   8.606  69.661  1.00  0.00    -0.137 A  
HETATM   24  C   UNL     1      -6.584   8.493  70.312  1.00  0.00    -0.039 A  
HETATM   25  C   UNL     1      -8.026   6.557  70.612  1.00  0.00    -0.111 A  
HETATM   26  C   UNL     1      -7.166   4.543  71.662  1.00  0.00    -0.063 A  
HETATM   27  C   UNL     1      -5.913   5.148  71.795  1.00  0.00    -0.025 A  
HETATM   28  C   UNL     1      -7.352   3.184  72.228  1.00  0.00    -0.051 C  
HETATM   29  O   UNL     1      -6.719   2.779  73.187  1.00  0.00    -0.024 OA 
HETATM   30  C   UNL     1      -5.707   6.448  71.328  1.00  0.00    -0.027 A  
HETATM   31  O   UNL     1      -8.258   2.432  71.570  1.00  0.00    -0.053 OA 
ENDBRANCH   7  19
ENDBRANCH   2   3
TORSDOF 3
ENDMDL
MODEL      112
REMARK 921   NORMALIZED FREE ENERGY PREDICTED BY IDOCK:   -3.38 KCAL/MOL
REMARK 922        TOTAL FREE ENERGY PREDICTED BY IDOCK:   -4.76 KCAL/MOL
REMARK 923 INTER-LIGAND FREE ENERGY PREDICTED BY IDOCK:   -4.72 KCAL/MOL
REMARK 924 INTRA-LIGAND FREE ENERGY PREDICTED BY IDOCK:   -0.04 KCAL/MOL
REMARK 927      BINDING AFFINITY PREDICTED BY RF-SCORE:    0.00 PKD
ROOT
HETATM    1  C   UNL     1      -5.125   5.672  65.424  1.00  0.00    -0.009 C  
HETATM    2  O   UNL     1      -5.966   6.691  64.876  1.00  0.00    -0.033 OA 
ENDROOT
BRANCH   2   3
HETATM    3  C   UNL     1      -6.784   7.347  65.764  1.00  0.00    -0.052 A  
HETATM    4  C   UNL     1      -7.982   6.713  66.190  1.00  0.00    -0.110 A  
HETATM    5  C   UNL     1      -8.778   7.429  67.111  1.00  0.00    -0.121 A  
HETATM    6  C   UNL     1      -6.476   8.641  66.214  1.00  0.00    -0.061 A  
HETATM    7  C   UNL     1      -8.493   8.732  67.554  1.00  0.00    -0.120 A  
HETATM    8  C   UNL     1      -7.321   9.325  67.084  1.00  0.00    -0.091 A  
BRANCH   4   9
HETATM    9  C   UNL     1      -8.480   5.345  65.661  1.00  0.00    -0.138 C  
HETATM   10  C   UNL     1      -9.937   5.099  66.152  1.00  0.00    -0.216 C  
HETATM   11  C   UNL     1      -8.399   5.266  64.112  1.00  0.00    -0.131 C  
HETATM   12  C   UNL     1      -8.158   2.773  64.119  1.00  0.00    -0.082 C  
HETATM   13  C   UNL     1     -10.443   3.813  64.065  1.00  0.00    -0.271 C  
HETATM   14  C   UNL     1      -8.988   3.947  63.586  1.00  0.00    -0.116 C  
HETATM   15  C   UNL     1      -8.199   2.771  65.651  1.00  0.00    -0.089 C  
HETATM   16  C   UNL     1     -10.498   3.775  65.601  1.00  0.00     0.379 C  
HETATM   17  C   UNL     1      -9.652   2.600  66.113  1.00  0.00     0.224 C  
HETATM   18  C   UNL     1      -7.653   4.108  66.185  1.00  0.00    -0.089 C  
ENDBRANCH   4   9
BRANCH   7  19
HETATM   19  C   UNL     1      -9.433   9.456  68.430  1.00  0.00    -0.148 A  
HETATM   20  C   UNL     1     -12.310  11.454  70.814  1.00  0.00    -0.483 A  
HETATM   21  C   UNL     1     -10.592  11.515  69.089  1.00  0.00    -0.174 A  
HETATM   22  C   UNL     1     -11.103   9.429  70.214  1.00  0.00    -0.299 A  
HETATM   23  C   UNL     1     -10.180   8.771  69.405  1.00  0.00    -0.210 A  
HETATM   24  C   UNL     1      -9.642  10.839  68.304  1.00  0.00    -0.170 A  
HETATM   25  C   UNL     1     -11.333  10.798  70.054  1.00  0.00    -0.397 A  
HETATM   26  C   UNL     1     -12.553  12.819  70.622  1.00  0.00    -0.248 A  
HETATM   27  C   UNL     1     -11.823  13.529  69.664  1.00  0.00    -0.398 A  
HETATM   28  C   UNL     1     -13.628  13.533  71.356  1.00  0.00    -0.092 C  
HETATM   29  O   UNL     1     -14.243  14.468  70.874  1.00  0.00    -0.075 OA 
HETATM   30  C   UNL     1     -10.841  12.884  68.910  1.00  0.00    -0.239 A  
HETATM   31  O   UNL     1     -13.839  13.075  72.607  1.00  0.00    -0.653 OA 
ENDBRANCH   7  19
ENDBRANCH   2   3
TORSDOF 3
ENDMDL
MODEL      113
REMARK 921   NORMALIZED FREE ENERGY PREDICTED BY IDOCK:   -3.28 KCAL/MOL
REMARK 922        TOTAL FREE ENERGY PREDICTED BY IDOCK:   -4.64 KCAL/MOL
REMARK 923 INTER-LIGAND FREE ENERGY PREDICTED BY IDOCK:   -3.97 KCAL/MOL
REMARK 924 INTRA-LIGAND FREE ENERGY PREDICTED BY IDOCK:   -0.67 KCAL/MOL
REMARK 927      BINDING AFFINITY PREDICTED BY RF-SCORE:    0.00 PKD
ROOT
HETATM    1  C   UNL     1      -5.757   3.626  70.800  1.00  0.00    -0.013 C  
HETATM    2  O   UNL     1      -7.022   3.575  70.136  1.00  0.00    -0.034 OA 
ENDROOT
BRANCH   2   3
HETATM    3  C   UNL     1      -7.604   4.785  69.843  1.00  0.00    -0.055 A  
HETATM    4  C   UNL     1      -7.945   5.075  68.495  1.00  0.00    -0.086 A  
HETATM    5  C   UNL     1      -8.550   6.328  68.255  1.00  0.00    -0.117 A  
HETATM    6  C   UNL     1      -7.819   5.748  70.844  1.00  0.00    -0.105 A  
HETATM    7  C   UNL     1      -8.753   7.307  69.242  1.00  0.00    -0.137 A  
HETATM    8  C   UNL     1      -8.373   6.990  70.546  1.00  0.00    -0.132 A  
BRANCH   4   9
HETATM    9  C   UNL     1      -7.638   4.140  67.299  1.00  0.00    -0.077 C  
HETATM   10  C   UNL     1      -8.288   2.747  67.550  1.00  0.00    -0.094 C  
HETATM   11  C   UNL     1      -8.135   4.746  65.957  1.00  0.00    -0.107 C  
HETATM   12  C   UNL     1      -6.418   3.513  64.613  1.00  0.00    -0.035 C  
HETATM   13  C   UNL     1      -8.642   2.447  65.090  1.00  0.00    -0.109 C  
HETATM   14  C   UNL     1      -7.920   3.771  64.788  1.00  0.00    -0.090 C  
HETATM   15  C   UNL     1      -5.852   2.897  65.896  1.00  0.00    -0.022 C  
HETATM   16  C   UNL     1      -8.061   1.800  66.357  1.00  0.00    -0.080 C  
HETATM   17  C   UNL     1      -6.556   1.561  66.165  1.00  0.00    -0.023 C  
HETATM   18  C   UNL     1      -6.104   3.847  67.082  1.00  0.00    -0.025 C  
ENDBRANCH   4   9
BRANCH   7  19
HETATM   19  C   UNL     1      -9.289   8.636  68.892  1.00  0.00    -0.145 A  
HETATM   20  C   UNL     1     -10.793  12.400  67.656  1.00  0.00    -0.258 A  
HETATM   21  C   UNL     1      -8.998  11.055  68.604  1.00  0.00    -0.167 A  
HETATM   22  C   UNL     1     -11.108  10.015  68.016  1.00  0.00    -0.263 A  
HETATM   23  C   UNL     1     -10.597   8.775  68.393  1.00  0.00    -0.185 A  
HETATM   24  C   UNL     1      -8.512   9.800  69.009  1.00  0.00    -0.137 A  
HETATM   25  C   UNL     1     -10.312  11.160  68.099  1.00  0.00    -0.207 A  
HETATM   26  C   UNL     1      -9.976  13.534  67.714  1.00  0.00    -0.232 A  
HETATM   27  C   UNL     1      -8.673  13.429  68.210  1.00  0.00    -0.172 A  
HETATM   28  C   UNL     1     -10.422  14.848  67.189  1.00  0.00    -0.271 C  
HETATM   29  O   UNL     1      -9.653  15.657  66.701  1.00  0.00    -0.225 OA 
HETATM   30  C   UNL     1      -8.190  12.200  68.663  1.00  0.00    -0.033 A  
HETATM   31  O   UNL     1     -11.745  15.077  67.328  1.00  0.00    -0.330 OA 
ENDBRANCH   7  19
ENDBRANCH   2   3
TORSDOF 3
ENDMDL
MODEL      114
REMARK 921   NORMALIZED FREE ENERGY PREDICTED BY IDOCK:   -3.21 KCAL/MOL
REMARK 922        TOTAL FREE ENERGY PREDICTED BY IDOCK:   -4.56 KCAL/MOL
REMARK 923 INTER-LIGAND FREE ENERGY PREDICTED BY IDOCK:   -3.87 KCAL/MOL
REMARK 924 INTRA-LIGAND FREE ENERGY PREDICTED BY IDOCK:   -0.69 KCAL/MOL
REMARK 927      BINDING AFFINITY PREDICTED BY RF-SCORE:    0.00 PKD
ROOT
HETATM    1  C   UNL     1      -6.751  16.878  66.736  1.00  0.00    -0.227 C  
HETATM    2  O   UNL     1      -7.121  16.081  67.864  1.00  0.00    -0.121 OA 
ENDROOT
BRANCH   2   3
HETATM    3  C   UNL     1      -6.910  14.728  67.748  1.00  0.00    -0.177 A  
HETATM    4  C   UNL     1      -8.033  13.861  67.675  1.00  0.00    -0.181 A  
HETATM    5  C   UNL     1      -7.755  12.482  67.547  1.00  0.00    -0.165 A  
HETATM    6  C   UNL     1      -5.610  14.195  67.749  1.00  0.00    -0.049 A  
HETATM    7  C   UNL     1      -6.461  11.933  67.565  1.00  0.00    -0.111 A  
HETATM    8  C   UNL     1      -5.392  12.822  67.670  1.00  0.00    -0.112 A  
BRANCH   4   9
HETATM    9  C   UNL     1      -9.504  14.330  67.793  1.00  0.00    -0.216 C  
HETATM   10  C   UNL     1      -9.680  15.164  69.095  1.00  0.00    -0.232 C  
HETATM   11  C   UNL     1      -9.944  15.151  66.548  1.00  0.00    -0.279 C  
HETATM   12  C   UNL     1     -12.354  14.529  66.826  1.00  0.00    -0.111 C  
HETATM   13  C   UNL     1     -11.440  16.558  67.989  1.00  0.00     0.016 C  
HETATM   14  C   UNL     1     -11.370  15.700  66.715  1.00  0.00     0.013 C  
HETATM   15  C   UNL     1     -11.996  13.673  68.046  1.00  0.00    -0.385 C  
HETATM   16  C   UNL     1     -11.116  15.705  69.226  1.00  0.00    -0.293 C  
HETATM   17  C   UNL     1     -12.105  14.533  69.311  1.00  0.00    -0.325 C  
HETATM   18  C   UNL     1     -10.552  13.156  67.909  1.00  0.00    -0.243 C  
ENDBRANCH   4   9
BRANCH   7  19
HETATM   19  C   UNL     1      -6.258  10.473  67.538  1.00  0.00    -0.056 A  
HETATM   20  C   UNL     1      -5.806   6.269  67.264  1.00  0.00    -0.017 A  
HETATM   21  C   UNL     1      -6.855   8.214  68.286  1.00  0.00    -0.069 A  
HETATM   22  C   UNL     1      -5.159   8.511  66.580  1.00  0.00    -0.027 A  
HETATM   23  C   UNL     1      -5.335   9.892  66.651  1.00  0.00    -0.044 A  
HETATM   24  C   UNL     1      -6.996   9.610  68.366  1.00  0.00    -0.065 A  
HETATM   25  C   UNL     1      -5.925   7.660  67.378  1.00  0.00    -0.047 A  
HETATM   26  C   UNL     1      -6.602   5.426  68.046  1.00  0.00    -0.049 A  
HETATM   27  C   UNL     1      -7.525   5.973  68.942  1.00  0.00    -0.086 A  
HETATM   28  C   UNL     1      -6.556   3.950  67.902  1.00  0.00    -0.042 C  
HETATM   29  O   UNL     1      -7.529   3.240  68.086  1.00  0.00    -0.053 OA 
HETATM   30  C   UNL     1      -7.643   7.358  69.070  1.00  0.00    -0.102 A  
HETATM   31  O   UNL     1      -5.339   3.465  67.579  1.00  0.00    -0.011 OA 
ENDBRANCH   7  19
ENDBRANCH   2   3
TORSDOF 3
ENDMDL
MODEL      115
REMARK 921   NORMALIZED FREE ENERGY PREDICTED BY IDOCK:   -3.16 KCAL/MOL
REMARK 922        TOTAL FREE ENERGY PREDICTED BY IDOCK:   -4.50 KCAL/MOL
REMARK 923 INTER-LIGAND FREE ENERGY PREDICTED BY IDOCK:   -4.33 KCAL/MOL
REMARK 924 INTRA-LIGAND FREE ENERGY PREDICTED BY IDOCK:   -0.17 KCAL/MOL
REMARK 927      BINDING AFFINITY PREDICTED BY RF-SCORE:    0.00 PKD
ROOT
HETATM    1  C   UNL     1      -7.219  15.356  67.672  1.00  0.00    -0.182 C  
HETATM    2  O   UNL     1      -8.385  14.574  67.945  1.00  0.00    -0.141 OA 
ENDROOT
BRANCH   2   3
HETATM    3  C   UNL     1      -8.196  13.217  68.049  1.00  0.00    -0.158 A  
HETATM    4  C   UNL     1      -8.995  12.349  67.257  1.00  0.00    -0.190 A  
HETATM    5  C   UNL     1      -8.750  10.966  67.398  1.00  0.00    -0.130 A  
HETATM    6  C   UNL     1      -7.266  12.682  68.956  1.00  0.00     0.009 A  
HETATM    7  C   UNL     1      -7.837  10.416  68.314  1.00  0.00    -0.105 A  
HETATM    8  C   UNL     1      -7.098  11.306  69.093  1.00  0.00    -0.122 A  
BRANCH   4   9
HETATM    9  C   UNL     1     -10.133  12.826  66.321  1.00  0.00    -0.267 C  
HETATM   10  C   UNL     1     -11.496  12.716  67.065  1.00  0.00    -0.406 C  
HETATM   11  C   UNL     1      -9.893  14.278  65.822  1.00  0.00    -0.314 C  
HETATM   12  C   UNL     1     -11.207  13.912  63.720  1.00  0.00     0.314 C  
HETATM   13  C   UNL     1     -12.367  14.695  65.805  1.00  0.00    -0.135 C  
HETATM   14  C   UNL     1     -11.074  14.782  64.976  1.00  0.00    -0.412 C  
HETATM   15  C   UNL     1     -11.462  12.458  64.129  1.00  0.00    -0.448 C  
HETATM   16  C   UNL     1     -12.654  13.236  66.195  1.00  0.00    -0.208 C  
HETATM   17  C   UNL     1     -12.772  12.382  64.923  1.00  0.00    -0.256 C  
HETATM   18  C   UNL     1     -10.305  11.959  65.015  1.00  0.00    -0.330 C  
ENDBRANCH   4   9
BRANCH   7  19
HETATM   19  C   UNL     1      -7.719   8.955  68.481  1.00  0.00    -0.098 A  
HETATM   20  C   UNL     1      -7.177   4.795  69.077  1.00  0.00    -0.053 A  
HETATM   21  C   UNL     1      -7.085   6.746  67.622  1.00  0.00    -0.085 A  
HETATM   22  C   UNL     1      -7.880   6.973  69.902  1.00  0.00    -0.114 A  
HETATM   23  C   UNL     1      -8.025   8.345  69.710  1.00  0.00    -0.104 A  
HETATM   24  C   UNL     1      -7.268   8.128  67.440  1.00  0.00    -0.088 A  
HETATM   25  C   UNL     1      -7.393   6.165  68.872  1.00  0.00    -0.085 A  
HETATM   26  C   UNL     1      -6.658   4.002  68.048  1.00  0.00    -0.042 A  
HETATM   27  C   UNL     1      -6.349   4.578  66.812  1.00  0.00    -0.037 A  
HETATM   28  C   UNL     1      -6.348   2.565  68.248  1.00  0.00    -0.029 C  
HETATM   29  O   UNL     1      -5.438   2.001  67.667  1.00  0.00    -0.016 OA 
HETATM   30  C   UNL     1      -6.571   5.939  66.597  1.00  0.00    -0.056 A  
HETATM   31  O   UNL     1      -7.179   1.936  69.105  1.00  0.00    -0.039 OA 
ENDBRANCH   7  19
ENDBRANCH   2   3
TORSDOF 3
ENDMDL
MODEL      116
REMARK 921   NORMALIZED FREE ENERGY PREDICTED BY IDOCK:   -3.07 KCAL/MOL
REMARK 922        TOTAL FREE ENERGY PREDICTED BY IDOCK:   -4.39 KCAL/MOL
REMARK 923 INTER-LIGAND FREE ENERGY PREDICTED BY IDOCK:   -3.95 KCAL/MOL
REMARK 924 INTRA-LIGAND FREE ENERGY PREDICTED BY IDOCK:   -0.44 KCAL/MOL
REMARK 927      BINDING AFFINITY PREDICTED BY RF-SCORE:    0.00 PKD
ROOT
HETATM    1  C   UNL     1      -7.314  15.121  67.732  1.00  0.00    -0.164 C  
HETATM    2  O   UNL     1      -8.489  14.340  67.962  1.00  0.00    -0.147 OA 
ENDROOT
BRANCH   2   3
HETATM    3  C   UNL     1      -8.325  12.976  67.949  1.00  0.00    -0.170 A  
HETATM    4  C   UNL     1      -9.143  12.194  67.089  1.00  0.00    -0.189 A  
HETATM    5  C   UNL     1      -8.923  10.799  67.110  1.00  0.00    -0.145 A  
HETATM    6  C   UNL     1      -7.402  12.348  68.801  1.00  0.00    -0.076 A  
HETATM    7  C   UNL     1      -8.017  10.157  67.971  1.00  0.00    -0.101 A  
HETATM    8  C   UNL     1      -7.259  10.963  68.819  1.00  0.00    -0.091 A  
BRANCH   4   9
HETATM    9  C   UNL     1     -10.275  12.770  66.203  1.00  0.00    -0.286 C  
HETATM   10  C   UNL     1     -10.425  11.897  64.922  1.00  0.00    -0.331 C  
HETATM   11  C   UNL     1     -11.621  12.851  66.976  1.00  0.00    -0.419 C  
HETATM   12  C   UNL     1     -12.463  14.748  65.574  1.00  0.00    -0.013 C  
HETATM   13  C   UNL     1     -12.881  12.377  64.858  1.00  0.00    -0.092 C  
HETATM   14  C   UNL     1     -12.764  13.326  66.063  1.00  0.00    -0.135 C  
HETATM   15  C   UNL     1     -11.150  14.751  64.784  1.00  0.00    -0.393 C  
HETATM   16  C   UNL     1     -11.582  12.396  64.036  1.00  0.00    -0.488 C  
HETATM   17  C   UNL     1     -11.295  13.829  63.567  1.00  0.00     0.449 C  
HETATM   18  C   UNL     1     -10.008  14.232  65.678  1.00  0.00    -0.346 C  
ENDBRANCH   4   9
BRANCH   7  19
HETATM   19  C   UNL     1      -7.926   8.685  68.012  1.00  0.00    -0.107 A  
HETATM   20  C   UNL     1      -7.764   4.464  68.342  1.00  0.00    -0.075 A  
HETATM   21  C   UNL     1      -6.653   6.629  68.427  1.00  0.00    -0.059 A  
HETATM   22  C   UNL     1      -9.005   6.497  67.854  1.00  0.00    -0.115 A  
HETATM   23  C   UNL     1      -9.061   7.888  67.779  1.00  0.00    -0.138 A  
HETATM   24  C   UNL     1      -6.722   8.029  68.315  1.00  0.00    -0.067 A  
HETATM   25  C   UNL     1      -7.812   5.857  68.195  1.00  0.00    -0.105 A  
HETATM   26  C   UNL     1      -6.571   3.836  68.716  1.00  0.00    -0.041 A  
HETATM   27  C   UNL     1      -5.424   4.601  68.949  1.00  0.00    -0.012 A  
HETATM   28  C   UNL     1      -6.498   2.372  68.952  1.00  0.00    -0.029 C  
HETATM   29  O   UNL     1      -5.743   1.875  69.770  1.00  0.00    -0.016 OA 
HETATM   30  C   UNL     1      -5.461   5.988  68.795  1.00  0.00    -0.007 A  
HETATM   31  O   UNL     1      -7.315   1.645  68.163  1.00  0.00    -0.042 OA 
ENDBRANCH   7  19
ENDBRANCH   2   3
TORSDOF 3
ENDMDL
MODEL      117
REMARK 921   NORMALIZED FREE ENERGY PREDICTED BY IDOCK:   -3.01 KCAL/MOL
REMARK 922        TOTAL FREE ENERGY PREDICTED BY IDOCK:   -4.33 KCAL/MOL
REMARK 923 INTER-LIGAND FREE ENERGY PREDICTED BY IDOCK:   -3.68 KCAL/MOL
REMARK 924 INTRA-LIGAND FREE ENERGY PREDICTED BY IDOCK:   -0.65 KCAL/MOL
REMARK 927      BINDING AFFINITY PREDICTED BY RF-SCORE:    0.00 PKD
ROOT
HETATM    1  C   UNL     1     -12.403  14.382  69.056  1.00  0.00    -0.095 C  
HETATM    2  O   UNL     1     -11.212  13.925  68.409  1.00  0.00    -0.240 OA 
ENDROOT
BRANCH   2   3
HETATM    3  C   UNL     1     -10.859  12.617  68.637  1.00  0.00    -0.249 A  
HETATM    4  C   UNL     1     -10.741  11.735  67.530  1.00  0.00    -0.262 A  
HETATM    5  C   UNL     1     -10.365  10.406  67.824  1.00  0.00    -0.245 A  
HETATM    6  C   UNL     1     -10.662  12.137  69.943  1.00  0.00     0.690 A  
HETATM    7  C   UNL     1     -10.184   9.906  69.125  1.00  0.00    -0.218 A  
HETATM    8  C   UNL     1     -10.342  10.803  70.182  1.00  0.00     0.273 A  
BRANCH   4   9
HETATM    9  C   UNL     1     -11.057  12.127  66.066  1.00  0.00    -0.354 C  
HETATM   10  C   UNL     1      -9.980  13.128  65.554  1.00  0.00    -0.220 C  
HETATM   11  C   UNL     1     -11.133  10.879  65.143  1.00  0.00     0.085 C  
HETATM   12  C   UNL     1     -12.693  12.000  63.535  1.00  0.00    -0.567 C  
HETATM   13  C   UNL     1     -10.209  12.219  63.233  1.00  0.00    -0.245 C  
HETATM   14  C   UNL     1     -11.346  11.280  63.674  1.00  0.00    -0.134 C  
HETATM   15  C   UNL     1     -12.694  13.259  64.409  1.00  0.00    -0.188 C  
HETATM   16  C   UNL     1     -10.219  13.502  64.079  1.00  0.00     0.445 C  
HETATM   17  C   UNL     1     -11.579  14.200  63.934  1.00  0.00    -0.018 C  
HETATM   18  C   UNL     1     -12.435  12.870  65.877  1.00  0.00    -0.252 C  
ENDBRANCH   4   9
BRANCH   7  19
HETATM   19  C   UNL     1      -9.901   8.477  69.355  1.00  0.00    -0.185 A  
HETATM   20  C   UNL     1      -9.320   4.337  70.043  1.00  0.00    -0.234 A  
HETATM   21  C   UNL     1      -9.222   6.639  70.831  1.00  0.00    -0.157 A  
HETATM   22  C   UNL     1      -9.918   6.167  68.557  1.00  0.00    -0.173 A  
HETATM   23  C   UNL     1     -10.139   7.526  68.347  1.00  0.00    -0.200 A  
HETATM   24  C   UNL     1      -9.420   8.009  70.588  1.00  0.00    -0.167 A  
HETATM   25  C   UNL     1      -9.478   5.708  69.800  1.00  0.00    -0.189 A  
HETATM   26  C   UNL     1      -8.910   3.887  71.303  1.00  0.00    -0.142 A  
HETATM   27  C   UNL     1      -8.660   4.808  72.324  1.00  0.00    -0.121 A  
HETATM   28  C   UNL     1      -8.801   2.441  71.620  1.00  0.00    -0.075 C  
HETATM   29  O   UNL     1      -9.011   1.996  72.735  1.00  0.00    -0.062 OA 
HETATM   30  C   UNL     1      -8.804   6.176  72.087  1.00  0.00    -0.138 A  
HETATM   31  O   UNL     1      -8.423   1.674  70.577  1.00  0.00    -0.044 OA 
ENDBRANCH   7  19
ENDBRANCH   2   3
TORSDOF 3
ENDMDL
MODEL      118
REMARK 921   NORMALIZED FREE ENERGY PREDICTED BY IDOCK:   -2.04 KCAL/MOL
REMARK 922        TOTAL FREE ENERGY PREDICTED BY IDOCK:   -3.19 KCAL/MOL
REMARK 923 INTER-LIGAND FREE ENERGY PREDICTED BY IDOCK:   -3.05 KCAL/MOL
REMARK 924 INTRA-LIGAND FREE ENERGY PREDICTED BY IDOCK:   -0.13 KCAL/MOL
REMARK 927      BINDING AFFINITY PREDICTED BY RF-SCORE:    0.00 PKD
ROOT
HETATM    1  C   UNL     1     -12.959  16.290  69.565  1.00  0.00     2.006 C  
HETATM    2  O   UNL     1     -11.765  16.177  68.786  1.00  0.00    -0.364 OA 
ENDROOT
BRANCH   2   3
HETATM    3  C   UNL     1     -11.400  14.906  68.415  1.00  0.00    -0.303 A  
HETATM    4  C   UNL     1     -10.024  14.619  68.208  1.00  0.00    -0.222 A  
HETATM    5  C   UNL     1      -9.707  13.294  67.837  1.00  0.00    -0.224 A  
HETATM    6  C   UNL     1     -12.365  13.909  68.193  1.00  0.00     0.001 A  
HETATM    7  C   UNL     1     -10.663  12.293  67.593  1.00  0.00    -0.250 A  
HETATM    8  C   UNL     1     -12.003  12.630  67.779  1.00  0.00    -0.303 A  
BRANCH   4   9
HETATM    9  C   UNL     1      -8.892  15.672  68.301  1.00  0.00    -0.180 C  
HETATM   10  C   UNL     1      -7.951  15.532  67.068  1.00  0.00    -0.268 C  
HETATM   11  C   UNL     1      -9.459  17.115  68.401  1.00  0.00    -0.276 C  
HETATM   12  C   UNL     1      -7.445  17.963  69.625  1.00  0.00     0.500 C  
HETATM   13  C   UNL     1      -7.491  17.992  67.115  1.00  0.00    -0.221 C  
HETATM   14  C   UNL     1      -8.333  18.162  68.391  1.00  0.00    -0.311 C  
HETATM   15  C   UNL     1      -6.831  16.559  69.594  1.00  0.00    -0.081 C  
HETATM   16  C   UNL     1      -6.841  16.599  67.086  1.00  0.00    -0.223 C  
HETATM   17  C   UNL     1      -5.967  16.418  68.335  1.00  0.00    -0.119 C  
HETATM   18  C   UNL     1      -7.953  15.505  69.558  1.00  0.00    -0.192 C  
ENDBRANCH   4   9
BRANCH   7  19
HETATM   19  C   UNL     1     -10.257  10.963  67.101  1.00  0.00    -0.249 A  
HETATM   20  C   UNL     1      -8.884   7.174  65.792  1.00  0.00    -0.090 A  
HETATM   21  C   UNL     1      -9.383   9.512  65.326  1.00  0.00    -0.317 A  
HETATM   22  C   UNL     1      -9.825   8.596  67.528  1.00  0.00    -0.234 A  
HETATM   23  C   UNL     1     -10.244   9.851  67.962  1.00  0.00    -0.219 A  
HETATM   24  C   UNL     1      -9.840  10.763  65.775  1.00  0.00    -0.292 A  
HETATM   25  C   UNL     1      -9.374   8.416  66.218  1.00  0.00    -0.283 A  
HETATM   26  C   UNL     1      -8.405   7.015  64.487  1.00  0.00     0.088 A  
HETATM   27  C   UNL     1      -8.410   8.101  63.606  1.00  0.00     0.007 A  
HETATM   28  C   UNL     1      -7.812   5.737  64.022  1.00  0.00    -0.118 C  
HETATM   29  O   UNL     1      -6.922   5.689  63.191  1.00  0.00    -0.038 OA 
HETATM   30  C   UNL     1      -8.907   9.338  64.019  1.00  0.00    -0.168 A  
HETATM   31  O   UNL     1      -8.365   4.638  64.577  1.00  0.00    -0.111 OA 
ENDBRANCH   7  19
ENDBRANCH   2   3
TORSDOF 3
ENDMDL
MODEL      119
REMARK 921   NORMALIZED FREE ENERGY PREDICTED BY IDOCK:   -1.61 KCAL/MOL
REMARK 922        TOTAL FREE ENERGY PREDICTED BY IDOCK:   -2.68 KCAL/MOL
REMARK 923 INTER-LIGAND FREE ENERGY PREDICTED BY IDOCK:   -2.04 KCAL/MOL
REMARK 924 INTRA-LIGAND FREE ENERGY PREDICTED BY IDOCK:   -0.64 KCAL/MOL
REMARK 927      BINDING AFFINITY PREDICTED BY RF-SCORE:    0.00 PKD
ROOT
HETATM    1  C   UNL     1      -5.430  18.830  71.297  1.00  0.00    -0.184 C  
HETATM    2  O   UNL     1      -6.116  18.646  70.056  1.00  0.00    -0.242 OA 
ENDROOT
BRANCH   2   3
HETATM    3  C   UNL     1      -6.147  17.364  69.563  1.00  0.00    -0.252 A  
HETATM    4  C   UNL     1      -6.283  17.170  68.162  1.00  0.00    -0.136 A  
HETATM    5  C   UNL     1      -6.298  15.832  67.711  1.00  0.00    -0.174 A  
HETATM    6  C   UNL     1      -6.093  16.254  70.423  1.00  0.00     0.098 A  
HETATM    7  C   UNL     1      -6.265  14.713  68.561  1.00  0.00    -0.089 A  
HETATM    8  C   UNL     1      -6.163  14.953  69.931  1.00  0.00    -0.149 A  
BRANCH   4   9
HETATM    9  C   UNL     1      -6.477  18.317  67.139  1.00  0.00    -0.191 C  
HETATM   10  C   UNL     1      -7.652  19.228  67.599  1.00  0.00    -0.275 C  
HETATM   11  C   UNL     1      -5.175  19.145  66.956  1.00  0.00    -0.147 C  
HETATM   12  C   UNL     1      -5.783  19.830  64.624  1.00  0.00    -0.262 C  
HETATM   13  C   UNL     1      -6.533  21.220  66.576  1.00  0.00    -0.274 C  
HETATM   14  C   UNL     1      -5.400  20.343  66.018  1.00  0.00    -0.199 C  
HETATM   15  C   UNL     1      -7.073  19.010  64.716  1.00  0.00     0.986 C  
HETATM   16  C   UNL     1      -7.844  20.420  66.643  1.00  0.00    -0.264 C  
HETATM   17  C   UNL     1      -8.201  19.908  65.240  1.00  0.00     0.699 C  
HETATM   18  C   UNL     1      -6.870  17.834  65.690  1.00  0.00    -0.109 C  
ENDBRANCH   4   9
BRANCH   7  19
HETATM   19  C   UNL     1      -6.398  13.347  68.020  1.00  0.00    -0.132 A  
HETATM   20  C   UNL     1      -6.720   9.509  66.253  1.00  0.00    -0.075 A  
HETATM   21  C   UNL     1      -7.775  11.514  67.147  1.00  0.00    -0.160 A  
HETATM   22  C   UNL     1      -5.360  11.295  67.191  1.00  0.00    -0.065 A  
HETATM   23  C   UNL     1      -5.259  12.571  67.741  1.00  0.00    -0.101 A  
HETATM   24  C   UNL     1      -7.653  12.786  67.733  1.00  0.00    -0.141 A  
HETATM   25  C   UNL     1      -6.611  10.762  66.872  1.00  0.00    -0.091 A  
HETATM   26  C   UNL     1      -7.976   9.000  65.908  1.00  0.00    -0.103 A  
HETATM   27  C   UNL     1      -9.128   9.746  66.178  1.00  0.00    -0.198 A  
HETATM   28  C   UNL     1      -8.127   7.712  65.188  1.00  0.00    -0.134 C  
HETATM   29  O   UNL     1      -9.034   7.501  64.402  1.00  0.00     0.553 OA 
HETATM   30  C   UNL     1      -9.029  10.989  66.803  1.00  0.00    -0.163 A  
HETATM   31  O   UNL     1      -7.193   6.791  65.502  1.00  0.00    -0.072 OA 
ENDBRANCH   7  19
ENDBRANCH   2   3
TORSDOF 3
ENDMDL
MODEL      120
REMARK 921   NORMALIZED FREE ENERGY PREDICTED BY IDOCK:   -1.37 KCAL/MOL
REMARK 922        TOTAL FREE ENERGY PREDICTED BY IDOCK:   -2.40 KCAL/MOL
REMARK 923 INTER-LIGAND FREE ENERGY PREDICTED BY IDOCK:   -1.68 KCAL/MOL
REMARK 924 INTRA-LIGAND FREE ENERGY PREDICTED BY IDOCK:   -0.72 KCAL/MOL
REMARK 927      BINDING AFFINITY PREDICTED BY RF-SCORE:    0.00 PKD
ROOT
HETATM    1  C   UNL     1      -5.735   3.833  70.810  1.00  0.00    -0.013 C  
HETATM    2  O   UNL     1      -6.822   4.596  70.281  1.00  0.00    -0.035 OA 
ENDROOT
BRANCH   2   3
HETATM    3  C   UNL     1      -6.706   5.962  70.368  1.00  0.00    -0.049 A  
HETATM    4  C   UNL     1      -6.867   6.741  69.191  1.00  0.00    -0.065 A  
HETATM    5  C   UNL     1      -6.748   8.140  69.342  1.00  0.00    -0.042 A  
HETATM    6  C   UNL     1      -6.385   6.586  71.585  1.00  0.00    -0.042 A  
HETATM    7  C   UNL     1      -6.408   8.776  70.548  1.00  0.00    -0.038 A  
HETATM    8  C   UNL     1      -6.229   7.967  71.670  1.00  0.00    -0.040 A  
BRANCH   4   9
HETATM    9  C   UNL     1      -7.097   6.148  67.778  1.00  0.00    -0.081 C  
HETATM   10  C   UNL     1      -7.030   7.289  66.721  1.00  0.00    -0.074 C  
HETATM   11  C   UNL     1      -6.066   5.032  67.452  1.00  0.00    -0.030 C  
HETATM   12  C   UNL     1      -7.620   3.881  65.860  1.00  0.00    -0.089 C  
HETATM   13  C   UNL     1      -6.094   5.696  65.032  1.00  0.00    -0.022 C  
HETATM   14  C   UNL     1      -6.233   4.519  66.012  1.00  0.00    -0.032 C  
HETATM   15  C   UNL     1      -8.700   4.927  66.153  1.00  0.00    -0.117 C  
HETATM   16  C   UNL     1      -7.193   6.739  65.292  1.00  0.00    -0.073 C  
HETATM   17  C   UNL     1      -8.571   6.077  65.145  1.00  0.00    -0.073 C  
HETATM   18  C   UNL     1      -8.512   5.481  67.578  1.00  0.00    -0.106 C  
ENDBRANCH   4   9
BRANCH   7  19
HETATM   19  C   UNL     1      -6.192  10.235  70.600  1.00  0.00    -0.093 A  
HETATM   20  C   UNL     1      -5.767  14.441  70.879  1.00  0.00    -0.191 A  
HETATM   21  C   UNL     1      -6.390  12.465  69.599  1.00  0.00    -0.107 A  
HETATM   22  C   UNL     1      -5.497  12.223  71.840  1.00  0.00     0.403 A  
HETATM   23  C   UNL     1      -5.670  10.844  71.755  1.00  0.00     0.514 A  
HETATM   24  C   UNL     1      -6.527  11.068  69.521  1.00  0.00    -0.109 A  
HETATM   25  C   UNL     1      -5.871  13.047  70.776  1.00  0.00    -0.091 A  
HETATM   26  C   UNL     1      -6.175  15.258  69.819  1.00  0.00    -0.155 A  
HETATM   27  C   UNL     1      -6.692  14.683  68.654  1.00  0.00    -0.086 A  
HETATM   28  C   UNL     1      -6.148  16.739  69.917  1.00  0.00    -0.194 C  
HETATM   29  O   UNL     1      -6.953  17.450  69.343  1.00  0.00    -0.219 OA 
HETATM   30  C   UNL     1      -6.789  13.295  68.540  1.00  0.00    -0.099 A  
HETATM   31  O   UNL     1      -5.139  17.223  70.670  1.00  0.00    -0.235 OA 
ENDBRANCH   7  19
ENDBRANCH   2   3
TORSDOF 3
ENDMDL
MODEL      121
REMARK 921   NORMALIZED FREE ENERGY PREDICTED BY IDOCK:   -0.79 KCAL/MOL
REMARK 922        TOTAL FREE ENERGY PREDICTED BY IDOCK:   -1.72 KCAL/MOL
REMARK 923 INTER-LIGAND FREE ENERGY PREDICTED BY IDOCK:   -2.53 KCAL/MOL
REMARK 924 INTRA-LIGAND FREE ENERGY PREDICTED BY IDOCK:    0.81 KCAL/MOL
REMARK 927      BINDING AFFINITY PREDICTED BY RF-SCORE:    0.00 PKD
ROOT
HETATM    1  C   UNL     1      -6.653   7.152  65.241  1.00  0.00    -0.047 C  
HETATM    2  O   UNL     1      -7.946   7.762  65.239  1.00  0.00    -0.112 OA 
ENDROOT
BRANCH   2   3
HETATM    3  C   UNL     1      -8.006   9.063  65.678  1.00  0.00    -0.104 A  
HETATM    4  C   UNL     1      -8.221   9.311  67.060  1.00  0.00    -0.116 A  
HETATM    5  C   UNL     1      -8.263  10.666  67.456  1.00  0.00    -0.111 A  
HETATM    6  C   UNL     1      -7.905  10.137  64.779  1.00  0.00    -0.146 A  
HETATM    7  C   UNL     1      -8.183  11.751  66.565  1.00  0.00    -0.066 A  
HETATM    8  C   UNL     1      -8.003  11.456  65.214  1.00  0.00     0.606 A  
BRANCH   4   9
HETATM    9  C   UNL     1      -8.471   8.206  68.116  1.00  0.00    -0.126 C  
HETATM   10  C   UNL     1      -9.969   8.222  68.538  1.00  0.00    -0.206 C  
HETATM   11  C   UNL     1      -8.063   6.804  67.584  1.00  0.00    -0.116 C  
HETATM   12  C   UNL     1      -7.602   5.920  69.882  1.00  0.00    -0.080 C  
HETATM   13  C   UNL     1      -9.912   5.747  68.910  1.00  0.00    -0.211 C  
HETATM   14  C   UNL     1      -8.407   5.698  68.595  1.00  0.00    -0.106 C  
HETATM   15  C   UNL     1      -7.960   7.284  70.481  1.00  0.00    -0.104 C  
HETATM   16  C   UNL     1     -10.280   7.098  69.544  1.00  0.00    -0.201 C  
HETATM   17  C   UNL     1      -9.455   7.304  70.823  1.00  0.00    -0.164 C  
HETATM   18  C   UNL     1      -7.662   8.394  69.456  1.00  0.00    -0.096 C  
ENDBRANCH   4   9
BRANCH   7  19
HETATM   19  C   UNL     1      -8.347  13.136  67.043  1.00  0.00    -0.094 A  
HETATM   20  C   UNL     1      -9.010  17.135  68.280  1.00  0.00    -0.248 A  
HETATM   21  C   UNL     1      -7.780  15.521  66.934  1.00  0.00    -0.200 A  
HETATM   22  C   UNL     1      -9.517  14.762  68.445  1.00  0.00    -0.213 A  
HETATM   23  C   UNL     1      -9.318  13.453  68.011  1.00  0.00    -0.217 A  
HETATM   24  C   UNL     1      -7.572  14.190  66.532  1.00  0.00     1.415 A  
HETATM   25  C   UNL     1      -8.768  15.807  67.901  1.00  0.00    -0.170 A  
HETATM   26  C   UNL     1      -8.276  18.177  67.704  1.00  0.00    -0.243 A  
HETATM   27  C   UNL     1      -7.300  17.894  66.743  1.00  0.00    -0.234 A  
HETATM   28  C   UNL     1      -8.552  19.599  68.025  1.00  0.00    -0.312 C  
HETATM   29  O   UNL     1      -8.393  20.498  67.217  1.00  0.00    -0.337 OA 
HETATM   30  C   UNL     1      -7.046  16.574  66.368  1.00  0.00    -0.023 A  
HETATM   31  O   UNL     1      -8.963  19.808  69.293  1.00  0.00    -0.148 OA 
ENDBRANCH   7  19
ENDBRANCH   2   3
TORSDOF 3
ENDMDL
MODEL      122
REMARK 921   NORMALIZED FREE ENERGY PREDICTED BY IDOCK:   -0.58 KCAL/MOL
REMARK 922        TOTAL FREE ENERGY PREDICTED BY IDOCK:   -1.47 KCAL/MOL
REMARK 923 INTER-LIGAND FREE ENERGY PREDICTED BY IDOCK:   -1.14 KCAL/MOL
REMARK 924 INTRA-LIGAND FREE ENERGY PREDICTED BY IDOCK:   -0.33 KCAL/MOL
REMARK 927      BINDING AFFINITY PREDICTED BY RF-SCORE:    0.00 PKD
ROOT
HETATM    1  C   UNL     1      -6.528  19.457  65.106  1.00  0.00    -0.267 C  
HETATM    2  O   UNL     1      -6.186  19.169  66.464  1.00  0.00    -0.173 OA 
ENDROOT
BRANCH   2   3
HETATM    3  C   UNL     1      -6.269  17.852  66.846  1.00  0.00    -0.160 A  
HETATM    4  C   UNL     1      -7.503  17.360  67.352  1.00  0.00    -0.201 A  
HETATM    5  C   UNL     1      -7.532  15.997  67.719  1.00  0.00    -0.153 A  
HETATM    6  C   UNL     1      -5.148  17.008  66.788  1.00  0.00    -0.168 A  
HETATM    7  C   UNL     1      -6.414  15.146  67.684  1.00  0.00    -0.180 A  
HETATM    8  C   UNL     1      -5.217  15.683  67.210  1.00  0.00     0.184 A  
BRANCH   4   9
HETATM    9  C   UNL     1      -8.762  18.233  67.576  1.00  0.00    -0.256 C  
HETATM   10  C   UNL     1      -9.668  17.568  68.655  1.00  0.00    -0.319 C  
HETATM   11  C   UNL     1      -8.387  19.684  67.989  1.00  0.00    -0.341 C  
HETATM   12  C   UNL     1     -10.503  20.639  67.048  1.00  0.00     0.175 C  
HETATM   13  C   UNL     1     -10.442  19.822  69.422  1.00  0.00     0.174 C  
HETATM   14  C   UNL     1      -9.639  20.517  68.309  1.00  0.00    -0.052 C  
HETATM   15  C   UNL     1     -10.930  19.243  66.582  1.00  0.00    -0.285 C  
HETATM   16  C   UNL     1     -10.906  18.432  68.957  1.00  0.00     0.790 C  
HETATM   17  C   UNL     1     -11.759  18.577  67.688  1.00  0.00     1.670 C  
HETATM   18  C   UNL     1      -9.680  18.386  66.303  1.00  0.00    -0.298 C  
ENDBRANCH   4   9
BRANCH   7  19
HETATM   19  C   UNL     1      -6.499  13.763  68.190  1.00  0.00    -0.124 A  
HETATM   20  C   UNL     1      -6.689   9.715  69.426  1.00  0.00    -0.053 A  
HETATM   21  C   UNL     1      -7.812  11.783  68.798  1.00  0.00    -0.076 A  
HETATM   22  C   UNL     1      -5.391  11.703  68.899  1.00  0.00    -0.049 A  
HETATM   23  C   UNL     1      -5.334  13.024  68.461  1.00  0.00    -0.063 A  
HETATM   24  C   UNL     1      -7.734  13.125  68.387  1.00  0.00    -0.138 A  
HETATM   25  C   UNL     1      -6.623  11.065  69.054  1.00  0.00    -0.065 A  
HETATM   26  C   UNL     1      -7.929   9.077  69.546  1.00  0.00    -0.099 A  
HETATM   27  C   UNL     1      -9.106   9.786  69.289  1.00  0.00    -0.189 A  
HETATM   28  C   UNL     1      -8.037   7.632  69.867  1.00  0.00    -0.124 C  
HETATM   29  O   UNL     1      -8.942   6.932  69.449  1.00  0.00    -0.138 OA 
HETATM   30  C   UNL     1      -9.049  11.134  68.929  1.00  0.00    -0.098 A  
HETATM   31  O   UNL     1      -7.065   7.174  70.684  1.00  0.00    -0.063 OA 
ENDBRANCH   7  19
ENDBRANCH   2   3
TORSDOF 3
ENDMDL
MODEL      123
REMARK 921   NORMALIZED FREE ENERGY PREDICTED BY IDOCK:   -0.46 KCAL/MOL
REMARK 922        TOTAL FREE ENERGY PREDICTED BY IDOCK:   -1.33 KCAL/MOL
REMARK 923 INTER-LIGAND FREE ENERGY PREDICTED BY IDOCK:   -4.38 KCAL/MOL
REMARK 924 INTRA-LIGAND FREE ENERGY PREDICTED BY IDOCK:    3.05 KCAL/MOL
REMARK 927      BINDING AFFINITY PREDICTED BY RF-SCORE:    0.00 PKD
ROOT
HETATM    1  C   UNL     1      -5.567   3.522  66.324  1.00  0.00    -0.018 C  
HETATM    2  O   UNL     1      -6.192   3.960  65.115  1.00  0.00    -0.026 OA 
ENDROOT
BRANCH   2   3
HETATM    3  C   UNL     1      -6.862   5.158  65.177  1.00  0.00    -0.049 A  
HETATM    4  C   UNL     1      -7.735   5.402  66.271  1.00  0.00    -0.099 A  
HETATM    5  C   UNL     1      -8.387   6.654  66.287  1.00  0.00    -0.125 A  
HETATM    6  C   UNL     1      -6.731   6.115  64.156  1.00  0.00    -0.038 A  
HETATM    7  C   UNL     1      -8.281   7.612  65.264  1.00  0.00    -0.136 A  
HETATM    8  C   UNL     1      -7.437   7.314  64.195  1.00  0.00    -0.099 A  
BRANCH   4   9
HETATM    9  C   UNL     1      -8.048   4.369  67.382  1.00  0.00    -0.100 C  
HETATM   10  C   UNL     1      -8.953   3.243  66.801  1.00  0.00    -0.170 C  
HETATM   11  C   UNL     1      -6.750   3.773  67.992  1.00  0.00    -0.046 C  
HETATM   12  C   UNL     1      -7.849   3.287  70.190  1.00  0.00    -0.046 C  
HETATM   13  C   UNL     1      -7.910   1.578  68.351  1.00  0.00    -0.051 C  
HETATM   14  C   UNL     1      -7.066   2.676  69.021  1.00  0.00    -0.044 C  
HETATM   15  C   UNL     1      -9.160   3.887  69.670  1.00  0.00    -0.188 C  
HETATM   16  C   UNL     1      -9.243   2.158  67.854  1.00  0.00    -0.233 C  
HETATM   17  C   UNL     1     -10.004   2.774  69.037  1.00  0.00     0.581 C  
HETATM   18  C   UNL     1      -8.853   4.956  68.604  1.00  0.00    -0.116 C  
ENDBRANCH   4   9
BRANCH   7  19
HETATM   19  C   UNL     1      -9.083   8.849  65.300  1.00  0.00    -0.196 A  
HETATM   20  C   UNL     1     -11.185  12.528  65.381  1.00  0.00    -0.343 A  
HETATM   21  C   UNL     1     -10.275  10.593  66.548  1.00  0.00    -0.288 A  
HETATM   22  C   UNL     1     -10.072  10.759  64.137  1.00  0.00    -0.418 A  
HETATM   23  C   UNL     1      -9.352   9.566  64.120  1.00  0.00    -0.042 A  
HETATM   24  C   UNL     1      -9.576   9.374  66.505  1.00  0.00    -0.267 A  
HETATM   25  C   UNL     1     -10.523  11.293  65.346  1.00  0.00    -0.326 A  
HETATM   26  C   UNL     1     -11.603  13.068  66.602  1.00  0.00    -0.410 A  
HETATM   27  C   UNL     1     -11.356  12.377  67.792  1.00  0.00    -0.356 A  
HETATM   28  C   UNL     1     -12.243  14.405  66.688  1.00  0.00    -0.311 C  
HETATM   29  O   UNL     1     -12.110  15.136  67.653  1.00  0.00    -0.137 OA 
HETATM   30  C   UNL     1     -10.706  11.142  67.764  1.00  0.00    -0.267 A  
HETATM   31  O   UNL     1     -13.004  14.721  65.620  1.00  0.00    -0.019 OA 
ENDBRANCH   7  19
ENDBRANCH   2   3
TORSDOF 3
ENDMDL
MODEL      124
REMARK 921   NORMALIZED FREE ENERGY PREDICTED BY IDOCK:    2.17 KCAL/MOL
REMARK 922        TOTAL FREE ENERGY PREDICTED BY IDOCK:    1.76 KCAL/MOL
REMARK 923 INTER-LIGAND FREE ENERGY PREDICTED BY IDOCK:    1.87 KCAL/MOL
REMARK 924 INTRA-LIGAND FREE ENERGY PREDICTED BY IDOCK:   -0.11 KCAL/MOL
REMARK 927      BINDING AFFINITY PREDICTED BY RF-SCORE:    0.00 PKD
ROOT
HETATM    1  C   UNL     1     -10.045  14.406  64.530  1.00  0.00     0.368 C  
HETATM    2  O   UNL     1      -8.765  13.952  64.978  1.00  0.00     2.205 OA 
ENDROOT
BRANCH   2   3
HETATM    3  C   UNL     1      -8.756  12.805  65.733  1.00  0.00     0.839 A  
HETATM    4  C   UNL     1      -8.648  12.914  67.146  1.00  0.00    -0.198 A  
HETATM    5  C   UNL     1      -8.655  11.703  67.872  1.00  0.00    -0.150 A  
HETATM    6  C   UNL     1      -8.804  11.538  65.129  1.00  0.00     0.190 A  
HETATM    7  C   UNL     1      -8.683  10.429  67.279  1.00  0.00    -0.125 A  
HETATM    8  C   UNL     1      -8.757  10.372  65.888  1.00  0.00    -0.170 A  
BRANCH   4   9
HETATM    9  C   UNL     1      -8.463  14.251  67.905  1.00  0.00    -0.168 C  
HETATM   10  C   UNL     1      -6.975  14.699  67.810  1.00  0.00    -0.194 C  
HETATM   11  C   UNL     1      -9.407  15.357  67.355  1.00  0.00    -0.205 C  
HETATM   12  C   UNL     1      -9.458  16.583  69.538  1.00  0.00     0.047 C  
HETATM   13  C   UNL     1      -7.673  17.102  67.849  1.00  0.00    -0.188 C  
HETATM   14  C   UNL     1      -9.148  16.708  68.041  1.00  0.00    -0.218 C  
HETATM   15  C   UNL     1      -8.552  15.516  70.162  1.00  0.00     0.646 C  
HETATM   16  C   UNL     1      -6.752  16.057  68.500  1.00  0.00    -0.124 C  
HETATM   17  C   UNL     1      -7.088  15.941  69.994  1.00  0.00     0.242 C  
HETATM   18  C   UNL     1      -8.772  14.169  69.449  1.00  0.00     0.494 C  
ENDBRANCH   4   9
BRANCH   7  19
HETATM   19  C   UNL     1      -8.575   9.209  68.102  1.00  0.00    -0.129 A  
HETATM   20  C   UNL     1      -8.048   5.671  70.374  1.00  0.00    -0.105 A  
HETATM   21  C   UNL     1      -9.039   6.829  68.474  1.00  0.00    -0.129 A  
HETATM   22  C   UNL     1      -7.653   8.049  70.046  1.00  0.00    -0.082 A  
HETATM   23  C   UNL     1      -7.803   9.201  69.278  1.00  0.00    -0.095 A  
HETATM   24  C   UNL     1      -9.204   8.010  67.730  1.00  0.00    -0.142 A  
HETATM   25  C   UNL     1      -8.250   6.852  69.646  1.00  0.00    -0.131 A  
HETATM   26  C   UNL     1      -8.624   4.471  69.945  1.00  0.00    -0.096 A  
HETATM   27  C   UNL     1      -9.402   4.448  68.783  1.00  0.00    -0.213 A  
HETATM   28  C   UNL     1      -8.374   3.188  70.647  1.00  0.00    -0.056 C  
HETATM   29  O   UNL     1      -8.345   2.116  70.068  1.00  0.00    -0.044 OA 
HETATM   30  C   UNL     1      -9.617   5.621  68.058  1.00  0.00    -0.137 A  
HETATM   31  O   UNL     1      -8.213   3.312  71.981  1.00  0.00    -0.061 OA 
ENDBRANCH   7  19
ENDBRANCH   2   3
TORSDOF 3
ENDMDL
MODEL      125
REMARK 921   NORMALIZED FREE ENERGY PREDICTED BY IDOCK:    2.74 KCAL/MOL
REMARK 922        TOTAL FREE ENERGY PREDICTED BY IDOCK:    2.43 KCAL/MOL
REMARK 923 INTER-LIGAND FREE ENERGY PREDICTED BY IDOCK:    0.33 KCAL/MOL
REMARK 924 INTRA-LIGAND FREE ENERGY PREDICTED BY IDOCK:    2.10 KCAL/MOL
REMARK 927      BINDING AFFINITY PREDICTED BY RF-SCORE:    0.00 PKD
ROOT
HETATM    1  C   UNL     1     -13.430  15.952  68.624  1.00  0.00     4.161 C  
HETATM    2  O   UNL     1     -12.068  15.804  68.213  1.00  0.00    -0.106 OA 
ENDROOT
BRANCH   2   3
HETATM    3  C   UNL     1     -11.562  14.527  68.234  1.00  0.00    -0.329 A  
HETATM    4  C   UNL     1     -11.681  13.761  69.425  1.00  0.00    -0.379 A  
HETATM    5  C   UNL     1     -11.152  12.453  69.386  1.00  0.00    -0.149 A  
HETATM    6  C   UNL     1     -10.893  13.993  67.120  1.00  0.00    -0.288 A  
HETATM    7  C   UNL     1     -10.463  11.913  68.286  1.00  0.00    -0.221 A  
HETATM    8  C   UNL     1     -10.344  12.714  67.150  1.00  0.00    -0.239 A  
BRANCH   4   9
HETATM    9  C   UNL     1     -12.285  14.295  70.747  1.00  0.00    -0.423 C  
HETATM   10  C   UNL     1     -12.486  13.112  71.740  1.00  0.00    -0.049 C  
HETATM   11  C   UNL     1     -11.393  15.400  71.379  1.00  0.00    -0.449 C  
HETATM   12  C   UNL     1     -13.330  16.480  72.544  1.00  0.00     0.925 C  
HETATM   13  C   UNL     1     -12.054  14.638  73.677  1.00  0.00    -0.244 C  
HETATM   14  C   UNL     1     -11.944  15.854  72.741  1.00  0.00    -0.616 C  
HETATM   15  C   UNL     1     -14.279  15.444  71.934  1.00  0.00    -0.640 C  
HETATM   16  C   UNL     1     -13.030  13.603  73.094  1.00  0.00     0.369 C  
HETATM   17  C   UNL     1     -14.406  14.255  72.895  1.00  0.00     0.705 C  
HETATM   18  C   UNL     1     -13.711  14.950  70.591  1.00  0.00     0.004 C  
ENDBRANCH   4   9
BRANCH   7  19
HETATM   19  C   UNL     1      -9.842  10.577  68.363  1.00  0.00    -0.171 A  
HETATM   20  C   UNL     1      -8.270   6.646  68.540  1.00  0.00    -0.119 A  
HETATM   21  C   UNL     1      -9.021   8.670  69.668  1.00  0.00    -0.145 A  
HETATM   22  C   UNL     1      -9.011   8.568  67.246  1.00  0.00    -0.141 A  
HETATM   23  C   UNL     1      -9.559   9.848  67.194  1.00  0.00    -0.201 A  
HETATM   24  C   UNL     1      -9.543   9.973  69.594  1.00  0.00    -0.251 A  
HETATM   25  C   UNL     1      -8.755   7.960  68.476  1.00  0.00    -0.131 A  
HETATM   26  C   UNL     1      -8.048   6.036  69.779  1.00  0.00    -0.114 A  
HETATM   27  C   UNL     1      -8.315   6.737  70.959  1.00  0.00    -0.127 A  
HETATM   28  C   UNL     1      -7.605   4.624  69.887  1.00  0.00    -0.054 C  
HETATM   29  O   UNL     1      -7.927   3.903  70.815  1.00  0.00    -0.054 OA 
HETATM   30  C   UNL     1      -8.787   8.049  70.904  1.00  0.00    -0.147 A  
HETATM   31  O   UNL     1      -6.794   4.222  68.887  1.00  0.00    -0.045 OA 
ENDBRANCH   7  19
ENDBRANCH   2   3
TORSDOF 3
ENDMDL
MODEL      126
REMARK 921   NORMALIZED FREE ENERGY PREDICTED BY IDOCK:    2.87 KCAL/MOL
REMARK 922        TOTAL FREE ENERGY PREDICTED BY IDOCK:    2.59 KCAL/MOL
REMARK 923 INTER-LIGAND FREE ENERGY PREDICTED BY IDOCK:    3.00 KCAL/MOL
REMARK 924 INTRA-LIGAND FREE ENERGY PREDICTED BY IDOCK:   -0.41 KCAL/MOL
REMARK 927      BINDING AFFINITY PREDICTED BY RF-SCORE:    0.00 PKD
ROOT
HETATM    1  C   UNL     1     -10.764   3.311  68.394  1.00  0.00     3.743 C  
HETATM    2  O   UNL     1     -10.000   4.146  69.268  1.00  0.00    -0.138 OA 
ENDROOT
BRANCH   2   3
HETATM    3  C   UNL     1     -10.090   5.500  69.048  1.00  0.00    -0.205 A  
HETATM    4  C   UNL     1      -9.306   6.378  69.843  1.00  0.00    -0.156 A  
HETATM    5  C   UNL     1      -9.430   7.757  69.566  1.00  0.00    -0.160 A  
HETATM    6  C   UNL     1     -10.973   6.022  68.089  1.00  0.00    -0.340 A  
HETATM    7  C   UNL     1     -10.324   8.294  68.623  1.00  0.00    -0.225 A  
HETATM    8  C   UNL     1     -11.095   7.394  67.889  1.00  0.00     0.062 A  
BRANCH   4   9
HETATM    9  C   UNL     1      -8.396   5.919  71.010  1.00  0.00    -0.123 C  
HETATM   10  C   UNL     1      -7.095   6.775  71.020  1.00  0.00    -0.072 C  
HETATM   11  C   UNL     1      -9.128   6.012  72.377  1.00  0.00    -0.136 C  
HETATM   12  C   UNL     1      -7.736   4.196  73.395  1.00  0.00    -0.085 C  
HETATM   13  C   UNL     1      -6.964   6.583  73.512  1.00  0.00    -0.077 C  
HETATM   14  C   UNL     1      -8.190   5.653  73.541  1.00  0.00    -0.112 C  
HETATM   15  C   UNL     1      -6.988   4.022  72.070  1.00  0.00    -0.045 C  
HETATM   16  C   UNL     1      -6.184   6.395  72.201  1.00  0.00    -0.042 C  
HETATM   17  C   UNL     1      -5.750   4.928  72.071  1.00  0.00    -0.012 C  
HETATM   18  C   UNL     1      -7.906   4.424  70.901  1.00  0.00    -0.067 C  
ENDBRANCH   4   9
BRANCH   7  19
HETATM   19  C   UNL     1     -10.476   9.753  68.470  1.00  0.00    -0.239 A  
HETATM   20  C   UNL     1     -10.682  13.958  67.985  1.00  0.00    -0.255 A  
HETATM   21  C   UNL     1     -10.633  12.003  69.436  1.00  0.00     0.108 A  
HETATM   22  C   UNL     1     -10.606  11.722  67.028  1.00  0.00    -0.267 A  
HETATM   23  C   UNL     1     -10.506  10.343  67.194  1.00  0.00    -0.311 A  
HETATM   24  C   UNL     1     -10.563  10.606  69.582  1.00  0.00    -0.260 A  
HETATM   25  C   UNL     1     -10.652  12.565  68.141  1.00  0.00    -0.239 A  
HETATM   26  C   UNL     1     -10.694  14.792  69.107  1.00  0.00    -0.258 A  
HETATM   27  C   UNL     1     -10.671  14.236  70.390  1.00  0.00     0.529 A  
HETATM   28  C   UNL     1     -10.653  16.271  68.983  1.00  0.00    -0.286 C  
HETATM   29  O   UNL     1     -10.114  16.985  69.811  1.00  0.00    -0.022 OA 
HETATM   30  C   UNL     1     -10.652  12.850  70.554  1.00  0.00     2.868 A  
HETATM   31  O   UNL     1     -11.289  16.750  67.895  1.00  0.00    -0.177 OA 
ENDBRANCH   7  19
ENDBRANCH   2   3
TORSDOF 3
ENDMDL
MODEL      127
REMARK 921   NORMALIZED FREE ENERGY PREDICTED BY IDOCK:    3.01 KCAL/MOL
REMARK 922        TOTAL FREE ENERGY PREDICTED BY IDOCK:    2.74 KCAL/MOL
REMARK 923 INTER-LIGAND FREE ENERGY PREDICTED BY IDOCK:    3.45 KCAL/MOL
REMARK 924 INTRA-LIGAND FREE ENERGY PREDICTED BY IDOCK:   -0.70 KCAL/MOL
REMARK 927      BINDING AFFINITY PREDICTED BY RF-SCORE:    0.00 PKD
ROOT
HETATM    1  C   UNL     1     -13.411  15.947  68.610  1.00  0.00     3.608 C  
HETATM    2  O   UNL     1     -12.098  15.785  68.067  1.00  0.00     0.026 OA 
ENDROOT
BRANCH   2   3
HETATM    3  C   UNL     1     -11.591  14.507  68.072  1.00  0.00    -0.336 A  
HETATM    4  C   UNL     1     -10.206  14.319  68.325  1.00  0.00    -0.244 A  
HETATM    5  C   UNL     1      -9.744  12.984  68.328  1.00  0.00    -0.221 A  
HETATM    6  C   UNL     1     -12.410  13.402  67.787  1.00  0.00     0.009 A  
HETATM    7  C   UNL     1     -10.547  11.871  68.025  1.00  0.00    -0.234 A  
HETATM    8  C   UNL     1     -11.893  12.109  67.753  1.00  0.00    -0.327 A  
BRANCH   4   9
HETATM    9  C   UNL     1      -9.193  15.472  68.527  1.00  0.00    -0.197 C  
HETATM   10  C   UNL     1      -9.679  16.393  69.684  1.00  0.00     0.027 C  
HETATM   11  C   UNL     1      -7.763  14.934  68.813  1.00  0.00    -0.139 C  
HETATM   12  C   UNL     1      -6.663  16.981  67.878  1.00  0.00    -0.158 C  
HETATM   13  C   UNL     1      -7.308  16.900  70.304  1.00  0.00     1.793 C  
HETATM   14  C   UNL     1      -6.783  16.080  69.113  1.00  0.00    -0.174 C  
HETATM   15  C   UNL     1      -8.037  17.567  67.536  1.00  0.00    -0.213 C  
HETATM   16  C   UNL     1      -8.671  17.523  69.963  1.00  0.00     2.121 C  
HETATM   17  C   UNL     1      -8.530  18.411  68.718  1.00  0.00    -0.252 C  
HETATM   18  C   UNL     1      -9.037  16.425  67.279  1.00  0.00    -0.211 C  
ENDBRANCH   4   9
BRANCH   7  19
HETATM   19  C   UNL     1      -9.964  10.519  67.940  1.00  0.00    -0.193 A  
HETATM   20  C   UNL     1      -8.302   6.621  67.930  1.00  0.00    -0.119 A  
HETATM   21  C   UNL     1      -8.023   9.032  67.736  1.00  0.00    -0.101 A  
HETATM   22  C   UNL     1     -10.235   8.092  68.052  1.00  0.00    -0.260 A  
HETATM   23  C   UNL     1     -10.772   9.377  68.088  1.00  0.00    -0.230 A  
HETATM   24  C   UNL     1      -8.588  10.320  67.743  1.00  0.00    -0.118 A  
HETATM   25  C   UNL     1      -8.860   7.906  67.896  1.00  0.00    -0.123 A  
HETATM   26  C   UNL     1      -6.919   6.449  67.805  1.00  0.00    -0.075 A  
HETATM   27  C   UNL     1      -6.090   7.564  67.651  1.00  0.00    -0.047 A  
HETATM   28  C   UNL     1      -6.284   5.112  67.908  1.00  0.00    -0.035 C  
HETATM   29  O   UNL     1      -5.166   4.949  68.363  1.00  0.00    -0.003 OA 
HETATM   30  C   UNL     1      -6.639   8.847  67.606  1.00  0.00    -0.061 A  
HETATM   31  O   UNL     1      -7.041   4.104  67.429  1.00  0.00    -0.064 OA 
ENDBRANCH   7  19
ENDBRANCH   2   3
TORSDOF 3
ENDMDL
MODEL      128
REMARK 921   NORMALIZED FREE ENERGY PREDICTED BY IDOCK:    3.63 KCAL/MOL
REMARK 922        TOTAL FREE ENERGY PREDICTED BY IDOCK:    3.48 KCAL/MOL
REMARK 923 INTER-LIGAND FREE ENERGY PREDICTED BY IDOCK:    3.96 KCAL/MOL
REMARK 924 INTRA-LIGAND FREE ENERGY PREDICTED BY IDOCK:   -0.49 KCAL/MOL
REMARK 927      BINDING AFFINITY PREDICTED BY RF-SCORE:    0.00 PKD
ROOT
HETATM    1  C   UNL     1      -5.925  18.876  72.131  1.00  0.00     0.898 C  
HETATM    2  O   UNL     1      -6.745  18.764  70.964  1.00  0.00     1.124 OA 
ENDROOT
BRANCH   2   3
HETATM    3  C   UNL     1      -6.841  17.513  70.406  1.00  0.00     1.485 A  
HETATM    4  C   UNL     1      -6.807  17.388  68.991  1.00  0.00    -0.244 A  
HETATM    5  C   UNL     1      -6.899  16.078  68.473  1.00  0.00    -0.129 A  
HETATM    6  C   UNL     1      -7.017  16.372  71.206  1.00  0.00     3.679 A  
HETATM    7  C   UNL     1      -7.095  14.931  69.261  1.00  0.00    -0.160 A  
HETATM    8  C   UNL     1      -7.153  15.107  70.643  1.00  0.00     0.649 A  
BRANCH   4   9
HETATM    9  C   UNL     1      -6.742  18.587  68.012  1.00  0.00    -0.222 C  
HETATM   10  C   UNL     1      -5.254  18.966  67.755  1.00  0.00    -0.170 C  
HETATM   11  C   UNL     1      -7.470  18.274  66.675  1.00  0.00    -0.253 C  
HETATM   12  C   UNL     1      -7.982  20.687  66.237  1.00  0.00     0.081 C  
HETATM   13  C   UNL     1      -5.821  19.695  65.429  1.00  0.00    -0.219 C  
HETATM   14  C   UNL     1      -7.316  19.427  65.670  1.00  0.00    -0.214 C  
HETATM   15  C   UNL     1      -7.307  21.073  67.557  1.00  0.00    -0.274 C  
HETATM   16  C   UNL     1      -5.136  20.117  66.739  1.00  0.00    -0.163 C  
HETATM   17  C   UNL     1      -5.826  21.372  67.294  1.00  0.00    -0.422 C  
HETATM   18  C   UNL     1      -7.417  19.905  68.555  1.00  0.00    -0.300 C  
ENDBRANCH   4   9
BRANCH   7  19
HETATM   19  C   UNL     1      -7.293  13.609  68.637  1.00  0.00    -0.113 A  
HETATM   20  C   UNL     1      -7.956   9.737  67.048  1.00  0.00    -0.105 A  
HETATM   21  C   UNL     1      -6.440  11.409  67.963  1.00  0.00    -0.057 A  
HETATM   22  C   UNL     1      -8.784  11.945  67.643  1.00  0.00    -0.162 A  
HETATM   23  C   UNL     1      -8.567  13.205  68.197  1.00  0.00    -0.181 A  
HETATM   24  C   UNL     1      -6.236  12.697  68.490  1.00  0.00    -0.067 A  
HETATM   25  C   UNL     1      -7.733  11.031  67.538  1.00  0.00    -0.114 A  
HETATM   26  C   UNL     1      -6.902   8.819  66.978  1.00  0.00    -0.070 A  
HETATM   27  C   UNL     1      -5.623   9.192  67.402  1.00  0.00    -0.042 A  
HETATM   28  C   UNL     1      -7.113   7.419  66.534  1.00  0.00    -0.074 C  
HETATM   29  O   UNL     1      -6.455   6.487  66.962  1.00  0.00    -0.039 OA 
HETATM   30  C   UNL     1      -5.391  10.482  67.882  1.00  0.00    -0.037 A  
HETATM   31  O   UNL     1      -8.072   7.276  65.596  1.00  0.00    -0.118 OA 
ENDBRANCH   7  19
ENDBRANCH   2   3
TORSDOF 3
ENDMDL
MODEL      129
REMARK 921   NORMALIZED FREE ENERGY PREDICTED BY IDOCK:    4.01 KCAL/MOL
REMARK 922        TOTAL FREE ENERGY PREDICTED BY IDOCK:    3.93 KCAL/MOL
REMARK 923 INTER-LIGAND FREE ENERGY PREDICTED BY IDOCK:    4.62 KCAL/MOL
REMARK 924 INTRA-LIGAND FREE ENERGY PREDICTED BY IDOCK:   -0.69 KCAL/MOL
REMARK 927      BINDING AFFINITY PREDICTED BY RF-SCORE:    0.00 PKD
ROOT
HETATM    1  C   UNL     1     -10.958   9.733  70.204  1.00  0.00    -0.291 C  
HETATM    2  O   UNL     1     -11.270  11.098  70.492  1.00  0.00    -0.112 OA 
ENDROOT
BRANCH   2   3
HETATM    3  C   UNL     1     -10.541  12.044  69.813  1.00  0.00     0.662 A  
HETATM    4  C   UNL     1     -10.791  13.419  70.070  1.00  0.00     0.629 A  
HETATM    5  C   UNL     1     -10.005  14.346  69.351  1.00  0.00     0.093 A  
HETATM    6  C   UNL     1      -9.594  11.673  68.844  1.00  0.00    -0.006 A  
HETATM    7  C   UNL     1      -9.069  13.989  68.365  1.00  0.00    -0.191 A  
HETATM    8  C   UNL     1      -8.880  12.629  68.126  1.00  0.00    -0.194 A  
BRANCH   4   9
HETATM    9  C   UNL     1     -11.896  13.940  71.022  1.00  0.00    -0.135 C  
HETATM   10  C   UNL     1     -11.655  15.449  71.318  1.00  0.00    -0.440 C  
HETATM   11  C   UNL     1     -13.315  13.713  70.431  1.00  0.00     0.484 C  
HETATM   12  C   UNL     1     -14.386  13.617  72.693  1.00  0.00     0.017 C  
HETATM   13  C   UNL     1     -14.122  15.823  71.523  1.00  0.00    -0.066 C  
HETATM   14  C   UNL     1     -14.402  14.323  71.332  1.00  0.00    -0.261 C  
HETATM   15  C   UNL     1     -13.016  13.807  73.353  1.00  0.00     0.838 C  
HETATM   16  C   UNL     1     -12.765  16.029  72.215  1.00  0.00    -0.477 C  
HETATM   17  C   UNL     1     -12.767  15.305  73.570  1.00  0.00    -0.690 C  
HETATM   18  C   UNL     1     -11.917  13.240  72.436  1.00  0.00     1.740 C  
ENDBRANCH   4   9
BRANCH   7  19
HETATM   19  C   UNL     1      -8.367  15.021  67.579  1.00  0.00    -0.192 A  
HETATM   20  C   UNL     1      -6.309  18.101  65.522  1.00  0.00    -0.249 A  
HETATM   21  C   UNL     1      -8.398  17.033  66.176  1.00  0.00    -0.276 A  
HETATM   22  C   UNL     1      -6.280  16.062  66.847  1.00  0.00     0.189 A  
HETATM   23  C   UNL     1      -6.962  15.071  67.550  1.00  0.00    -0.214 A  
HETATM   24  C   UNL     1      -9.067  16.006  66.863  1.00  0.00    -0.251 A  
HETATM   25  C   UNL     1      -6.985  17.060  66.172  1.00  0.00    -0.103 A  
HETATM   26  C   UNL     1      -7.027  19.114  64.876  1.00  0.00     0.420 A  
HETATM   27  C   UNL     1      -8.425  19.089  64.883  1.00  0.00     3.070 A  
HETATM   28  C   UNL     1      -6.349  20.270  64.240  1.00  0.00    -0.217 C  
HETATM   29  O   UNL     1      -6.852  21.378  64.186  1.00  0.00     0.024 OA 
HETATM   30  C   UNL     1      -9.106  18.050  65.519  1.00  0.00     0.984 A  
HETATM   31  O   UNL     1      -5.146  19.977  63.704  1.00  0.00    -0.164 OA 
ENDBRANCH   7  19
ENDBRANCH   2   3
TORSDOF 3
ENDMDL
MODEL      130
REMARK 921   NORMALIZED FREE ENERGY PREDICTED BY IDOCK:    5.96 KCAL/MOL
REMARK 922        TOTAL FREE ENERGY PREDICTED BY IDOCK:    6.21 KCAL/MOL
REMARK 923 INTER-LIGAND FREE ENERGY PREDICTED BY IDOCK:    6.41 KCAL/MOL
REMARK 924 INTRA-LIGAND FREE ENERGY PREDICTED BY IDOCK:   -0.19 KCAL/MOL
REMARK 927      BINDING AFFINITY PREDICTED BY RF-SCORE:    0.00 PKD
ROOT
HETATM    1  C   UNL     1     -12.970   7.413  68.735  1.00  0.00     7.274 C  
HETATM    2  O   UNL     1     -11.737   7.555  69.444  1.00  0.00     0.359 OA 
ENDROOT
BRANCH   2   3
HETATM    3  C   UNL     1     -11.132   8.786  69.373  1.00  0.00     0.067 A  
HETATM    4  C   UNL     1     -10.055   9.075  70.254  1.00  0.00    -0.232 A  
HETATM    5  C   UNL     1      -9.466  10.352  70.128  1.00  0.00     0.325 A  
HETATM    6  C   UNL     1     -11.592   9.769  68.481  1.00  0.00     0.322 A  
HETATM    7  C   UNL     1      -9.928  11.351  69.254  1.00  0.00     0.086 A  
HETATM    8  C   UNL     1     -11.007  11.032  68.431  1.00  0.00    -0.281 A  
BRANCH   4   9
HETATM    9  C   UNL     1      -9.551   8.113  71.358  1.00  0.00    -0.212 C  
HETATM   10  C   UNL     1      -8.071   7.726  71.072  1.00  0.00    -0.098 C  
HETATM   11  C   UNL     1      -9.694   8.741  72.772  1.00  0.00     0.099 C  
HETATM   12  C   UNL     1      -9.882   6.507  73.889  1.00  0.00    -0.272 C  
HETATM   13  C   UNL     1      -7.623   7.543  73.528  1.00  0.00    -0.129 C  
HETATM   14  C   UNL     1      -9.099   7.825  73.855  1.00  0.00    -0.298 C  
HETATM   15  C   UNL     1      -9.778   5.813  72.527  1.00  0.00    -0.175 C  
HETATM   16  C   UNL     1      -7.505   6.816  72.178  1.00  0.00    -0.093 C  
HETATM   17  C   UNL     1      -8.305   5.506  72.231  1.00  0.00    -0.119 C  
HETATM   18  C   UNL     1     -10.330   6.743  71.430  1.00  0.00    -0.223 C  
ENDBRANCH   4   9
BRANCH   7  19
HETATM   19  C   UNL     1      -9.328  12.699  69.261  1.00  0.00     0.893 A  
HETATM   20  C   UNL     1      -7.729  16.619  69.085  1.00  0.00    -0.186 A  
HETATM   21  C   UNL     1      -7.477  14.222  68.739  1.00  0.00    -0.129 A  
HETATM   22  C   UNL     1      -9.534  15.099  69.676  1.00  0.00    -0.104 A  
HETATM   23  C   UNL     1     -10.067  13.812  69.700  1.00  0.00     0.699 A  
HETATM   24  C   UNL     1      -8.021  12.927  68.802  1.00  0.00     0.065 A  
HETATM   25  C   UNL     1      -8.247  15.320  69.180  1.00  0.00    -0.234 A  
HETATM   26  C   UNL     1      -6.451  16.831  68.557  1.00  0.00    -0.155 A  
HETATM   27  C   UNL     1      -5.690  15.744  68.117  1.00  0.00    -0.129 A  
HETATM   28  C   UNL     1      -5.897  18.195  68.374  1.00  0.00    -0.178 C  
HETATM   29  O   UNL     1      -5.129  18.477  67.470  1.00  0.00    -0.147 OA 
HETATM   30  C   UNL     1      -6.194  14.446  68.218  1.00  0.00    -0.120 A  
HETATM   31  O   UNL     1      -6.294  19.082  69.310  1.00  0.00    -0.268 OA 
ENDBRANCH   7  19
ENDBRANCH   2   3
TORSDOF 3
ENDMDL
MODEL      131
REMARK 921   NORMALIZED FREE ENERGY PREDICTED BY IDOCK:    6.95 KCAL/MOL
REMARK 922        TOTAL FREE ENERGY PREDICTED BY IDOCK:    7.38 KCAL/MOL
REMARK 923 INTER-LIGAND FREE ENERGY PREDICTED BY IDOCK:    2.03 KCAL/MOL
REMARK 924 INTRA-LIGAND FREE ENERGY PREDICTED BY IDOCK:    5.34 KCAL/MOL
REMARK 927      BINDING AFFINITY PREDICTED BY RF-SCORE:    0.00 PKD
ROOT
HETATM    1  C   UNL     1      -9.963  16.407  66.316  1.00  0.00    -0.323 C  
HETATM    2  O   UNL     1      -8.762  16.084  67.022  1.00  0.00    -0.184 OA 
ENDROOT
BRANCH   2   3
HETATM    3  C   UNL     1      -8.332  14.783  66.927  1.00  0.00    -0.151 A  
HETATM    4  C   UNL     1      -9.190  13.817  66.335  1.00  0.00    -0.158 A  
HETATM    5  C   UNL     1      -8.691  12.499  66.254  1.00  0.00     0.139 A  
HETATM    6  C   UNL     1      -7.087  14.390  67.446  1.00  0.00    -0.121 A  
HETATM    7  C   UNL     1      -7.457  12.088  66.786  1.00  0.00     0.023 A  
HETATM    8  C   UNL     1      -6.663  13.066  67.386  1.00  0.00    -0.123 A  
BRANCH   4   9
HETATM    9  C   UNL     1     -10.629  14.115  65.846  1.00  0.00    -0.301 C  
HETATM   10  C   UNL     1     -11.286  12.798  65.337  1.00  0.00    -0.327 C  
HETATM   11  C   UNL     1     -11.491  14.764  66.964  1.00  0.00    -0.362 C  
HETATM   12  C   UNL     1     -12.975  15.936  65.321  1.00  0.00     2.277 C  
HETATM   13  C   UNL     1     -13.535  13.608  66.079  1.00  0.00     1.531 C  
HETATM   14  C   UNL     1     -12.945  14.963  66.507  1.00  0.00     1.487 C  
HETATM   15  C   UNL     1     -12.155  15.358  64.163  1.00  0.00    -0.104 C  
HETATM   16  C   UNL     1     -12.742  13.031  64.895  1.00  0.00    -0.456 C  
HETATM   17  C   UNL     1     -12.776  14.026  63.725  1.00  0.00     0.310 C  
HETATM   18  C   UNL     1     -10.707  15.113  64.627  1.00  0.00    -0.234 C  
ENDBRANCH   4   9
BRANCH   7  19
HETATM   19  C   UNL     1      -7.056  10.669  66.761  1.00  0.00    -0.118 A  
HETATM   20  C   UNL     1      -5.839   6.621  66.464  1.00  0.00    -0.021 A  
HETATM   21  C   UNL     1      -7.611   8.291  66.528  1.00  0.00    -0.092 A  
HETATM   22  C   UNL     1      -5.297   8.972  66.775  1.00  0.00    -0.039 A  
HETATM   23  C   UNL     1      -5.700  10.304  66.839  1.00  0.00    -0.046 A  
HETATM   24  C   UNL     1      -8.000   9.638  66.626  1.00  0.00    -0.109 A  
HETATM   25  C   UNL     1      -6.240   7.957  66.601  1.00  0.00    -0.050 A  
HETATM   26  C   UNL     1      -6.791   5.617  66.257  1.00  0.00    -0.059 A  
HETATM   27  C   UNL     1      -8.148   5.948  66.181  1.00  0.00    -0.109 A  
HETATM   28  C   UNL     1      -6.401   4.202  66.036  1.00  0.00    -0.033 C  
HETATM   29  O   UNL     1      -7.044   3.446  65.330  1.00  0.00    -0.059 OA 
HETATM   30  C   UNL     1      -8.556   7.275  66.326  1.00  0.00    -0.147 A  
HETATM   31  O   UNL     1      -5.294   3.825  66.708  1.00  0.00    -0.012 OA 
ENDBRANCH   7  19
ENDBRANCH   2   3
TORSDOF 3
ENDMDL
MODEL      132
REMARK 921   NORMALIZED FREE ENERGY PREDICTED BY IDOCK:    9.10 KCAL/MOL
REMARK 922        TOTAL FREE ENERGY PREDICTED BY IDOCK:    9.91 KCAL/MOL
REMARK 923 INTER-LIGAND FREE ENERGY PREDICTED BY IDOCK:    6.48 KCAL/MOL
REMARK 924 INTRA-LIGAND FREE ENERGY PREDICTED BY IDOCK:    3.43 KCAL/MOL
REMARK 927      BINDING AFFINITY PREDICTED BY RF-SCORE:    0.00 PKD
ROOT
HETATM    1  C   UNL     1      -8.645  15.919  70.558  1.00  0.00     2.009 C  
HETATM    2  O   UNL     1      -8.452  14.581  71.023  1.00  0.00     2.469 OA 
ENDROOT
BRANCH   2   3
HETATM    3  C   UNL     1      -8.034  13.666  70.088  1.00  0.00     2.138 A  
HETATM    4  C   UNL     1      -8.487  13.799  68.747  1.00  0.00     0.026 A  
HETATM    5  C   UNL     1      -8.017  12.836  67.827  1.00  0.00    -0.157 A  
HETATM    6  C   UNL     1      -7.212  12.585  70.447  1.00  0.00     2.223 A  
HETATM    7  C   UNL     1      -7.210  11.740  68.176  1.00  0.00    -0.086 A  
HETATM    8  C   UNL     1      -6.817  11.634  69.510  1.00  0.00    -0.051 A  
BRANCH   4   9
HETATM    9  C   UNL     1      -9.492  14.876  68.270  1.00  0.00    -0.210 C  
HETATM   10  C   UNL     1      -9.855  14.621  66.778  1.00  0.00    -0.262 C  
HETATM   11  C   UNL     1     -10.772  14.895  69.153  1.00  0.00    -0.253 C  
HETATM   12  C   UNL     1     -11.225  17.311  68.672  1.00  0.00     0.217 C  
HETATM   13  C   UNL     1     -12.154  15.535  67.159  1.00  0.00     0.643 C  
HETATM   14  C   UNL     1     -11.809  15.894  68.614  1.00  0.00    -0.243 C  
HETATM   15  C   UNL     1      -9.961  17.380  67.810  1.00  0.00    -0.301 C  
HETATM   16  C   UNL     1     -10.900  15.633  66.274  1.00  0.00    -0.262 C  
HETATM   17  C   UNL     1     -10.327  17.055  66.356  1.00  0.00    -0.304 C  
HETATM   18  C   UNL     1      -8.933  16.350  68.314  1.00  0.00    -0.206 C  
ENDBRANCH   4   9
BRANCH   7  19
HETATM   19  C   UNL     1      -6.852  10.715  67.177  1.00  0.00    -0.083 A  
HETATM   20  C   UNL     1      -5.960   7.886  64.152  1.00  0.00    -0.053 A  
HETATM   21  C   UNL     1      -7.177   8.502  66.169  1.00  0.00    -0.081 A  
HETATM   22  C   UNL     1      -5.582  10.049  65.198  1.00  0.00    -0.084 A  
HETATM   23  C   UNL     1      -5.903  10.988  66.176  1.00  0.00    -0.142 A  
HETATM   24  C   UNL     1      -7.464   9.451  67.166  1.00  0.00    -0.091 A  
HETATM   25  C   UNL     1      -6.225   8.809  65.172  1.00  0.00    -0.060 A  
HETATM   26  C   UNL     1      -6.634   6.660  64.118  1.00  0.00    -0.041 A  
HETATM   27  C   UNL     1      -7.579   6.357  65.103  1.00  0.00    -0.089 A  
HETATM   28  C   UNL     1      -6.434   5.688  63.015  1.00  0.00    -0.025 C  
HETATM   29  O   UNL     1      -7.319   4.946  62.624  1.00  0.00    -0.041 OA 
HETATM   30  C   UNL     1      -7.841   7.267  66.128  1.00  0.00    -0.108 A  
HETATM   31  O   UNL     1      -5.184   5.678  62.508  1.00  0.00    -0.013 OA 
ENDBRANCH   7  19
ENDBRANCH   2   3
TORSDOF 3
ENDMDL
MODEL      133
REMARK 921   NORMALIZED FREE ENERGY PREDICTED BY IDOCK:   11.86 KCAL/MOL
REMARK 922        TOTAL FREE ENERGY PREDICTED BY IDOCK:   13.16 KCAL/MOL
REMARK 923 INTER-LIGAND FREE ENERGY PREDICTED BY IDOCK:   13.78 KCAL/MOL
REMARK 924 INTRA-LIGAND FREE ENERGY PREDICTED BY IDOCK:   -0.62 KCAL/MOL
REMARK 927      BINDING AFFINITY PREDICTED BY RF-SCORE:    0.00 PKD
ROOT
HETATM    1  C   UNL     1     -11.280   5.175  68.554  1.00  0.00     1.507 C  
HETATM    2  O   UNL     1     -10.645   5.757  69.695  1.00  0.00    -0.266 OA 
ENDROOT
BRANCH   2   3
HETATM    3  C   UNL     1     -11.113   6.986  70.091  1.00  0.00    -0.285 A  
HETATM    4  C   UNL     1     -10.369   8.147  69.751  1.00  0.00    -0.216 A  
HETATM    5  C   UNL     1     -10.903   9.383  70.175  1.00  0.00    -0.287 A  
HETATM    6  C   UNL     1     -12.282   7.103  70.862  1.00  0.00    -0.354 A  
HETATM    7  C   UNL     1     -12.060   9.514  70.962  1.00  0.00    -0.398 A  
HETATM    8  C   UNL     1     -12.740   8.344  71.298  1.00  0.00    -0.208 A  
BRANCH   4   9
HETATM    9  C   UNL     1      -9.006   8.123  69.016  1.00  0.00    -0.144 C  
HETATM   10  C   UNL     1      -8.114   6.996  69.615  1.00  0.00    -0.130 C  
HETATM   11  C   UNL     1      -9.185   7.929  67.484  1.00  0.00    -0.152 C  
HETATM   12  C   UNL     1      -7.039   9.107  66.951  1.00  0.00    -0.082 C  
HETATM   13  C   UNL     1      -7.039   6.633  67.383  1.00  0.00    -0.080 C  
HETATM   14  C   UNL     1      -7.828   7.804  66.772  1.00  0.00    -0.106 C  
HETATM   15  C   UNL     1      -6.806   9.364  68.444  1.00  0.00    -0.063 C  
HETATM   16  C   UNL     1      -6.768   6.892  68.874  1.00  0.00    -0.059 C  
HETATM   17  C   UNL     1      -5.988   8.206  69.030  1.00  0.00    -0.039 C  
HETATM   18  C   UNL     1      -8.160   9.445  69.173  1.00  0.00    -0.107 C  
ENDBRANCH   4   9
BRANCH   7  19
HETATM   19  C   UNL     1     -12.492  10.834  71.459  1.00  0.00    -0.447 A  
HETATM   20  C   UNL     1     -13.800  14.679  72.667  1.00  0.00    -0.490 A  
HETATM   21  C   UNL     1     -11.992  13.144  72.116  1.00  0.00     1.583 A  
HETATM   22  C   UNL     1     -14.288  12.366  72.093  1.00  0.00     0.769 A  
HETATM   23  C   UNL     1     -13.855  11.113  71.664  1.00  0.00     0.558 A  
HETATM   24  C   UNL     1     -11.573  11.864  71.713  1.00  0.00     2.890 A  
HETATM   25  C   UNL     1     -13.369  13.396  72.304  1.00  0.00    -0.641 A  
HETATM   26  C   UNL     1     -12.872  15.711  72.844  1.00  0.00    -0.576 A  
HETATM   27  C   UNL     1     -11.509  15.462  72.654  1.00  0.00    -0.401 A  
HETATM   28  C   UNL     1     -13.295  17.098  73.158  1.00  0.00     2.743 C  
HETATM   29  O   UNL     1     -12.674  18.076  72.780  1.00  0.00     5.310 OA 
HETATM   30  C   UNL     1     -11.070  14.185  72.303  1.00  0.00     2.535 A  
HETATM   31  O   UNL     1     -14.405  17.177  73.920  1.00  0.00     1.412 OA 
ENDBRANCH   7  19
ENDBRANCH   2   3
TORSDOF 3
ENDMDL
MODEL      134
REMARK 921   NORMALIZED FREE ENERGY PREDICTED BY IDOCK:   23.94 KCAL/MOL
REMARK 922        TOTAL FREE ENERGY PREDICTED BY IDOCK:   27.35 KCAL/MOL
REMARK 923 INTER-LIGAND FREE ENERGY PREDICTED BY IDOCK:   26.60 KCAL/MOL
REMARK 924 INTRA-LIGAND FREE ENERGY PREDICTED BY IDOCK:    0.74 KCAL/MOL
REMARK 927      BINDING AFFINITY PREDICTED BY RF-SCORE:    0.00 PKD
ROOT
HETATM    1  C   UNL     1      -7.624  15.068  64.773  1.00  0.00    11.872 C  
HETATM    2  O   UNL     1      -6.467  14.706  65.531  1.00  0.00     7.679 OA 
ENDROOT
BRANCH   2   3
HETATM    3  C   UNL     1      -6.644  13.732  66.483  1.00  0.00     2.874 A  
HETATM    4  C   UNL     1      -6.935  14.122  67.818  1.00  0.00    -0.189 A  
HETATM    5  C   UNL     1      -7.117  13.079  68.752  1.00  0.00    -0.097 A  
HETATM    6  C   UNL     1      -6.496  12.371  66.166  1.00  0.00     1.989 A  
HETATM    7  C   UNL     1      -6.952  11.715  68.453  1.00  0.00    -0.079 A  
HETATM    8  C   UNL     1      -6.636  11.383  67.136  1.00  0.00    -0.118 A  
BRANCH   4   9
HETATM    9  C   UNL     1      -6.996  15.592  68.302  1.00  0.00    -0.118 C  
HETATM   10  C   UNL     1      -7.340  16.519  67.100  1.00  0.00    -0.220 C  
HETATM   11  C   UNL     1      -8.026  15.773  69.451  1.00  0.00    -0.211 C  
HETATM   12  C   UNL     1      -6.813  17.746  70.405  1.00  0.00     1.447 C  
HETATM   13  C   UNL     1      -8.556  18.084  68.629  1.00  0.00    -0.274 C  
HETATM   14  C   UNL     1      -8.157  17.250  69.859  1.00  0.00     1.518 C  
HETATM   15  C   UNL     1      -5.739  17.614  69.320  1.00  0.00    -0.205 C  
HETATM   16  C   UNL     1      -7.471  17.988  67.544  1.00  0.00    -0.217 C  
HETATM   17  C   UNL     1      -6.133  18.478  68.116  1.00  0.00    -0.193 C  
HETATM   18  C   UNL     1      -5.633  16.144  68.874  1.00  0.00    -0.116 C  
ENDBRANCH   4   9
BRANCH   7  19
HETATM   19  C   UNL     1      -7.051  10.691  69.511  1.00  0.00    -0.127 A  
HETATM   20  C   UNL     1      -7.098   7.724  72.535  1.00  0.00    -0.089 A  
HETATM   21  C   UNL     1      -7.495   8.387  70.226  1.00  0.00    -0.063 A  
HETATM   22  C   UNL     1      -6.734  10.027  71.842  1.00  0.00     1.158 A  
HETATM   23  C   UNL     1      -6.689  10.990  70.837  1.00  0.00     1.114 A  
HETATM   24  C   UNL     1      -7.473   9.381  69.232  1.00  0.00    -0.076 A  
HETATM   25  C   UNL     1      -7.118   8.717  71.546  1.00  0.00    -0.098 A  
HETATM   26  C   UNL     1      -7.453   6.408  72.220  1.00  0.00    -0.093 A  
HETATM   27  C   UNL     1      -7.823   6.080  70.912  1.00  0.00    -0.107 A  
HETATM   28  C   UNL     1      -7.376   5.315  73.221  1.00  0.00    -0.091 C  
HETATM   29  O   UNL     1      -7.116   4.164  72.919  1.00  0.00    -0.058 OA 
HETATM   30  C   UNL     1      -7.854   7.065  69.923  1.00  0.00    -0.114 A  
HETATM   31  O   UNL     1      -7.649   5.705  74.484  1.00  0.00    -0.094 OA 
ENDBRANCH   7  19
ENDBRANCH   2   3
TORSDOF 3
ENDMDL
MODEL      135
REMARK 921   NORMALIZED FREE ENERGY PREDICTED BY IDOCK:   30.09 KCAL/MOL
REMARK 922        TOTAL FREE ENERGY PREDICTED BY IDOCK:   34.57 KCAL/MOL
REMARK 923 INTER-LIGAND FREE ENERGY PREDICTED BY IDOCK:   33.52 KCAL/MOL
REMARK 924 INTRA-LIGAND FREE ENERGY PREDICTED BY IDOCK:    1.05 KCAL/MOL
REMARK 927      BINDING AFFINITY PREDICTED BY RF-SCORE:    0.00 PKD
ROOT
HETATM    1  C   UNL     1      -6.878  14.011  63.275  1.00  0.00    21.869 C  
HETATM    2  O   UNL     1      -7.529  12.985  62.521  1.00  0.00     5.885 OA 
ENDROOT
BRANCH   2   3
HETATM    3  C   UNL     1      -7.720  11.786  63.164  1.00  0.00     1.945 A  
HETATM    4  C   UNL     1      -8.673  11.716  64.216  1.00  0.00     0.685 A  
HETATM    5  C   UNL     1      -8.835  10.456  64.833  1.00  0.00    -0.209 A  
HETATM    6  C   UNL     1      -6.959  10.654  62.830  1.00  0.00    -0.018 A  
HETATM    7  C   UNL     1      -8.068   9.320  64.522  1.00  0.00    -0.139 A  
HETATM    8  C   UNL     1      -7.123   9.447  63.504  1.00  0.00    -0.097 A  
BRANCH   4   9
HETATM    9  C   UNL     1      -9.473  12.930  64.749  1.00  0.00     0.430 C  
HETATM   10  C   UNL     1     -10.453  13.429  63.646  1.00  0.00     0.712 C  
HETATM   11  C   UNL     1     -10.243  12.580  66.053  1.00  0.00    -0.269 C  
HETATM   12  C   UNL     1     -10.217  14.950  66.861  1.00  0.00    -0.254 C  
HETATM   13  C   UNL     1     -12.092  14.145  65.397  1.00  0.00    -0.415 C  
HETATM   14  C   UNL     1     -11.116  13.755  66.521  1.00  0.00    -0.309 C  
HETATM   15  C   UNL     1      -9.429  15.369  65.615  1.00  0.00    -0.255 C  
HETATM   16  C   UNL     1     -11.316  14.600  64.151  1.00  0.00     0.040 C  
HETATM   17  C   UNL     1     -10.414  15.788  64.517  1.00  0.00     0.441 C  
HETATM   18  C   UNL     1      -8.587  14.182  65.112  1.00  0.00     3.592 C  
ENDBRANCH   4   9
BRANCH   7  19
HETATM   19  C   UNL     1      -8.220   8.070  65.290  1.00  0.00    -0.148 A  
HETATM   20  C   UNL     1      -8.746   4.606  67.673  1.00  0.00    -0.108 A  
HETATM   21  C   UNL     1      -7.288   6.308  66.719  1.00  0.00    -0.079 A  
HETATM   22  C   UNL     1      -9.655   6.308  66.192  1.00  0.00    -0.059 A  
HETATM   23  C   UNL     1      -9.482   7.466  65.436  1.00  0.00     0.734 A  
HETATM   24  C   UNL     1      -7.129   7.458  65.926  1.00  0.00    -0.065 A  
HETATM   25  C   UNL     1      -8.570   5.730  66.853  1.00  0.00    -0.111 A  
HETATM   26  C   UNL     1      -7.657   4.055  68.357  1.00  0.00    -0.066 A  
HETATM   27  C   UNL     1      -6.389   4.629  68.227  1.00  0.00    -0.037 A  
HETATM   28  C   UNL     1      -7.817   2.911  69.289  1.00  0.00    -0.045 C  
HETATM   29  O   UNL     1      -7.117   2.764  70.275  1.00  0.00    -0.033 OA 
HETATM   30  C   UNL     1      -6.203   5.742  67.405  1.00  0.00    -0.030 A  
HETATM   31  O   UNL     1      -8.782   2.039  68.931  1.00  0.00    -0.063 OA 
ENDBRANCH   7  19
ENDBRANCH   2   3
TORSDOF 3
ENDMDL
MODEL      136
REMARK 921   NORMALIZED FREE ENERGY PREDICTED BY IDOCK:   41.46 KCAL/MOL
REMARK 922        TOTAL FREE ENERGY PREDICTED BY IDOCK:   47.95 KCAL/MOL
REMARK 923 INTER-LIGAND FREE ENERGY PREDICTED BY IDOCK:   48.47 KCAL/MOL
REMARK 924 INTRA-LIGAND FREE ENERGY PREDICTED BY IDOCK:   -0.52 KCAL/MOL
REMARK 927      BINDING AFFINITY PREDICTED BY RF-SCORE:    0.00 PKD
ROOT
HETATM    1  C   UNL     1      -5.793  18.719  71.695  1.00  0.00     0.394 C  
HETATM    2  O   UNL     1      -6.935  18.506  70.861  1.00  0.00     1.708 OA 
ENDROOT
BRANCH   2   3
HETATM    3  C   UNL     1      -7.430  17.224  70.824  1.00  0.00     4.091 A  
HETATM    4  C   UNL     1      -7.530  16.563  69.570  1.00  0.00     0.042 A  
HETATM    5  C   UNL     1      -8.036  15.245  69.594  1.00  0.00    -0.130 A  
HETATM    6  C   UNL     1      -7.877  16.585  71.992  1.00  0.00    10.687 A  
HETATM    7  C   UNL     1      -8.505  14.601  70.752  1.00  0.00     2.491 A  
HETATM    8  C   UNL     1      -8.415  15.302  71.954  1.00  0.00     5.825 A  
BRANCH   4   9
HETATM    9  C   UNL     1      -7.184  17.218  68.210  1.00  0.00    -0.211 C  
HETATM   10  C   UNL     1      -5.667  17.032  67.916  1.00  0.00    -0.130 C  
HETATM   11  C   UNL     1      -8.045  16.631  67.057  1.00  0.00    -0.228 C  
HETATM   12  C   UNL     1      -7.877  18.722  65.689  1.00  0.00     0.223 C  
HETATM   13  C   UNL     1      -6.134  16.930  65.459  1.00  0.00     1.814 C  
HETATM   14  C   UNL     1      -7.628  17.209  65.695  1.00  0.00     0.621 C  
HETATM   15  C   UNL     1      -7.048  19.383  66.796  1.00  0.00    -0.213 C  
HETATM   16  C   UNL     1      -5.285  17.615  66.543  1.00  0.00    -0.205 C  
HETATM   17  C   UNL     1      -5.560  19.126  66.527  1.00  0.00    -0.165 C  
HETATM   18  C   UNL     1      -7.427  18.775  68.159  1.00  0.00    -0.289 C  
ENDBRANCH   4   9
BRANCH   7  19
HETATM   19  C   UNL     1      -9.123  13.264  70.676  1.00  0.00     6.596 A  
HETATM   20  C   UNL     1     -10.992   9.461  70.672  1.00  0.00    -0.352 A  
HETATM   21  C   UNL     1      -8.994  10.828  70.938  1.00  0.00     3.742 A  
HETATM   22  C   UNL     1     -11.100  11.868  70.336  1.00  0.00     0.852 A  
HETATM   23  C   UNL     1     -10.488  13.118  70.371  1.00  0.00     2.563 A  
HETATM   24  C   UNL     1      -8.387  12.096  70.937  1.00  0.00     8.426 A  
HETATM   25  C   UNL     1     -10.369  10.716  70.636  1.00  0.00     0.873 A  
HETATM   26  C   UNL     1     -10.257   8.319  71.006  1.00  0.00    -0.230 A  
HETATM   27  C   UNL     1      -8.896   8.430  71.309  1.00  0.00    -0.210 A  
HETATM   28  C   UNL     1     -10.895   6.984  71.126  1.00  0.00    -0.237 C  
HETATM   29  O   UNL     1     -10.504   6.136  71.908  1.00  0.00    -0.204 OA 
HETATM   30  C   UNL     1      -8.266   9.674  71.265  1.00  0.00     0.675 A  
HETATM   31  O   UNL     1     -11.923   6.787  70.274  1.00  0.00    -0.352 OA 
ENDBRANCH   7  19
ENDBRANCH   2   3
TORSDOF 3
ENDMDL
MODEL      137
REMARK 921   NORMALIZED FREE ENERGY PREDICTED BY IDOCK:   45.43 KCAL/MOL
REMARK 922        TOTAL FREE ENERGY PREDICTED BY IDOCK:   52.60 KCAL/MOL
REMARK 923 INTER-LIGAND FREE ENERGY PREDICTED BY IDOCK:   47.10 KCAL/MOL
REMARK 924 INTRA-LIGAND FREE ENERGY PREDICTED BY IDOCK:    5.50 KCAL/MOL
REMARK 927      BINDING AFFINITY PREDICTED BY RF-SCORE:    0.00 PKD
ROOT
HETATM    1  C   UNL     1     -10.790   6.370  68.490  1.00  0.00    -0.314 C  
HETATM    2  O   UNL     1     -11.679   6.720  69.554  1.00  0.00    -0.187 OA 
ENDROOT
BRANCH   2   3
HETATM    3  C   UNL     1     -11.697   8.044  69.921  1.00  0.00     0.404 A  
HETATM    4  C   UNL     1     -10.633   8.887  69.502  1.00  0.00    -0.233 A  
HETATM    5  C   UNL     1     -10.710  10.240  69.899  1.00  0.00    -0.344 A  
HETATM    6  C   UNL     1     -12.719   8.556  70.737  1.00  0.00     0.238 A  
HETATM    7  C   UNL     1     -11.716  10.762  70.731  1.00  0.00    -0.400 A  
HETATM    8  C   UNL     1     -12.722   9.888  71.143  1.00  0.00    -0.462 A  
BRANCH   4   9
HETATM    9  C   UNL     1      -9.395   8.399  68.709  1.00  0.00    -0.143 C  
HETATM   10  C   UNL     1      -9.760   8.282  67.200  1.00  0.00    -0.255 C  
HETATM   11  C   UNL     1      -8.178   9.344  68.910  1.00  0.00    -0.111 C  
HETATM   12  C   UNL     1      -6.521   7.517  68.474  1.00  0.00    -0.045 C  
HETATM   13  C   UNL     1      -7.414   8.882  66.565  1.00  0.00    -0.088 C  
HETATM   14  C   UNL     1      -6.985   8.913  68.042  1.00  0.00    -0.078 C  
HETATM   15  C   UNL     1      -7.667   6.516  68.291  1.00  0.00    -0.105 C  
HETATM   16  C   UNL     1      -8.542   7.857  66.359  1.00  0.00    -0.156 C  
HETATM   17  C   UNL     1      -8.060   6.470  66.809  1.00  0.00    -0.109 C  
HETATM   18  C   UNL     1      -8.884   6.966  69.123  1.00  0.00    -0.134 C  
ENDBRANCH   4   9
BRANCH   7  19
HETATM   19  C   UNL     1     -11.665  12.161  71.193  1.00  0.00     0.983 A  
HETATM   20  C   UNL     1     -11.712  16.140  72.650  1.00  0.00    -0.493 A  
HETATM   21  C   UNL     1     -12.142  14.545  70.861  1.00  0.00    -0.404 A  
HETATM   22  C   UNL     1     -11.167  13.788  72.948  1.00  0.00     4.067 A  
HETATM   23  C   UNL     1     -11.184  12.477  72.476  1.00  0.00     8.238 A  
HETATM   24  C   UNL     1     -12.121  13.220  70.391  1.00  0.00    -0.401 A  
HETATM   25  C   UNL     1     -11.660  14.829  72.158  1.00  0.00    -0.142 A  
HETATM   26  C   UNL     1     -12.239  17.168  71.862  1.00  0.00     2.346 A  
HETATM   27  C   UNL     1     -12.719  16.887  70.579  1.00  0.00     4.498 A  
HETATM   28  C   UNL     1     -12.377  18.554  72.374  1.00  0.00     9.802 C  
HETATM   29  O   UNL     1     -13.274  19.300  72.019  1.00  0.00    19.273 OA 
HETATM   30  C   UNL     1     -12.661  15.586  70.077  1.00  0.00    -0.149 A  
HETATM   31  O   UNL     1     -11.409  18.922  73.239  1.00  0.00     2.004 OA 
ENDBRANCH   7  19
ENDBRANCH   2   3
TORSDOF 3
ENDMDL
