MODEL        1
REMARK 921   NORMALIZED FREE ENERGY PREDICTED BY IDOCK:   -6.78 KCAL/MOL
REMARK 922        TOTAL FREE ENERGY PREDICTED BY IDOCK:  -13.14 KCAL/MOL
REMARK 923 INTER-LIGAND FREE ENERGY PREDICTED BY IDOCK:  -11.54 KCAL/MOL
REMARK 924 INTRA-LIGAND FREE ENERGY PREDICTED BY IDOCK:   -1.60 KCAL/MOL
REMARK 927      BINDING AFFINITY PREDICTED BY RF-SCORE:    0.00 PKD
ROOT
HETATM    1  C   UNL     1      -7.173  10.480  62.702  1.00  0.00    -0.113 C  
HETATM    2  C   UNL     1      -7.861   9.707  63.844  1.00  0.00    -0.136 C  
HETATM    3  C   UNL     1      -7.829   8.212  63.509  1.00  0.00    -0.152 C  
HETATM    4  C   UNL     1      -7.079   9.966  65.142  1.00  0.00    -0.129 C  
ENDROOT
BRANCH   2   5
HETATM    5  C   UNL     1      -9.297  10.231  64.000  1.00  0.00    -0.289 C  
HETATM    6  O   UNL     1     -10.073   9.822  64.859  1.00  0.00    -0.184 OA 
BRANCH   5   7
HETATM    7  O   UNL     1      -9.650  11.117  63.027  1.00  0.00    -0.316 OA 
BRANCH   7   8
HETATM    8  C   UNL     1     -10.774  11.952  63.365  1.00  0.00    -0.413 C  
BRANCH   8   9
HETATM    9  O   UNL     1     -10.423  13.114  64.112  1.00  0.00    -0.421 OA 
HETATM   10  P   UNL     1     -11.675  13.903  64.790  1.00  0.00    -0.431 P  
HETATM   11  C   UNL     1     -12.382  12.728  65.969  1.00  0.00    -0.182 C  
HETATM   12  O   UNL     1     -12.633  14.480  63.798  1.00  0.00    -0.825 OA 
HETATM   13  O   UNL     1     -11.030  14.944  65.835  1.00  0.00    -0.324 OA 
BRANCH  13  14
HETATM   14  C   UNL     1     -10.423  16.145  65.453  1.00  0.00    -0.373 C  
BRANCH  14  15
HETATM   15  O   UNL     1      -9.846  16.782  66.617  1.00  0.00    -0.252 OA 
BRANCH  15  16
HETATM   16  C   UNL     1      -8.925  17.755  66.365  1.00  0.00    -0.229 C  
HETATM   17  O   UNL     1      -7.897  17.574  65.721  1.00  0.00    -0.544 OA 
BRANCH  16  18
HETATM   18  C   UNL     1      -9.315  19.111  66.992  1.00  0.00    -0.355 C  
HETATM   19  C   UNL     1     -10.113  18.868  68.290  1.00  0.00    -0.446 C  
HETATM   20  C   UNL     1     -10.199  19.909  66.027  1.00  0.00    -0.591 C  
HETATM   21  C   UNL     1      -8.065  19.928  67.350  1.00  0.00    -0.348 C  
ENDBRANCH  16  18
ENDBRANCH  15  16
ENDBRANCH  14  15
ENDBRANCH  13  14
BRANCH  11  22
HETATM   22  O   UNL     1     -11.296  12.402  66.840  1.00  0.00    -0.293 OA 
BRANCH  22  23
HETATM   23  C   UNL     1     -11.591  11.335  67.717  1.00  0.00    -0.230 C  
BRANCH  23  24
HETATM   24  C   UNL     1     -10.912  11.606  69.052  1.00  0.00    -0.233 C  
BRANCH  24  25
HETATM   25  N   UNL     1     -11.857  12.152  69.990  1.00  0.00    -0.330 NA 
HETATM   26  C   UNL     1     -12.068  13.482  70.199  1.00  0.00    -0.354 A  
HETATM   27  N   UNL     1     -11.597  14.511  69.476  1.00  0.00    -0.289 NA 
HETATM   28  H2  UNL     1     -13.288  14.523  73.781  1.00  0.00     0.000 HD 
HETATM   29  H1  UNL     1     -13.983  15.967  73.412  1.00  0.00     0.000 HD 
HETATM   30  C   UNL     1     -12.519  11.458  70.966  1.00  0.00    -0.383 A  
HETATM   31  N   UNL     1     -13.112  12.268  71.818  1.00  0.00    -0.408 NA 
HETATM   32  C   UNL     1     -12.813  13.540  71.362  1.00  0.00    -0.355 A  
HETATM   33  C   UNL     1     -13.093  14.819  71.863  1.00  0.00    -0.334 A  
HETATM   34  N   UNL     1     -13.778  15.036  73.048  1.00  0.00    -0.495 NA 
HETATM   35  N   UNL     1     -12.672  15.896  71.155  1.00  0.00    -0.414 NA 
HETATM   36  C   UNL     1     -11.963  15.686  70.023  1.00  0.00    -0.368 A  
ENDBRANCH  24  25
ENDBRANCH  23  24
ENDBRANCH  22  23
ENDBRANCH  11  22
ENDBRANCH   8   9
ENDBRANCH   7   8
ENDBRANCH   5   7
ENDBRANCH   2   5
TORSDOF 12
ENDMDL
MODEL        2
REMARK 921   NORMALIZED FREE ENERGY PREDICTED BY IDOCK:   -6.69 KCAL/MOL
REMARK 922        TOTAL FREE ENERGY PREDICTED BY IDOCK:  -12.98 KCAL/MOL
REMARK 923 INTER-LIGAND FREE ENERGY PREDICTED BY IDOCK:  -11.24 KCAL/MOL
REMARK 924 INTRA-LIGAND FREE ENERGY PREDICTED BY IDOCK:   -1.73 KCAL/MOL
REMARK 927      BINDING AFFINITY PREDICTED BY RF-SCORE:    0.00 PKD
ROOT
HETATM    1  C   UNL     1      -8.321  19.922  67.298  1.00  0.00    -0.366 C  
HETATM    2  C   UNL     1      -9.503  18.945  67.144  1.00  0.00    -0.337 C  
HETATM    3  C   UNL     1      -9.814  18.336  68.516  1.00  0.00    -0.400 C  
HETATM    4  C   UNL     1     -10.720  19.736  66.638  1.00  0.00    -0.518 C  
ENDROOT
BRANCH   2   5
HETATM    5  C   UNL     1      -9.126  17.871  66.111  1.00  0.00    -0.097 C  
HETATM    6  O   UNL     1      -7.967  17.540  65.876  1.00  0.00    -0.527 OA 
BRANCH   5   7
HETATM    7  O   UNL     1     -10.199  17.399  65.416  1.00  0.00    -0.603 OA 
BRANCH   7   8
HETATM    8  C   UNL     1     -10.346  15.967  65.451  1.00  0.00    -0.359 C  
BRANCH   8   9
HETATM    9  O   UNL     1     -10.739  15.461  66.723  1.00  0.00    -0.304 OA 
HETATM   10  P   UNL     1     -11.441  13.993  66.695  1.00  0.00    -0.401 P  
HETATM   11  C   UNL     1     -10.161  12.877  66.072  1.00  0.00    -0.284 C  
HETATM   12  O   UNL     1     -12.742  13.959  65.960  1.00  0.00    -0.463 OA 
HETATM   13  O   UNL     1     -11.483  13.491  68.225  1.00  0.00    -0.271 OA 
BRANCH  13  14
HETATM   14  C   UNL     1     -12.404  13.962  69.166  1.00  0.00    -0.122 C  
BRANCH  14  15
HETATM   15  O   UNL     1     -11.913  13.683  70.499  1.00  0.00    -0.322 OA 
BRANCH  15  16
HETATM   16  C   UNL     1     -12.009  14.708  71.392  1.00  0.00    -0.343 C  
HETATM   17  O   UNL     1     -11.255  15.675  71.409  1.00  0.00    -0.370 OA 
BRANCH  16  18
HETATM   18  C   UNL     1     -13.169  14.510  72.391  1.00  0.00    -0.508 C  
HETATM   19  C   UNL     1     -13.544  13.015  72.456  1.00  0.00    -0.537 C  
HETATM   20  C   UNL     1     -14.405  15.296  71.935  1.00  0.00    -0.691 C  
HETATM   21  C   UNL     1     -12.759  14.958  73.802  1.00  0.00    -0.530 C  
ENDBRANCH  16  18
ENDBRANCH  15  16
ENDBRANCH  14  15
ENDBRANCH  13  14
BRANCH  11  22
HETATM   22  O   UNL     1      -9.074  13.039  66.987  1.00  0.00    -0.216 OA 
BRANCH  22  23
HETATM   23  C   UNL     1      -8.432  11.821  67.302  1.00  0.00    -0.160 C  
BRANCH  23  24
HETATM   24  C   UNL     1      -9.446  10.693  67.171  1.00  0.00    -0.156 C  
BRANCH  24  25
HETATM   25  N   UNL     1      -9.361   9.814  68.307  1.00  0.00    -0.129 NA 
HETATM   26  C   UNL     1     -10.259   9.775  69.331  1.00  0.00    -0.210 A  
HETATM   27  N   UNL     1     -11.452  10.388  69.400  1.00  0.00    -0.242 NA 
HETATM   28  H2  UNL     1      -8.882   8.651  72.830  1.00  0.00     0.000 HD 
HETATM   29  H1  UNL     1     -10.290   8.156  73.520  1.00  0.00     0.000 HD 
HETATM   30  C   UNL     1      -8.280   9.053  68.661  1.00  0.00    -0.118 A  
HETATM   31  N   UNL     1      -8.412   8.559  69.874  1.00  0.00    -0.123 NA 
HETATM   32  C   UNL     1      -9.638   9.028  70.314  1.00  0.00    -0.199 A  
HETATM   33  C   UNL     1     -10.317   8.910  71.535  1.00  0.00    -0.324 A  
HETATM   34  N   UNL     1      -9.795   8.242  72.632  1.00  0.00    -0.288 NA 
HETATM   35  N   UNL     1     -11.542   9.478  71.649  1.00  0.00    -0.393 NA 
HETATM   36  C   UNL     1     -12.032  10.171  70.596  1.00  0.00    -0.332 A  
ENDBRANCH  24  25
ENDBRANCH  23  24
ENDBRANCH  22  23
ENDBRANCH  11  22
ENDBRANCH   8   9
ENDBRANCH   7   8
ENDBRANCH   5   7
ENDBRANCH   2   5
TORSDOF 12
ENDMDL
MODEL        3
REMARK 921   NORMALIZED FREE ENERGY PREDICTED BY IDOCK:   -6.67 KCAL/MOL
REMARK 922        TOTAL FREE ENERGY PREDICTED BY IDOCK:  -12.95 KCAL/MOL
REMARK 923 INTER-LIGAND FREE ENERGY PREDICTED BY IDOCK:  -11.25 KCAL/MOL
REMARK 924 INTRA-LIGAND FREE ENERGY PREDICTED BY IDOCK:   -1.70 KCAL/MOL
REMARK 927      BINDING AFFINITY PREDICTED BY RF-SCORE:    0.00 PKD
ROOT
HETATM    1  C   UNL     1     -10.373  11.084  65.549  1.00  0.00    -0.321 C  
HETATM    2  C   UNL     1     -10.566  12.602  65.728  1.00  0.00    -0.296 C  
HETATM    3  C   UNL     1     -10.545  13.263  64.344  1.00  0.00    -0.438 C  
HETATM    4  C   UNL     1     -11.928  12.840  66.398  1.00  0.00    -0.443 C  
ENDROOT
BRANCH   2   5
HETATM    5  C   UNL     1      -9.449  13.139  66.637  1.00  0.00    -0.260 C  
HETATM    6  O   UNL     1      -9.059  12.553  67.642  1.00  0.00    -0.172 OA 
BRANCH   5   7
HETATM    7  O   UNL     1      -9.009  14.375  66.268  1.00  0.00    -0.161 OA 
BRANCH   7   8
HETATM    8  C   UNL     1      -8.418  15.138  67.337  1.00  0.00    -0.183 C  
BRANCH   8   9
HETATM    9  O   UNL     1      -8.837  16.499  67.371  1.00  0.00    -0.188 OA 
HETATM   10  P   UNL     1     -10.426  16.739  67.111  1.00  0.00    -0.215 P  
HETATM   11  C   UNL     1     -11.253  15.912  68.490  1.00  0.00    -0.362 C  
HETATM   12  O   UNL     1     -10.882  16.333  65.747  1.00  0.00    -0.271 OA 
HETATM   13  O   UNL     1     -10.719  18.266  67.527  1.00  0.00    -0.419 OA 
BRANCH  13  14
HETATM   14  C   UNL     1     -10.379  19.362  66.728  1.00  0.00    -0.443 C  
BRANCH  14  15
HETATM   15  O   UNL     1      -9.243  20.046  67.310  1.00  0.00    -0.332 OA 
BRANCH  15  16
HETATM   16  C   UNL     1      -8.044  19.833  66.697  1.00  0.00    -0.315 C  
HETATM   17  O   UNL     1      -7.906  19.726  65.484  1.00  0.00    -0.385 OA 
BRANCH  16  18
HETATM   18  C   UNL     1      -6.879  19.731  67.705  1.00  0.00    -0.276 C  
HETATM   19  C   UNL     1      -5.942  18.577  67.294  1.00  0.00    -0.164 C  
HETATM   20  C   UNL     1      -7.416  19.438  69.111  1.00  0.00    -0.342 C  
HETATM   21  C   UNL     1      -6.056  21.027  67.722  1.00  0.00    -0.410 C  
ENDBRANCH  16  18
ENDBRANCH  15  16
ENDBRANCH  14  15
ENDBRANCH  13  14
BRANCH  11  22
HETATM   22  O   UNL     1     -10.705  16.532  69.656  1.00  0.00    -0.322 OA 
BRANCH  22  23
HETATM   23  C   UNL     1     -11.326  16.107  70.852  1.00  0.00    -0.359 C  
BRANCH  23  24
HETATM   24  C   UNL     1     -12.643  15.431  70.497  1.00  0.00    -0.423 C  
BRANCH  24  25
HETATM   25  N   UNL     1     -12.827  14.249  71.298  1.00  0.00    -0.333 NA 
HETATM   26  C   UNL     1     -12.438  12.995  70.936  1.00  0.00    -0.310 A  
HETATM   27  N   UNL     1     -11.671  12.642  69.892  1.00  0.00    -0.285 NA 
HETATM   28  H2  UNL     1     -14.530  10.017  72.406  1.00  0.00     0.000 HD 
HETATM   29  H1  UNL     1     -13.414   8.818  72.267  1.00  0.00     0.000 HD 
HETATM   30  C   UNL     1     -13.605  14.146  72.419  1.00  0.00    -0.532 A  
HETATM   31  N   UNL     1     -13.774  12.892  72.777  1.00  0.00    -0.447 NA 
HETATM   32  C   UNL     1     -13.069  12.159  71.838  1.00  0.00    -0.369 A  
HETATM   33  C   UNL     1     -12.911  10.781  71.632  1.00  0.00    -0.457 A  
HETATM   34  N   UNL     1     -13.530   9.820  72.417  1.00  0.00    -0.365 NA 
HETATM   35  N   UNL     1     -12.118  10.368  70.613  1.00  0.00    -0.319 NA 
HETATM   36  C   UNL     1     -11.553  11.303  69.816  1.00  0.00    -0.333 A  
ENDBRANCH  24  25
ENDBRANCH  23  24
ENDBRANCH  22  23
ENDBRANCH  11  22
ENDBRANCH   8   9
ENDBRANCH   7   8
ENDBRANCH   5   7
ENDBRANCH   2   5
TORSDOF 12
ENDMDL
MODEL        4
REMARK 921   NORMALIZED FREE ENERGY PREDICTED BY IDOCK:   -6.66 KCAL/MOL
REMARK 922        TOTAL FREE ENERGY PREDICTED BY IDOCK:  -12.93 KCAL/MOL
REMARK 923 INTER-LIGAND FREE ENERGY PREDICTED BY IDOCK:  -11.87 KCAL/MOL
REMARK 924 INTRA-LIGAND FREE ENERGY PREDICTED BY IDOCK:   -1.06 KCAL/MOL
REMARK 927      BINDING AFFINITY PREDICTED BY RF-SCORE:    0.00 PKD
ROOT
HETATM    1  C   UNL     1      -7.914   7.846  63.825  1.00  0.00    -0.119 C  
HETATM    2  C   UNL     1      -8.359   9.161  64.494  1.00  0.00    -0.175 C  
HETATM    3  C   UNL     1      -9.011   8.826  65.841  1.00  0.00    -0.240 C  
HETATM    4  C   UNL     1      -7.114  10.033  64.721  1.00  0.00    -0.137 C  
ENDROOT
BRANCH   2   5
HETATM    5  C   UNL     1      -9.329   9.891  63.552  1.00  0.00    -0.182 C  
HETATM    6  O   UNL     1      -9.354   9.709  62.338  1.00  0.00    -0.271 OA 
BRANCH   5   7
HETATM    7  O   UNL     1     -10.085  10.829  64.188  1.00  0.00    -0.315 OA 
BRANCH   7   8
HETATM    8  C   UNL     1     -10.486  11.933  63.355  1.00  0.00    -0.441 C  
BRANCH   8   9
HETATM    9  O   UNL     1     -10.242  13.210  63.937  1.00  0.00    -0.365 OA 
HETATM   10  P   UNL     1     -11.536  13.911  64.633  1.00  0.00    -0.377 P  
HETATM   11  C   UNL     1     -11.988  12.805  65.992  1.00  0.00    -0.432 C  
HETATM   12  O   UNL     1     -12.634  14.239  63.674  1.00  0.00    -0.831 OA 
HETATM   13  O   UNL     1     -10.962  15.142  65.498  1.00  0.00    -0.335 OA 
BRANCH  13  14
HETATM   14  C   UNL     1     -10.554  16.356  64.935  1.00  0.00    -0.090 C  
BRANCH  14  15
HETATM   15  O   UNL     1      -9.824  17.121  65.923  1.00  0.00    -0.486 OA 
BRANCH  15  16
HETATM   16  C   UNL     1     -10.099  18.456  65.962  1.00  0.00    -0.279 C  
HETATM   17  O   UNL     1     -10.990  18.990  65.312  1.00  0.00    -0.511 OA 
BRANCH  16  18
HETATM   18  C   UNL     1      -9.152  19.223  66.910  1.00  0.00    -0.358 C  
HETATM   19  C   UNL     1      -9.811  20.551  67.333  1.00  0.00    -0.574 C  
HETATM   20  C   UNL     1      -7.833  19.547  66.197  1.00  0.00    -0.326 C  
HETATM   21  C   UNL     1      -8.871  18.406  68.179  1.00  0.00    -0.319 C  
ENDBRANCH  16  18
ENDBRANCH  15  16
ENDBRANCH  14  15
ENDBRANCH  13  14
BRANCH  11  22
HETATM   22  O   UNL     1     -10.807  12.726  66.793  1.00  0.00    -0.257 OA 
BRANCH  22  23
HETATM   23  C   UNL     1     -11.067  12.858  68.175  1.00  0.00    -0.253 C  
BRANCH  23  24
HETATM   24  C   UNL     1     -12.128  13.933  68.365  1.00  0.00    -0.291 C  
BRANCH  24  25
HETATM   25  N   UNL     1     -11.904  14.640  69.599  1.00  0.00    -0.301 NA 
HETATM   26  C   UNL     1     -12.463  14.312  70.797  1.00  0.00    -0.358 A  
HETATM   27  N   UNL     1     -13.157  13.203  71.103  1.00  0.00    -0.188 NA 
HETATM   28  H2  UNL     1     -13.032  17.253  73.332  1.00  0.00     0.000 HD 
HETATM   29  H1  UNL     1     -13.087  16.388  74.730  1.00  0.00     0.000 HD 
HETATM   30  C   UNL     1     -11.298  15.860  69.732  1.00  0.00    -0.347 A  
HETATM   31  N   UNL     1     -11.470  16.356  70.939  1.00  0.00    -0.307 NA 
HETATM   32  C   UNL     1     -12.223  15.405  71.607  1.00  0.00    -0.375 A  
HETATM   33  C   UNL     1     -12.784  15.369  72.892  1.00  0.00    -0.427 A  
HETATM   34  N   UNL     1     -12.679  16.415  73.795  1.00  0.00    -0.605 NA 
HETATM   35  N   UNL     1     -13.465  14.259  73.267  1.00  0.00    -0.408 NA 
HETATM   36  C   UNL     1     -13.610  13.257  72.370  1.00  0.00    -0.594 A  
ENDBRANCH  24  25
ENDBRANCH  23  24
ENDBRANCH  22  23
ENDBRANCH  11  22
ENDBRANCH   8   9
ENDBRANCH   7   8
ENDBRANCH   5   7
ENDBRANCH   2   5
TORSDOF 12
ENDMDL
MODEL        5
REMARK 921   NORMALIZED FREE ENERGY PREDICTED BY IDOCK:   -6.65 KCAL/MOL
REMARK 922        TOTAL FREE ENERGY PREDICTED BY IDOCK:  -12.92 KCAL/MOL
REMARK 923 INTER-LIGAND FREE ENERGY PREDICTED BY IDOCK:  -11.49 KCAL/MOL
REMARK 924 INTRA-LIGAND FREE ENERGY PREDICTED BY IDOCK:   -1.43 KCAL/MOL
REMARK 927      BINDING AFFINITY PREDICTED BY RF-SCORE:    0.00 PKD
ROOT
HETATM    1  C   UNL     1      -5.765  18.803  66.511  1.00  0.00    -0.171 C  
HETATM    2  C   UNL     1      -6.684  19.973  66.911  1.00  0.00    -0.245 C  
HETATM    3  C   UNL     1      -5.835  21.246  67.011  1.00  0.00    -0.392 C  
HETATM    4  C   UNL     1      -7.752  20.143  65.820  1.00  0.00    -0.200 C  
ENDROOT
BRANCH   2   5
HETATM    5  C   UNL     1      -7.366  19.632  68.245  1.00  0.00    -0.316 C  
HETATM    6  O   UNL     1      -6.797  19.047  69.162  1.00  0.00    -0.299 OA 
BRANCH   5   7
HETATM    7  O   UNL     1      -8.690  19.955  68.265  1.00  0.00    -0.302 OA 
BRANCH   7   8
HETATM    8  C   UNL     1      -9.546  18.920  68.787  1.00  0.00    -0.382 C  
BRANCH   8   9
HETATM    9  O   UNL     1     -10.217  18.168  67.780  1.00  0.00    -0.345 OA 
HETATM   10  P   UNL     1      -9.794  16.598  67.695  1.00  0.00    -0.269 P  
HETATM   11  C   UNL     1     -10.297  15.894  69.283  1.00  0.00    -0.249 C  
HETATM   12  O   UNL     1      -8.366  16.377  67.313  1.00  0.00    -0.165 OA 
HETATM   13  O   UNL     1     -10.893  15.893  66.753  1.00  0.00    -0.309 OA 
BRANCH  13  14
HETATM   14  C   UNL     1     -10.905  16.011  65.360  1.00  0.00    -0.328 C  
BRANCH  14  15
HETATM   15  O   UNL     1     -10.694  14.707  64.767  1.00  0.00    -0.412 OA 
BRANCH  15  16
HETATM   16  C   UNL     1     -11.808  14.091  64.278  1.00  0.00    -0.410 C  
HETATM   17  O   UNL     1     -12.823  14.685  63.933  1.00  0.00    -0.691 OA 
BRANCH  16  18
HETATM   18  C   UNL     1     -11.650  12.556  64.217  1.00  0.00    -0.435 C  
HETATM   19  C   UNL     1     -11.744  11.971  65.641  1.00  0.00    -0.312 C  
HETATM   20  C   UNL     1     -10.282  12.184  63.633  1.00  0.00    -0.459 C  
HETATM   21  C   UNL     1     -12.766  11.926  63.370  1.00  0.00    -0.496 C  
ENDBRANCH  16  18
ENDBRANCH  15  16
ENDBRANCH  14  15
ENDBRANCH  13  14
BRANCH  11  22
HETATM   22  O   UNL     1     -11.698  16.166  69.365  1.00  0.00    -0.304 OA 
BRANCH  22  23
HETATM   23  C   UNL     1     -12.388  15.266  70.206  1.00  0.00    -0.366 C  
BRANCH  23  24
HETATM   24  C   UNL     1     -11.853  13.863  69.952  1.00  0.00    -0.328 C  
BRANCH  24  25
HETATM   25  N   UNL     1     -12.376  12.947  70.932  1.00  0.00    -0.350 NA 
HETATM   26  C   UNL     1     -12.185  11.598  70.917  1.00  0.00    -0.298 A  
HETATM   27  N   UNL     1     -11.355  10.895  70.129  1.00  0.00    -0.298 NA 
HETATM   28  H2  UNL     1     -15.001   9.410  72.556  1.00  0.00     0.000 HD 
HETATM   29  H1  UNL     1     -14.127   8.055  72.877  1.00  0.00     0.000 HD 
HETATM   30  C   UNL     1     -13.315  13.233  71.886  1.00  0.00    -0.451 A  
HETATM   31  N   UNL     1     -13.771  12.140  72.458  1.00  0.00    -0.010 NA 
HETATM   32  C   UNL     1     -13.089  11.106  71.839  1.00  0.00    -0.408 A  
HETATM   33  C   UNL     1     -13.170   9.711  71.955  1.00  0.00    -0.446 A  
HETATM   34  N   UNL     1     -14.069   9.070  72.793  1.00  0.00    -0.498 NA 
HETATM   35  N   UNL     1     -12.330   8.952  71.209  1.00  0.00    -0.305 NA 
HETATM   36  C   UNL     1     -11.485   9.574  70.356  1.00  0.00    -0.242 A  
ENDBRANCH  24  25
ENDBRANCH  23  24
ENDBRANCH  22  23
ENDBRANCH  11  22
ENDBRANCH   8   9
ENDBRANCH   7   8
ENDBRANCH   5   7
ENDBRANCH   2   5
TORSDOF 12
ENDMDL
MODEL        6
REMARK 921   NORMALIZED FREE ENERGY PREDICTED BY IDOCK:   -6.53 KCAL/MOL
REMARK 922        TOTAL FREE ENERGY PREDICTED BY IDOCK:  -12.71 KCAL/MOL
REMARK 923 INTER-LIGAND FREE ENERGY PREDICTED BY IDOCK:  -10.86 KCAL/MOL
REMARK 924 INTRA-LIGAND FREE ENERGY PREDICTED BY IDOCK:   -1.85 KCAL/MOL
REMARK 927      BINDING AFFINITY PREDICTED BY RF-SCORE:    0.00 PKD
ROOT
HETATM    1  C   UNL     1     -10.736  19.747  65.797  1.00  0.00    -0.474 C  
HETATM    2  C   UNL     1      -9.760  19.609  66.981  1.00  0.00    -0.475 C  
HETATM    3  C   UNL     1      -9.413  21.013  67.493  1.00  0.00    -0.233 C  
HETATM    4  C   UNL     1     -10.457  18.807  68.091  1.00  0.00    -0.372 C  
ENDROOT
BRANCH   2   5
HETATM    5  C   UNL     1      -8.512  18.848  66.507  1.00  0.00    -0.304 C  
HETATM    6  O   UNL     1      -7.390  19.345  66.477  1.00  0.00    -0.221 OA 
BRANCH   5   7
HETATM    7  O   UNL     1      -8.796  17.603  66.030  1.00  0.00    -0.502 OA 
BRANCH   7   8
HETATM    8  C   UNL     1      -7.876  16.580  66.455  1.00  0.00    -0.289 C  
BRANCH   8   9
HETATM    9  O   UNL     1      -8.443  15.273  66.482  1.00  0.00    -0.265 OA 
HETATM   10  P   UNL     1      -8.021  14.365  67.765  1.00  0.00    -0.191 P  
HETATM   11  C   UNL     1      -8.688  15.244  69.198  1.00  0.00    -0.238 C  
HETATM   12  O   UNL     1      -6.562  14.045  67.825  1.00  0.00    -0.154 OA 
HETATM   13  O   UNL     1      -9.020  13.102  67.763  1.00  0.00    -0.174 OA 
BRANCH  13  14
HETATM   14  C   UNL     1      -8.887  12.014  66.895  1.00  0.00    -0.197 C  
BRANCH  14  15
HETATM   15  O   UNL     1     -10.194  11.626  66.408  1.00  0.00    -0.211 OA 
BRANCH  15  16
HETATM   16  C   UNL     1     -10.461  11.941  65.109  1.00  0.00    -0.287 C  
HETATM   17  O   UNL     1      -9.890  11.434  64.151  1.00  0.00    -0.241 OA 
BRANCH  16  18
HETATM   18  C   UNL     1     -11.559  13.019  64.980  1.00  0.00    -0.359 C  
HETATM   19  C   UNL     1     -10.937  14.331  64.460  1.00  0.00    -0.311 C  
HETATM   20  C   UNL     1     -12.195  13.298  66.348  1.00  0.00    -0.419 C  
HETATM   21  C   UNL     1     -12.642  12.580  63.983  1.00  0.00    -0.481 C  
ENDBRANCH  16  18
ENDBRANCH  15  16
ENDBRANCH  14  15
ENDBRANCH  13  14
BRANCH  11  22
HETATM   22  O   UNL     1     -10.089  15.346  68.931  1.00  0.00    -0.202 OA 
BRANCH  22  23
HETATM   23  C   UNL     1     -10.855  15.606  70.089  1.00  0.00    -0.343 C  
BRANCH  23  24
HETATM   24  C   UNL     1     -12.261  15.066  69.868  1.00  0.00    -0.309 C  
BRANCH  24  25
HETATM   25  N   UNL     1     -12.530  13.989  70.785  1.00  0.00    -0.351 NA 
HETATM   26  C   UNL     1     -12.262  12.676  70.544  1.00  0.00    -0.299 A  
HETATM   27  N   UNL     1     -11.554  12.155  69.528  1.00  0.00    -0.312 NA 
HETATM   28  H2  UNL     1     -14.575  10.057  72.332  1.00  0.00     0.000 HD 
HETATM   29  H1  UNL     1     -13.573   8.754  72.296  1.00  0.00     0.000 HD 
HETATM   30  C   UNL     1     -13.288  14.067  71.922  1.00  0.00    -0.406 A  
HETATM   31  N   UNL     1     -13.559  12.873  72.405  1.00  0.00    -0.564 NA 
HETATM   32  C   UNL     1     -12.943  11.992  71.533  1.00  0.00    -0.304 A  
HETATM   33  C   UNL     1     -12.913  10.592  71.462  1.00  0.00    -0.460 A  
HETATM   34  N   UNL     1     -13.596   9.772  72.348  1.00  0.00    -0.347 NA 
HETATM   35  N   UNL     1     -12.184  10.011  70.478  1.00  0.00    -0.251 NA 
HETATM   36  C   UNL     1     -11.557  10.809  69.584  1.00  0.00    -0.316 A  
ENDBRANCH  24  25
ENDBRANCH  23  24
ENDBRANCH  22  23
ENDBRANCH  11  22
ENDBRANCH   8   9
ENDBRANCH   7   8
ENDBRANCH   5   7
ENDBRANCH   2   5
TORSDOF 12
ENDMDL
MODEL        7
REMARK 921   NORMALIZED FREE ENERGY PREDICTED BY IDOCK:   -6.48 KCAL/MOL
REMARK 922        TOTAL FREE ENERGY PREDICTED BY IDOCK:  -12.63 KCAL/MOL
REMARK 923 INTER-LIGAND FREE ENERGY PREDICTED BY IDOCK:  -11.48 KCAL/MOL
REMARK 924 INTRA-LIGAND FREE ENERGY PREDICTED BY IDOCK:   -1.15 KCAL/MOL
REMARK 927      BINDING AFFINITY PREDICTED BY RF-SCORE:    0.00 PKD
ROOT
HETATM    1  C   UNL     1      -7.659   8.534  65.224  1.00  0.00    -0.089 C  
HETATM    2  C   UNL     1      -8.799   9.546  65.451  1.00  0.00    -0.213 C  
HETATM    3  C   UNL     1      -9.929   8.844  66.212  1.00  0.00    -0.337 C  
HETATM    4  C   UNL     1      -8.251  10.711  66.290  1.00  0.00    -0.153 C  
ENDROOT
BRANCH   2   5
HETATM    5  C   UNL     1      -9.269  10.075  64.086  1.00  0.00    -0.271 C  
HETATM    6  O   UNL     1      -8.596   9.989  63.063  1.00  0.00    -0.159 OA 
BRANCH   5   7
HETATM    7  O   UNL     1     -10.459  10.736  64.152  1.00  0.00    -0.364 OA 
BRANCH   7   8
HETATM    8  C   UNL     1     -10.516  11.936  63.357  1.00  0.00    -0.441 C  
BRANCH   8   9
HETATM    9  O   UNL     1     -10.281  13.129  64.100  1.00  0.00    -0.391 OA 
HETATM   10  P   UNL     1     -11.619  13.881  64.640  1.00  0.00    -0.401 P  
HETATM   11  C   UNL     1     -12.385  12.706  65.783  1.00  0.00    -0.253 C  
HETATM   12  O   UNL     1     -12.505  14.393  63.551  1.00  0.00    -0.770 OA 
HETATM   13  O   UNL     1     -11.115  14.973  65.710  1.00  0.00    -0.340 OA 
BRANCH  13  14
HETATM   14  C   UNL     1     -10.524  16.188  65.351  1.00  0.00    -0.373 C  
BRANCH  14  15
HETATM   15  O   UNL     1     -10.506  17.070  66.499  1.00  0.00    -0.305 OA 
BRANCH  15  16
HETATM   16  C   UNL     1     -10.341  18.396  66.227  1.00  0.00    -0.415 C  
HETATM   17  O   UNL     1     -10.792  18.951  65.232  1.00  0.00    -0.559 OA 
BRANCH  16  18
HETATM   18  C   UNL     1      -9.510  19.119  67.309  1.00  0.00    -0.367 C  
HETATM   19  C   UNL     1      -9.889  20.614  67.337  1.00  0.00    -0.527 C  
HETATM   20  C   UNL     1      -8.013  19.008  66.993  1.00  0.00    -0.269 C  
HETATM   21  C   UNL     1      -9.794  18.530  68.699  1.00  0.00    -0.419 C  
ENDBRANCH  16  18
ENDBRANCH  15  16
ENDBRANCH  14  15
ENDBRANCH  13  14
BRANCH  11  22
HETATM   22  O   UNL     1     -11.370  12.447  66.757  1.00  0.00    -0.295 OA 
BRANCH  22  23
HETATM   23  C   UNL     1     -11.807  12.670  68.082  1.00  0.00    -0.315 C  
BRANCH  23  24
HETATM   24  C   UNL     1     -10.883  11.915  69.027  1.00  0.00    -0.190 C  
BRANCH  24  25
HETATM   25  N   UNL     1     -11.599  11.517  70.210  1.00  0.00    -0.274 NA 
HETATM   26  C   UNL     1     -11.656  10.245  70.696  1.00  0.00    -0.347 A  
HETATM   27  N   UNL     1     -10.937   9.182  70.299  1.00  0.00    -0.239 NA 
HETATM   28  H2  UNL     1     -14.881   9.279  72.712  1.00  0.00     0.000 HD 
HETATM   29  H1  UNL     1     -14.280   8.020  73.582  1.00  0.00     0.000 HD 
HETATM   30  C   UNL     1     -12.507  12.275  70.899  1.00  0.00    -0.276 A  
HETATM   31  N   UNL     1     -13.176  11.555  71.774  1.00  0.00    -0.432 NA 
HETATM   32  C   UNL     1     -12.669  10.274  71.636  1.00  0.00    -0.456 A  
HETATM   33  C   UNL     1     -13.005   9.050  72.233  1.00  0.00    -0.424 A  
HETATM   34  N   UNL     1     -14.036   8.910  73.148  1.00  0.00    -0.234 NA 
HETATM   35  N   UNL     1     -12.288   7.950  71.896  1.00  0.00    -0.304 NA 
HETATM   36  C   UNL     1     -11.313   8.075  70.967  1.00  0.00    -0.273 A  
ENDBRANCH  24  25
ENDBRANCH  23  24
ENDBRANCH  22  23
ENDBRANCH  11  22
ENDBRANCH   8   9
ENDBRANCH   7   8
ENDBRANCH   5   7
ENDBRANCH   2   5
TORSDOF 12
ENDMDL
MODEL        8
REMARK 921   NORMALIZED FREE ENERGY PREDICTED BY IDOCK:   -6.46 KCAL/MOL
REMARK 922        TOTAL FREE ENERGY PREDICTED BY IDOCK:  -12.58 KCAL/MOL
REMARK 923 INTER-LIGAND FREE ENERGY PREDICTED BY IDOCK:  -11.11 KCAL/MOL
REMARK 924 INTRA-LIGAND FREE ENERGY PREDICTED BY IDOCK:   -1.47 KCAL/MOL
REMARK 927      BINDING AFFINITY PREDICTED BY RF-SCORE:    0.00 PKD
ROOT
HETATM    1  C   UNL     1      -7.911  19.978  66.478  1.00  0.00    -0.343 C  
HETATM    2  C   UNL     1      -9.050  18.994  66.808  1.00  0.00    -0.340 C  
HETATM    3  C   UNL     1      -9.246  18.968  68.329  1.00  0.00    -0.381 C  
HETATM    4  C   UNL     1     -10.334  19.494  66.127  1.00  0.00    -0.614 C  
ENDROOT
BRANCH   2   5
HETATM    5  C   UNL     1      -8.684  17.608  66.254  1.00  0.00    -0.179 C  
HETATM    6  O   UNL     1      -7.593  17.076  66.437  1.00  0.00    -0.262 OA 
BRANCH   5   7
HETATM    7  O   UNL     1      -9.654  17.079  65.457  1.00  0.00    -0.522 OA 
BRANCH   7   8
HETATM    8  C   UNL     1      -9.816  15.654  65.585  1.00  0.00    -0.333 C  
BRANCH   8   9
HETATM    9  O   UNL     1     -10.341  15.247  66.845  1.00  0.00    -0.267 OA 
HETATM   10  P   UNL     1     -11.234  13.886  66.815  1.00  0.00    -0.343 P  
HETATM   11  C   UNL     1     -10.087  12.589  66.293  1.00  0.00    -0.250 C  
HETATM   12  O   UNL     1     -12.486  14.004  66.008  1.00  0.00    -0.468 OA 
HETATM   13  O   UNL     1     -11.423  13.445  68.351  1.00  0.00    -0.273 OA 
BRANCH  13  14
HETATM   14  C   UNL     1     -12.320  14.065  69.227  1.00  0.00    -0.171 C  
BRANCH  14  15
HETATM   15  O   UNL     1     -11.869  13.875  70.589  1.00  0.00    -0.296 OA 
BRANCH  15  16
HETATM   16  C   UNL     1     -11.981  14.959  71.408  1.00  0.00    -0.345 C  
HETATM   17  O   UNL     1     -11.304  15.975  71.294  1.00  0.00    -0.389 OA 
BRANCH  16  18
HETATM   18  C   UNL     1     -13.050  14.760  72.504  1.00  0.00    -0.492 C  
HETATM   19  C   UNL     1     -13.530  13.294  72.496  1.00  0.00    -0.620 C  
HETATM   20  C   UNL     1     -14.260  15.664  72.237  1.00  0.00    -0.538 C  
HETATM   21  C   UNL     1     -12.471  15.063  73.893  1.00  0.00    -0.660 C  
ENDBRANCH  16  18
ENDBRANCH  15  16
ENDBRANCH  14  15
ENDBRANCH  13  14
BRANCH  11  22
HETATM   22  O   UNL     1      -9.037  12.632  67.262  1.00  0.00    -0.177 OA 
BRANCH  22  23
HETATM   23  C   UNL     1      -8.567  11.350  67.625  1.00  0.00    -0.130 C  
BRANCH  23  24
HETATM   24  C   UNL     1      -9.693  10.347  67.416  1.00  0.00    -0.163 C  
BRANCH  24  25
HETATM   25  N   UNL     1     -10.114   9.802  68.680  1.00  0.00    -0.163 NA 
HETATM   26  C   UNL     1     -10.446   8.498  68.893  1.00  0.00    -0.188 A  
HETATM   27  N   UNL     1     -10.278   7.460  68.057  1.00  0.00    -0.183 NA 
HETATM   28  H2  UNL     1     -13.053   7.795  71.741  1.00  0.00     0.000 HD 
HETATM   29  H1  UNL     1     -12.678   6.226  72.059  1.00  0.00     0.000 HD 
HETATM   30  C   UNL     1     -10.467  10.517  69.792  1.00  0.00    -0.200 A  
HETATM   31  N   UNL     1     -11.045   9.755  70.695  1.00  0.00    -0.306 NA 
HETATM   32  C   UNL     1     -11.062   8.491  70.130  1.00  0.00    -0.188 A  
HETATM   33  C   UNL     1     -11.595   7.266  70.559  1.00  0.00    -0.258 A  
HETATM   34  N   UNL     1     -12.291   7.117  71.748  1.00  0.00    -0.336 NA 
HETATM   35  N   UNL     1     -11.423   6.177  69.770  1.00  0.00    -0.401 NA 
HETATM   36  C   UNL     1     -10.786   6.332  68.588  1.00  0.00    -0.333 A  
ENDBRANCH  24  25
ENDBRANCH  23  24
ENDBRANCH  22  23
ENDBRANCH  11  22
ENDBRANCH   8   9
ENDBRANCH   7   8
ENDBRANCH   5   7
ENDBRANCH   2   5
TORSDOF 12
ENDMDL
MODEL        9
REMARK 921   NORMALIZED FREE ENERGY PREDICTED BY IDOCK:   -6.42 KCAL/MOL
REMARK 922        TOTAL FREE ENERGY PREDICTED BY IDOCK:  -12.53 KCAL/MOL
REMARK 923 INTER-LIGAND FREE ENERGY PREDICTED BY IDOCK:  -10.82 KCAL/MOL
REMARK 924 INTRA-LIGAND FREE ENERGY PREDICTED BY IDOCK:   -1.71 KCAL/MOL
REMARK 927      BINDING AFFINITY PREDICTED BY RF-SCORE:    0.00 PKD
ROOT
HETATM    1  C   UNL     1      -7.904   5.838  67.892  1.00  0.00    -0.097 C  
HETATM    2  C   UNL     1      -9.409   5.575  67.685  1.00  0.00    -0.116 C  
HETATM    3  C   UNL     1      -9.976   6.676  66.780  1.00  0.00    -0.238 C  
HETATM    4  C   UNL     1      -9.570   4.207  67.004  1.00  0.00    -0.228 C  
ENDROOT
BRANCH   2   5
HETATM    5  C   UNL     1     -10.099   5.548  69.057  1.00  0.00    -0.205 C  
HETATM    6  O   UNL     1      -9.645   4.949  70.028  1.00  0.00    -0.155 OA 
BRANCH   5   7
HETATM    7  O   UNL     1     -11.311   6.171  69.057  1.00  0.00    -0.390 OA 
BRANCH   7   8
HETATM    8  C   UNL     1     -11.716   6.684  70.340  1.00  0.00    -0.386 C  
BRANCH   8   9
HETATM    9  O   UNL     1     -12.105   8.054  70.314  1.00  0.00     0.138 OA 
HETATM   10  P   UNL     1     -11.111   9.070  71.108  1.00  0.00    -0.364 P  
HETATM   11  C   UNL     1      -9.537   8.966  70.222  1.00  0.00    -0.186 C  
HETATM   12  O   UNL     1     -11.042   8.820  72.580  1.00  0.00    -0.266 OA 
HETATM   13  O   UNL     1     -11.546  10.555  70.664  1.00  0.00    -0.319 OA 
BRANCH  13  14
HETATM   14  C   UNL     1     -12.679  11.207  71.161  1.00  0.00    -0.408 C  
BRANCH  14  15
HETATM   15  O   UNL     1     -12.449  12.636  71.158  1.00  0.00    -0.348 OA 
BRANCH  15  16
HETATM   16  C   UNL     1     -13.302  13.376  71.923  1.00  0.00    -0.451 C  
HETATM   17  O   UNL     1     -14.203  12.897  72.601  1.00  0.00    -0.523 OA 
BRANCH  16  18
HETATM   18  C   UNL     1     -13.011  14.889  71.831  1.00  0.00    -0.414 C  
HETATM   19  C   UNL     1     -14.238  15.682  72.325  1.00  0.00    -0.538 C  
HETATM   20  C   UNL     1     -12.732  15.290  70.377  1.00  0.00    -0.400 C  
HETATM   21  C   UNL     1     -11.813  15.270  72.714  1.00  0.00    -0.521 C  
ENDBRANCH  16  18
ENDBRANCH  15  16
ENDBRANCH  14  15
ENDBRANCH  13  14
BRANCH  11  22
HETATM   22  O   UNL     1      -9.862   9.325  68.877  1.00  0.00    -0.158 OA 
BRANCH  22  23
HETATM   23  C   UNL     1      -8.767   9.871  68.171  1.00  0.00    -0.122 C  
BRANCH  23  24
HETATM   24  C   UNL     1      -9.073  11.330  67.862  1.00  0.00    -0.150 C  
BRANCH  24  25
HETATM   25  N   UNL     1      -9.704  11.443  66.573  1.00  0.00    -0.196 NA 
HETATM   26  C   UNL     1     -10.709  12.312  66.272  1.00  0.00    -0.259 A  
HETATM   27  N   UNL     1     -11.173  13.324  67.023  1.00  0.00    -0.283 NA 
HETATM   28  H2  UNL     1     -13.201  11.200  63.451  1.00  0.00     0.000 HD 
HETATM   29  H1  UNL     1     -13.771  12.677  63.006  1.00  0.00     0.000 HD 
HETATM   30  C   UNL     1      -9.568  10.570  65.527  1.00  0.00    -0.230 A  
HETATM   31  N   UNL     1     -10.458  10.801  64.586  1.00  0.00    -0.329 NA 
HETATM   32  C   UNL     1     -11.197  11.875  65.054  1.00  0.00    -0.293 A  
HETATM   33  C   UNL     1     -12.319  12.548  64.551  1.00  0.00    -0.467 A  
HETATM   34  N   UNL     1     -12.955  12.186  63.373  1.00  0.00    -0.747 NA 
HETATM   35  N   UNL     1     -12.808  13.601  65.250  1.00  0.00    -0.723 NA 
HETATM   36  C   UNL     1     -12.218  13.924  66.424  1.00  0.00    -0.449 A  
ENDBRANCH  24  25
ENDBRANCH  23  24
ENDBRANCH  22  23
ENDBRANCH  11  22
ENDBRANCH   8   9
ENDBRANCH   7   8
ENDBRANCH   5   7
ENDBRANCH   2   5
TORSDOF 12
ENDMDL
MODEL       10
REMARK 921   NORMALIZED FREE ENERGY PREDICTED BY IDOCK:   -6.42 KCAL/MOL
REMARK 922        TOTAL FREE ENERGY PREDICTED BY IDOCK:  -12.53 KCAL/MOL
REMARK 923 INTER-LIGAND FREE ENERGY PREDICTED BY IDOCK:  -10.88 KCAL/MOL
REMARK 924 INTRA-LIGAND FREE ENERGY PREDICTED BY IDOCK:   -1.64 KCAL/MOL
REMARK 927      BINDING AFFINITY PREDICTED BY RF-SCORE:    0.00 PKD
ROOT
HETATM    1  C   UNL     1      -8.392  18.003  67.020  1.00  0.00    -0.248 C  
HETATM    2  C   UNL     1      -9.907  17.971  66.738  1.00  0.00    -0.335 C  
HETATM    3  C   UNL     1     -10.633  17.562  68.025  1.00  0.00    -0.384 C  
HETATM    4  C   UNL     1     -10.349  19.381  66.316  1.00  0.00    -0.584 C  
ENDROOT
BRANCH   2   5
HETATM    5  C   UNL     1     -10.175  16.986  65.590  1.00  0.00    -0.176 C  
HETATM    6  O   UNL     1     -10.998  17.193  64.703  1.00  0.00    -1.005 OA 
BRANCH   5   7
HETATM    7  O   UNL     1      -9.481  15.820  65.714  1.00  0.00    -0.335 OA 
BRANCH   7   8
HETATM    8  C   UNL     1     -10.284  14.633  65.578  1.00  0.00    -0.370 C  
BRANCH   8   9
HETATM    9  O   UNL     1     -10.669  14.054  66.822  1.00  0.00    -0.282 OA 
HETATM   10  P   UNL     1     -10.997  12.461  66.771  1.00  0.00    -0.293 P  
HETATM   11  C   UNL     1      -9.434  11.679  66.301  1.00  0.00    -0.218 C  
HETATM   12  O   UNL     1     -12.174  12.114  65.918  1.00  0.00    -0.604 OA 
HETATM   13  O   UNL     1     -11.067  11.972  68.303  1.00  0.00    -0.211 OA 
BRANCH  13  14
HETATM   14  C   UNL     1     -12.161  12.214  69.140  1.00  0.00    -0.168 C  
BRANCH  14  15
HETATM   15  O   UNL     1     -11.786  13.181  70.151  1.00  0.00    -0.313 OA 
BRANCH  15  16
HETATM   16  C   UNL     1     -12.649  13.308  71.199  1.00  0.00    -0.325 C  
HETATM   17  O   UNL     1     -13.225  12.364  71.729  1.00  0.00    -0.440 OA 
BRANCH  16  18
HETATM   18  C   UNL     1     -12.828  14.777  71.637  1.00  0.00    -0.405 C  
HETATM   19  C   UNL     1     -14.295  15.018  72.047  1.00  0.00    -0.666 C  
HETATM   20  C   UNL     1     -12.491  15.723  70.478  1.00  0.00    -0.371 C  
HETATM   21  C   UNL     1     -11.938  15.098  72.847  1.00  0.00    -0.470 C  
ENDBRANCH  16  18
ENDBRANCH  15  16
ENDBRANCH  14  15
ENDBRANCH  13  14
BRANCH  11  22
HETATM   22  O   UNL     1      -8.511  12.100  67.308  1.00  0.00    -0.163 OA 
BRANCH  22  23
HETATM   23  C   UNL     1      -7.716  11.044  67.806  1.00  0.00    -0.108 C  
BRANCH  23  24
HETATM   24  C   UNL     1      -8.412   9.727  67.489  1.00  0.00    -0.122 C  
BRANCH  24  25
HETATM   25  N   UNL     1      -8.844   9.088  68.704  1.00  0.00    -0.136 NA 
HETATM   26  C   UNL     1      -9.658   7.997  68.763  1.00  0.00    -0.149 A  
HETATM   27  N   UNL     1     -10.058   7.215  67.747  1.00  0.00    -0.162 NA 
HETATM   28  H2  UNL     1     -11.898   7.652  71.967  1.00  0.00     0.000 HD 
HETATM   29  H1  UNL     1     -12.175   6.033  71.921  1.00  0.00     0.000 HD 
HETATM   30  C   UNL     1      -8.706   9.585  69.972  1.00  0.00    -0.221 A  
HETATM   31  N   UNL     1      -9.419   8.900  70.840  1.00  0.00    -0.214 NA 
HETATM   32  C   UNL     1     -10.042   7.918  70.088  1.00  0.00    -0.194 A  
HETATM   33  C   UNL     1     -10.974   6.922  70.412  1.00  0.00    -0.274 A  
HETATM   34  N   UNL     1     -11.497   6.758  71.686  1.00  0.00    -0.267 NA 
HETATM   35  N   UNL     1     -11.385   6.080  69.433  1.00  0.00    -0.348 NA 
HETATM   36  C   UNL     1     -10.913   6.269  68.180  1.00  0.00    -0.323 A  
ENDBRANCH  24  25
ENDBRANCH  23  24
ENDBRANCH  22  23
ENDBRANCH  11  22
ENDBRANCH   8   9
ENDBRANCH   7   8
ENDBRANCH   5   7
ENDBRANCH   2   5
TORSDOF 12
ENDMDL
MODEL       11
REMARK 921   NORMALIZED FREE ENERGY PREDICTED BY IDOCK:   -6.41 KCAL/MOL
REMARK 922        TOTAL FREE ENERGY PREDICTED BY IDOCK:  -12.50 KCAL/MOL
REMARK 923 INTER-LIGAND FREE ENERGY PREDICTED BY IDOCK:  -10.65 KCAL/MOL
REMARK 924 INTRA-LIGAND FREE ENERGY PREDICTED BY IDOCK:   -1.85 KCAL/MOL
REMARK 927      BINDING AFFINITY PREDICTED BY RF-SCORE:    0.00 PKD
ROOT
HETATM    1  C   UNL     1     -11.328  11.850  65.557  1.00  0.00    -0.334 C  
HETATM    2  C   UNL     1     -11.434  12.442  64.138  1.00  0.00    -0.448 C  
HETATM    3  C   UNL     1     -10.186  12.036  63.346  1.00  0.00    -0.457 C  
HETATM    4  C   UNL     1     -12.689  11.862  63.466  1.00  0.00    -0.530 C  
ENDROOT
BRANCH   2   5
HETATM    5  C   UNL     1     -11.573  13.968  64.248  1.00  0.00    -0.329 C  
HETATM    6  O   UNL     1     -12.545  14.589  63.827  1.00  0.00    -0.825 OA 
BRANCH   5   7
HETATM    7  O   UNL     1     -10.465  14.568  64.768  1.00  0.00    -0.423 OA 
BRANCH   7   8
HETATM    8  C   UNL     1     -10.743  15.711  65.599  1.00  0.00    -0.364 C  
BRANCH   8   9
HETATM    9  O   UNL     1      -9.722  15.990  66.553  1.00  0.00    -0.236 OA 
HETATM   10  P   UNL     1     -10.172  16.955  67.783  1.00  0.00    -0.330 P  
HETATM   11  C   UNL     1     -11.453  16.026  68.660  1.00  0.00    -0.377 C  
HETATM   12  O   UNL     1     -10.552  18.337  67.359  1.00  0.00    -0.404 OA 
HETATM   13  O   UNL     1      -8.998  16.852  68.880  1.00  0.00    -0.259 OA 
BRANCH  13  14
HETATM   14  C   UNL     1      -7.768  17.508  68.759  1.00  0.00    -0.252 C  
BRANCH  14  15
HETATM   15  O   UNL     1      -6.698  16.578  69.050  1.00  0.00    -0.173 OA 
BRANCH  15  16
HETATM   16  C   UNL     1      -6.424  15.664  68.076  1.00  0.00    -0.138 C  
HETATM   17  O   UNL     1      -6.248  15.952  66.898  1.00  0.00    -0.302 OA 
BRANCH  16  18
HETATM   18  C   UNL     1      -6.370  14.221  68.623  1.00  0.00    -0.088 C  
HETATM   19  C   UNL     1      -5.165  13.481  68.007  1.00  0.00    -0.110 C  
HETATM   20  C   UNL     1      -7.647  13.460  68.244  1.00  0.00    -0.135 C  
HETATM   21  C   UNL     1      -6.197  14.221  70.149  1.00  0.00    -0.161 C  
ENDBRANCH  16  18
ENDBRANCH  15  16
ENDBRANCH  14  15
ENDBRANCH  13  14
BRANCH  11  22
HETATM   22  O   UNL     1     -10.816  14.799  69.022  1.00  0.00    -0.229 OA 
BRANCH  22  23
HETATM   23  C   UNL     1     -11.610  13.663  68.751  1.00  0.00    -0.324 C  
BRANCH  23  24
HETATM   24  C   UNL     1     -11.920  12.965  70.068  1.00  0.00    -0.309 C  
BRANCH  24  25
HETATM   25  N   UNL     1     -11.611  11.563  69.973  1.00  0.00    -0.302 NA 
HETATM   26  C   UNL     1     -12.089  10.602  70.811  1.00  0.00    -0.374 A  
HETATM   27  N   UNL     1     -13.050  10.727  71.741  1.00  0.00    -0.478 NA 
HETATM   28  H2  UNL     1      -9.819   7.444  71.337  1.00  0.00     0.000 HD 
HETATM   29  H1  UNL     1     -10.966   6.373  71.827  1.00  0.00     0.000 HD 
HETATM   30  C   UNL     1     -10.634  11.002  69.196  1.00  0.00    -0.219 A  
HETATM   31  N   UNL     1     -10.427   9.742  69.515  1.00  0.00    -0.217 NA 
HETATM   32  C   UNL     1     -11.315   9.488  70.545  1.00  0.00    -0.283 A  
HETATM   33  C   UNL     1     -11.540   8.362  71.351  1.00  0.00    -0.284 A  
HETATM   34  N   UNL     1     -10.803   7.192  71.242  1.00  0.00    -0.231 NA 
HETATM   35  N   UNL     1     -12.523   8.420  72.282  1.00  0.00    -0.361 NA 
HETATM   36  C   UNL     1     -13.210   9.576  72.422  1.00  0.00    -0.368 A  
ENDBRANCH  24  25
ENDBRANCH  23  24
ENDBRANCH  22  23
ENDBRANCH  11  22
ENDBRANCH   8   9
ENDBRANCH   7   8
ENDBRANCH   5   7
ENDBRANCH   2   5
TORSDOF 12
ENDMDL
MODEL       12
REMARK 921   NORMALIZED FREE ENERGY PREDICTED BY IDOCK:   -6.39 KCAL/MOL
REMARK 922        TOTAL FREE ENERGY PREDICTED BY IDOCK:  -12.46 KCAL/MOL
REMARK 923 INTER-LIGAND FREE ENERGY PREDICTED BY IDOCK:  -11.25 KCAL/MOL
REMARK 924 INTRA-LIGAND FREE ENERGY PREDICTED BY IDOCK:   -1.21 KCAL/MOL
REMARK 927      BINDING AFFINITY PREDICTED BY RF-SCORE:    0.00 PKD
ROOT
HETATM    1  C   UNL     1      -9.100   8.746  65.836  1.00  0.00    -0.271 C  
HETATM    2  C   UNL     1      -8.315   9.165  64.578  1.00  0.00    -0.175 C  
HETATM    3  C   UNL     1      -7.054   9.917  65.019  1.00  0.00    -0.131 C  
HETATM    4  C   UNL     1      -7.922   7.895  63.808  1.00  0.00    -0.119 C  
ENDROOT
BRANCH   2   5
HETATM    5  C   UNL     1      -9.224  10.037  63.696  1.00  0.00    -0.274 C  
HETATM    6  O   UNL     1      -9.055  10.178  62.488  1.00  0.00    -0.236 OA 
BRANCH   5   7
HETATM    7  O   UNL     1     -10.170  10.711  64.408  1.00  0.00    -0.346 OA 
BRANCH   7   8
HETATM    8  C   UNL     1     -10.805  11.782  63.684  1.00  0.00    -0.440 C  
BRANCH   8   9
HETATM    9  O   UNL     1     -10.506  13.078  64.197  1.00  0.00    -0.413 OA 
HETATM   10  P   UNL     1     -11.681  13.750  65.101  1.00  0.00    -0.388 P  
HETATM   11  C   UNL     1     -11.850  12.657  66.533  1.00  0.00    -0.396 C  
HETATM   12  O   UNL     1     -12.941  14.025  64.346  1.00  0.00    -0.505 OA 
HETATM   13  O   UNL     1     -11.008  15.015  65.835  1.00  0.00    -0.331 OA 
BRANCH  13  14
HETATM   14  C   UNL     1     -10.747  16.230  65.193  1.00  0.00    -0.331 C  
BRANCH  14  15
HETATM   15  O   UNL     1      -9.685  16.923  65.892  1.00  0.00    -0.467 OA 
BRANCH  15  16
HETATM   16  C   UNL     1      -9.992  18.169  66.352  1.00  0.00    -0.376 C  
HETATM   17  O   UNL     1     -10.433  19.070  65.646  1.00  0.00    -0.554 OA 
BRANCH  16  18
HETATM   18  C   UNL     1      -9.712  18.323  67.862  1.00  0.00    -0.314 C  
HETATM   19  C   UNL     1     -10.310  19.653  68.365  1.00  0.00    -0.502 C  
HETATM   20  C   UNL     1      -8.201  18.346  68.124  1.00  0.00    -0.303 C  
HETATM   21  C   UNL     1     -10.361  17.181  68.657  1.00  0.00    -0.359 C  
ENDBRANCH  16  18
ENDBRANCH  15  16
ENDBRANCH  14  15
ENDBRANCH  13  14
BRANCH  11  22
HETATM   22  O   UNL     1     -10.544  12.630  67.115  1.00  0.00    -0.233 OA 
BRANCH  22  23
HETATM   23  C   UNL     1     -10.568  12.645  68.527  1.00  0.00    -0.243 C  
BRANCH  23  24
HETATM   24  C   UNL     1     -11.739  11.793  68.998  1.00  0.00    -0.328 C  
BRANCH  24  25
HETATM   25  N   UNL     1     -11.258  10.635  69.705  1.00  0.00    -0.275 NA 
HETATM   26  C   UNL     1     -11.930   9.998  70.704  1.00  0.00    -0.313 A  
HETATM   27  N   UNL     1     -13.202  10.192  71.092  1.00  0.00    -0.379 NA 
HETATM   28  H2  UNL     1      -9.744   8.163  73.398  1.00  0.00     0.000 HD 
HETATM   29  H1  UNL     1     -10.859   7.090  73.955  1.00  0.00     0.000 HD 
HETATM   30  C   UNL     1      -9.987  10.130  69.659  1.00  0.00    -0.232 A  
HETATM   31  N   UNL     1      -9.789   9.232  70.600  1.00  0.00    -0.249 NA 
HETATM   32  C   UNL     1     -10.993   9.161  71.279  1.00  0.00    -0.330 A  
HETATM   33  C   UNL     1     -11.404   8.445  72.412  1.00  0.00    -0.378 A  
HETATM   34  N   UNL     1     -10.560   7.612  73.131  1.00  0.00    -0.372 NA 
HETATM   35  N   UNL     1     -12.687   8.575  72.828  1.00  0.00    -0.219 NA 
HETATM   36  C   UNL     1     -13.499   9.424  72.158  1.00  0.00    -0.471 A  
ENDBRANCH  24  25
ENDBRANCH  23  24
ENDBRANCH  22  23
ENDBRANCH  11  22
ENDBRANCH   8   9
ENDBRANCH   7   8
ENDBRANCH   5   7
ENDBRANCH   2   5
TORSDOF 12
ENDMDL
MODEL       13
REMARK 921   NORMALIZED FREE ENERGY PREDICTED BY IDOCK:   -6.38 KCAL/MOL
REMARK 922        TOTAL FREE ENERGY PREDICTED BY IDOCK:  -12.46 KCAL/MOL
REMARK 923 INTER-LIGAND FREE ENERGY PREDICTED BY IDOCK:  -10.63 KCAL/MOL
REMARK 924 INTRA-LIGAND FREE ENERGY PREDICTED BY IDOCK:   -1.83 KCAL/MOL
REMARK 927      BINDING AFFINITY PREDICTED BY RF-SCORE:    0.00 PKD
ROOT
HETATM    1  C   UNL     1      -8.326  18.692  66.347  1.00  0.00    -0.292 C  
HETATM    2  C   UNL     1      -9.797  18.353  66.656  1.00  0.00    -0.362 C  
HETATM    3  C   UNL     1      -9.878  17.795  68.082  1.00  0.00    -0.326 C  
HETATM    4  C   UNL     1     -10.622  19.646  66.555  1.00  0.00    -0.591 C  
ENDROOT
BRANCH   2   5
HETATM    5  C   UNL     1     -10.300  17.342  65.614  1.00  0.00    -0.171 C  
HETATM    6  O   UNL     1     -11.187  17.595  64.804  1.00  0.00    -0.834 OA 
BRANCH   5   7
HETATM    7  O   UNL     1      -9.734  16.110  65.750  1.00  0.00    -0.353 OA 
BRANCH   7   8
HETATM    8  C   UNL     1     -10.657  15.013  65.608  1.00  0.00    -0.346 C  
BRANCH   8   9
HETATM    9  O   UNL     1     -10.944  14.343  66.832  1.00  0.00    -0.296 OA 
HETATM   10  P   UNL     1     -11.287  12.758  66.687  1.00  0.00    -0.353 P  
HETATM   11  C   UNL     1      -9.773  12.013  66.035  1.00  0.00    -0.239 C  
HETATM   12  O   UNL     1     -12.532  12.478  65.909  1.00  0.00    -0.596 OA 
HETATM   13  O   UNL     1     -11.237  12.155  68.178  1.00  0.00    -0.229 OA 
BRANCH  13  14
HETATM   14  C   UNL     1     -12.258  12.333  69.117  1.00  0.00    -0.023 C  
BRANCH  14  15
HETATM   15  O   UNL     1     -11.874  13.371  70.051  1.00  0.00    -0.311 OA 
BRANCH  15  16
HETATM   16  C   UNL     1     -12.599  13.429  71.204  1.00  0.00    -0.345 C  
HETATM   17  O   UNL     1     -13.039  12.445  71.787  1.00  0.00    -0.416 OA 
BRANCH  16  18
HETATM   18  C   UNL     1     -12.815  14.879  71.689  1.00  0.00    -0.402 C  
HETATM   19  C   UNL     1     -12.753  14.922  73.230  1.00  0.00    -0.624 C  
HETATM   20  C   UNL     1     -14.193  15.388  71.249  1.00  0.00    -0.428 C  
HETATM   21  C   UNL     1     -11.719  15.806  71.144  1.00  0.00    -0.476 C  
ENDBRANCH  16  18
ENDBRANCH  15  16
ENDBRANCH  14  15
ENDBRANCH  13  14
BRANCH  11  22
HETATM   22  O   UNL     1      -8.768  12.355  66.993  1.00  0.00    -0.196 OA 
BRANCH  22  23
HETATM   23  C   UNL     1      -7.907  11.278  67.300  1.00  0.00    -0.141 C  
BRANCH  23  24
HETATM   24  C   UNL     1      -8.210  10.808  68.716  1.00  0.00    -0.145 C  
BRANCH  24  25
HETATM   25  N   UNL     1      -9.024   9.622  68.683  1.00  0.00    -0.127 NA 
HETATM   26  C   UNL     1      -9.820   9.195  69.703  1.00  0.00    -0.180 A  
HETATM   27  N   UNL     1     -10.142   9.857  70.826  1.00  0.00    -0.129 NA 
HETATM   28  H2  UNL     1     -10.433   5.326  69.947  1.00  0.00     0.000 HD 
HETATM   29  H1  UNL     1     -11.832   5.335  70.809  1.00  0.00     0.000 HD 
HETATM   30  C   UNL     1      -8.965   8.627  67.745  1.00  0.00    -0.136 A  
HETATM   31  N   UNL     1      -9.645   7.565  68.121  1.00  0.00    -0.146 NA 
HETATM   32  C   UNL     1     -10.163   7.900  69.361  1.00  0.00    -0.206 A  
HETATM   33  C   UNL     1     -10.916   7.182  70.301  1.00  0.00    -0.263 A  
HETATM   34  N   UNL     1     -11.285   5.857  70.125  1.00  0.00    -0.332 NA 
HETATM   35  N   UNL     1     -11.299   7.813  71.438  1.00  0.00    -0.247 NA 
HETATM   36  C   UNL     1     -10.899   9.090  71.633  1.00  0.00    -0.366 A  
ENDBRANCH  24  25
ENDBRANCH  23  24
ENDBRANCH  22  23
ENDBRANCH  11  22
ENDBRANCH   8   9
ENDBRANCH   7   8
ENDBRANCH   5   7
ENDBRANCH   2   5
TORSDOF 12
ENDMDL
MODEL       14
REMARK 921   NORMALIZED FREE ENERGY PREDICTED BY IDOCK:   -6.36 KCAL/MOL
REMARK 922        TOTAL FREE ENERGY PREDICTED BY IDOCK:  -12.42 KCAL/MOL
REMARK 923 INTER-LIGAND FREE ENERGY PREDICTED BY IDOCK:  -10.84 KCAL/MOL
REMARK 924 INTRA-LIGAND FREE ENERGY PREDICTED BY IDOCK:   -1.58 KCAL/MOL
REMARK 927      BINDING AFFINITY PREDICTED BY RF-SCORE:    0.00 PKD
ROOT
HETATM    1  C   UNL     1     -12.872  11.596  63.452  1.00  0.00    -0.154 C  
HETATM    2  C   UNL     1     -11.852  12.579  64.059  1.00  0.00    -0.510 C  
HETATM    3  C   UNL     1     -10.440  12.056  63.770  1.00  0.00    -0.469 C  
HETATM    4  C   UNL     1     -12.047  13.950  63.393  1.00  0.00     0.014 C  
ENDROOT
BRANCH   2   5
HETATM    5  C   UNL     1     -12.121  12.700  65.567  1.00  0.00    -0.458 C  
HETATM    6  O   UNL     1     -12.015  11.760  66.349  1.00  0.00    -0.515 OA 
BRANCH   5   7
HETATM    7  O   UNL     1     -12.586  13.930  65.929  1.00  0.00    -0.478 OA 
BRANCH   7   8
HETATM    8  C   UNL     1     -12.099  14.398  67.200  1.00  0.00    -0.333 C  
BRANCH   8   9
HETATM    9  O   UNL     1     -10.717  14.745  67.193  1.00  0.00    -0.287 OA 
HETATM   10  P   UNL     1     -10.406  16.343  67.179  1.00  0.00    -0.267 P  
HETATM   11  C   UNL     1     -11.083  16.962  68.738  1.00  0.00    -0.160 C  
HETATM   12  O   UNL     1     -10.882  17.039  65.946  1.00  0.00    -0.186 OA 
HETATM   13  O   UNL     1      -8.839  16.493  67.514  1.00  0.00    -0.189 OA 
BRANCH  13  14
HETATM   14  C   UNL     1      -7.824  16.244  66.584  1.00  0.00    -0.275 C  
BRANCH  14  15
HETATM   15  O   UNL     1      -7.633  17.416  65.756  1.00  0.00    -0.484 OA 
BRANCH  15  16
HETATM   16  C   UNL     1      -6.671  18.287  66.174  1.00  0.00    -0.253 C  
HETATM   17  O   UNL     1      -5.528  17.955  66.467  1.00  0.00    -0.136 OA 
BRANCH  16  18
HETATM   18  C   UNL     1      -7.186  19.741  66.245  1.00  0.00    -0.276 C  
HETATM   19  C   UNL     1      -8.712  19.760  66.021  1.00  0.00    -0.296 C  
HETATM   20  C   UNL     1      -6.529  20.593  65.151  1.00  0.00    -0.290 C  
HETATM   21  C   UNL     1      -6.901  20.355  67.623  1.00  0.00    -0.331 C  
ENDBRANCH  16  18
ENDBRANCH  15  16
ENDBRANCH  14  15
ENDBRANCH  13  14
BRANCH  11  22
HETATM   22  O   UNL     1     -10.413  16.199  69.744  1.00  0.00    -0.282 OA 
BRANCH  22  23
HETATM   23  C   UNL     1     -11.205  15.985  70.894  1.00  0.00    -0.329 C  
BRANCH  23  24
HETATM   24  C   UNL     1     -12.496  15.299  70.470  1.00  0.00    -0.405 C  
BRANCH  24  25
HETATM   25  N   UNL     1     -12.750  14.157  71.309  1.00  0.00    -0.341 NA 
HETATM   26  C   UNL     1     -12.414  12.874  71.001  1.00  0.00    -0.283 A  
HETATM   27  N   UNL     1     -11.643  12.448  69.987  1.00  0.00    -0.204 NA 
HETATM   28  H2  UNL     1     -14.671  10.052  72.532  1.00  0.00     0.000 HD 
HETATM   29  H1  UNL     1     -13.610   8.798  72.460  1.00  0.00     0.000 HD 
HETATM   30  C   UNL     1     -13.554  14.132  72.417  1.00  0.00    -0.532 A  
HETATM   31  N   UNL     1     -13.789  12.900  72.816  1.00  0.00    -0.393 NA 
HETATM   32  C   UNL     1     -13.100  12.101  71.919  1.00  0.00    -0.369 A  
HETATM   33  C   UNL     1     -13.003  10.711  71.765  1.00  0.00    -0.472 A  
HETATM   34  N   UNL     1     -13.681   9.809  72.572  1.00  0.00    -0.241 NA 
HETATM   35  N   UNL     1     -12.210  10.225  70.779  1.00  0.00    -0.323 NA 
HETATM   36  C   UNL     1     -11.587  11.102  69.962  1.00  0.00    -0.338 A  
ENDBRANCH  24  25
ENDBRANCH  23  24
ENDBRANCH  22  23
ENDBRANCH  11  22
ENDBRANCH   8   9
ENDBRANCH   7   8
ENDBRANCH   5   7
ENDBRANCH   2   5
TORSDOF 12
ENDMDL
MODEL       15
REMARK 921   NORMALIZED FREE ENERGY PREDICTED BY IDOCK:   -6.36 KCAL/MOL
REMARK 922        TOTAL FREE ENERGY PREDICTED BY IDOCK:  -12.41 KCAL/MOL
REMARK 923 INTER-LIGAND FREE ENERGY PREDICTED BY IDOCK:  -10.27 KCAL/MOL
REMARK 924 INTRA-LIGAND FREE ENERGY PREDICTED BY IDOCK:   -2.15 KCAL/MOL
REMARK 927      BINDING AFFINITY PREDICTED BY RF-SCORE:    0.00 PKD
ROOT
HETATM    1  C   UNL     1      -9.541  19.023  67.963  1.00  0.00    -0.383 C  
HETATM    2  C   UNL     1      -9.379  18.995  66.431  1.00  0.00    -0.358 C  
HETATM    3  C   UNL     1     -10.532  19.790  65.805  1.00  0.00    -0.545 C  
HETATM    4  C   UNL     1      -8.038  19.655  66.074  1.00  0.00    -0.322 C  
ENDROOT
BRANCH   2   5
HETATM    5  C   UNL     1      -9.369  17.532  65.961  1.00  0.00    -0.052 C  
HETATM    6  O   UNL     1      -8.347  16.857  65.881  1.00  0.00    -0.498 OA 
BRANCH   5   7
HETATM    7  O   UNL     1     -10.593  17.096  65.548  1.00  0.00    -0.563 OA 
BRANCH   7   8
HETATM    8  C   UNL     1     -10.579  15.805  64.911  1.00  0.00    -0.284 C  
BRANCH   8   9
HETATM    9  O   UNL     1     -10.694  14.714  65.821  1.00  0.00    -0.291 OA 
HETATM   10  P   UNL     1     -11.861  13.637  65.465  1.00  0.00    -0.412 P  
HETATM   11  C   UNL     1     -11.372  12.929  63.875  1.00  0.00    -0.436 C  
HETATM   12  O   UNL     1     -13.243  14.204  65.523  1.00  0.00    -0.688 OA 
HETATM   13  O   UNL     1     -11.585  12.357  66.401  1.00  0.00    -0.352 OA 
BRANCH  13  14
HETATM   14  C   UNL     1     -11.900  12.314  67.763  1.00  0.00    -0.273 C  
BRANCH  14  15
HETATM   15  O   UNL     1     -10.945  13.112  68.502  1.00  0.00    -0.243 OA 
BRANCH  15  16
HETATM   16  C   UNL     1     -11.418  13.705  69.635  1.00  0.00    -0.221 C  
HETATM   17  O   UNL     1     -12.094  13.128  70.479  1.00  0.00    -0.357 OA 
BRANCH  16  18
HETATM   18  C   UNL     1     -11.013  15.192  69.732  1.00  0.00    -0.293 C  
HETATM   19  C   UNL     1     -11.753  16.000  68.646  1.00  0.00    -0.273 C  
HETATM   20  C   UNL     1      -9.505  15.350  69.504  1.00  0.00    -0.250 C  
HETATM   21  C   UNL     1     -11.397  15.774  71.100  1.00  0.00    -0.442 C  
ENDBRANCH  16  18
ENDBRANCH  15  16
ENDBRANCH  14  15
ENDBRANCH  13  14
BRANCH  11  22
HETATM   22  O   UNL     1     -10.068  12.391  64.112  1.00  0.00    -0.330 OA 
BRANCH  22  23
HETATM   23  C   UNL     1     -10.003  10.994  63.912  1.00  0.00    -0.341 C  
BRANCH  23  24
HETATM   24  C   UNL     1      -8.633  10.507  64.364  1.00  0.00    -0.155 C  
BRANCH  24  25
HETATM   25  N   UNL     1      -8.563  10.482  65.801  1.00  0.00    -0.167 NA 
HETATM   26  C   UNL     1      -9.205   9.581  66.596  1.00  0.00    -0.152 A  
HETATM   27  N   UNL     1      -9.855   8.468  66.218  1.00  0.00    -0.246 NA 
HETATM   28  H2  UNL     1     -10.174  10.799  70.199  1.00  0.00     0.000 HD 
HETATM   29  H1  UNL     1     -10.301   9.340  70.945  1.00  0.00     0.000 HD 
HETATM   30  C   UNL     1      -8.047  11.464  66.602  1.00  0.00    -0.155 A  
HETATM   31  N   UNL     1      -8.355  11.269  67.867  1.00  0.00    -0.127 NA 
HETATM   32  C   UNL     1      -9.105  10.105  67.871  1.00  0.00    -0.131 A  
HETATM   33  C   UNL     1      -9.775   9.411  68.889  1.00  0.00    -0.164 A  
HETATM   34  N   UNL     1      -9.814   9.845  70.205  1.00  0.00    -0.248 NA 
HETATM   35  N   UNL     1     -10.417   8.261  68.570  1.00  0.00    -0.193 NA 
HETATM   36  C   UNL     1     -10.421   7.861  67.278  1.00  0.00    -0.320 A  
ENDBRANCH  24  25
ENDBRANCH  23  24
ENDBRANCH  22  23
ENDBRANCH  11  22
ENDBRANCH   8   9
ENDBRANCH   7   8
ENDBRANCH   5   7
ENDBRANCH   2   5
TORSDOF 12
ENDMDL
MODEL       16
REMARK 921   NORMALIZED FREE ENERGY PREDICTED BY IDOCK:   -6.34 KCAL/MOL
REMARK 922        TOTAL FREE ENERGY PREDICTED BY IDOCK:  -12.39 KCAL/MOL
REMARK 923 INTER-LIGAND FREE ENERGY PREDICTED BY IDOCK:  -10.64 KCAL/MOL
REMARK 924 INTRA-LIGAND FREE ENERGY PREDICTED BY IDOCK:   -1.75 KCAL/MOL
REMARK 927      BINDING AFFINITY PREDICTED BY RF-SCORE:    0.00 PKD
ROOT
HETATM    1  C   UNL     1     -13.999  14.983  71.244  1.00  0.00    -0.525 C  
HETATM    2  C   UNL     1     -12.548  14.507  71.037  1.00  0.00    -0.410 C  
HETATM    3  C   UNL     1     -11.668  15.141  72.121  1.00  0.00    -0.502 C  
HETATM    4  C   UNL     1     -12.518  12.976  71.170  1.00  0.00    -0.364 C  
ENDROOT
BRANCH   2   5
HETATM    5  C   UNL     1     -12.094  14.906  69.624  1.00  0.00    -0.295 C  
HETATM    6  O   UNL     1     -12.026  16.071  69.242  1.00  0.00    -0.324 OA 
BRANCH   5   7
HETATM    7  O   UNL     1     -11.872  13.834  68.812  1.00  0.00    -0.325 OA 
BRANCH   7   8
HETATM    8  C   UNL     1     -12.245  14.043  67.437  1.00  0.00    -0.254 C  
BRANCH   8   9
HETATM    9  O   UNL     1     -11.370  13.418  66.503  1.00  0.00    -0.304 OA 
HETATM   10  P   UNL     1     -11.873  13.450  64.956  1.00  0.00    -0.404 P  
HETATM   11  C   UNL     1     -11.922  15.205  64.519  1.00  0.00    -0.319 C  
HETATM   12  O   UNL     1     -13.137  12.690  64.716  1.00  0.00    -0.852 OA 
HETATM   13  O   UNL     1     -10.606  13.010  64.067  1.00  0.00    -0.412 OA 
BRANCH  13  14
HETATM   14  C   UNL     1     -10.173  11.686  63.943  1.00  0.00    -0.365 C  
BRANCH  14  15
HETATM   15  O   UNL     1     -10.367  10.998  65.202  1.00  0.00    -0.269 OA 
BRANCH  15  16
HETATM   16  C   UNL     1      -9.230  10.639  65.863  1.00  0.00    -0.182 C  
HETATM   17  O   UNL     1      -8.130  10.542  65.330  1.00  0.00    -0.155 OA 
BRANCH  16  18
HETATM   18  C   UNL     1      -9.485  10.357  67.359  1.00  0.00    -0.170 C  
HETATM   19  C   UNL     1      -8.890  11.499  68.208  1.00  0.00    -0.166 C  
HETATM   20  C   UNL     1      -8.810   9.044  67.776  1.00  0.00    -0.125 C  
HETATM   21  C   UNL     1     -10.991  10.283  67.652  1.00  0.00    -0.356 C  
ENDBRANCH  16  18
ENDBRANCH  15  16
ENDBRANCH  14  15
ENDBRANCH  13  14
BRANCH  11  22
HETATM   22  O   UNL     1     -10.590  15.667  64.759  1.00  0.00    -0.448 OA 
BRANCH  22  23
HETATM   23  C   UNL     1     -10.535  16.748  65.667  1.00  0.00    -0.269 C  
BRANCH  23  24
HETATM   24  C   UNL     1      -9.521  16.414  66.752  1.00  0.00    -0.247 C  
BRANCH  24  25
HETATM   25  N   UNL     1      -9.064  17.619  67.394  1.00  0.00    -0.237 NA 
HETATM   26  C   UNL     1      -7.788  17.842  67.814  1.00  0.00    -0.216 A  
HETATM   27  N   UNL     1      -6.699  17.097  67.563  1.00  0.00    -0.133 NA 
HETATM   28  H2  UNL     1      -7.345  20.263  70.871  1.00  0.00     0.000 HD 
HETATM   29  H1  UNL     1      -5.785  20.716  70.624  1.00  0.00     0.000 HD 
HETATM   30  C   UNL     1      -9.855  18.622  67.886  1.00  0.00    -0.329 A  
HETATM   31  N   UNL     1      -9.167  19.457  68.635  1.00  0.00    -0.372 NA 
HETATM   32  C   UNL     1      -7.874  18.962  68.619  1.00  0.00    -0.340 A  
HETATM   33  C   UNL     1      -6.697  19.360  69.269  1.00  0.00    -0.335 A  
HETATM   34  N   UNL     1      -6.641  20.427  70.152  1.00  0.00    -0.282 NA 
HETATM   35  N   UNL     1      -5.559  18.665  69.023  1.00  0.00    -0.202 NA 
HETATM   36  C   UNL     1      -5.622  17.595  68.200  1.00  0.00    -0.151 A  
ENDBRANCH  24  25
ENDBRANCH  23  24
ENDBRANCH  22  23
ENDBRANCH  11  22
ENDBRANCH   8   9
ENDBRANCH   7   8
ENDBRANCH   5   7
ENDBRANCH   2   5
TORSDOF 12
ENDMDL
MODEL       17
REMARK 921   NORMALIZED FREE ENERGY PREDICTED BY IDOCK:   -6.32 KCAL/MOL
REMARK 922        TOTAL FREE ENERGY PREDICTED BY IDOCK:  -12.35 KCAL/MOL
REMARK 923 INTER-LIGAND FREE ENERGY PREDICTED BY IDOCK:  -11.02 KCAL/MOL
REMARK 924 INTRA-LIGAND FREE ENERGY PREDICTED BY IDOCK:   -1.34 KCAL/MOL
REMARK 927      BINDING AFFINITY PREDICTED BY RF-SCORE:    0.00 PKD
ROOT
HETATM    1  C   UNL     1     -12.169  12.195  63.409  1.00  0.00    -0.635 C  
HETATM    2  C   UNL     1     -11.106  12.154  64.524  1.00  0.00    -0.375 C  
HETATM    3  C   UNL     1     -10.412  10.787  64.484  1.00  0.00    -0.351 C  
HETATM    4  C   UNL     1     -10.081  13.267  64.256  1.00  0.00    -0.089 C  
ENDROOT
BRANCH   2   5
HETATM    5  C   UNL     1     -11.796  12.408  65.874  1.00  0.00    -0.405 C  
HETATM    6  O   UNL     1     -11.942  11.540  66.729  1.00  0.00    -0.470 OA 
BRANCH   5   7
HETATM    7  O   UNL     1     -12.314  13.664  65.979  1.00  0.00    -0.432 OA 
BRANCH   7   8
HETATM    8  C   UNL     1     -12.349  14.181  67.323  1.00  0.00    -0.147 C  
BRANCH   8   9
HETATM    9  O   UNL     1     -11.072  14.565  67.824  1.00  0.00    -0.267 OA 
HETATM   10  P   UNL     1     -11.047  15.967  68.651  1.00  0.00    -0.373 P  
HETATM   11  C   UNL     1     -12.098  15.674  70.094  1.00  0.00    -0.377 C  
HETATM   12  O   UNL     1     -11.402  17.161  67.825  1.00  0.00    -0.051 OA 
HETATM   13  O   UNL     1      -9.619  16.020  69.392  1.00  0.00    -0.247 OA 
BRANCH  13  14
HETATM   14  C   UNL     1      -8.423  16.335  68.740  1.00  0.00    -0.240 C  
BRANCH  14  15
HETATM   15  O   UNL     1      -8.309  17.772  68.613  1.00  0.00    -0.298 OA 
BRANCH  15  16
HETATM   16  C   UNL     1      -8.350  18.261  67.341  1.00  0.00    -0.244 C  
HETATM   17  O   UNL     1      -7.927  17.657  66.362  1.00  0.00    -0.247 OA 
BRANCH  16  18
HETATM   18  C   UNL     1      -8.980  19.669  67.273  1.00  0.00    -0.387 C  
HETATM   19  C   UNL     1      -9.873  19.774  66.020  1.00  0.00    -0.497 C  
HETATM   20  C   UNL     1      -7.884  20.738  67.174  1.00  0.00    -0.288 C  
HETATM   21  C   UNL     1      -9.857  19.935  68.505  1.00  0.00    -0.463 C  
ENDBRANCH  16  18
ENDBRANCH  15  16
ENDBRANCH  14  15
ENDBRANCH  13  14
BRANCH  11  22
HETATM   22  O   UNL     1     -11.503  14.548  70.744  1.00  0.00    -0.242 OA 
BRANCH  22  23
HETATM   23  C   UNL     1     -12.423  13.507  71.000  1.00  0.00    -0.369 C  
BRANCH  23  24
HETATM   24  C   UNL     1     -12.025  12.297  70.168  1.00  0.00    -0.298 C  
BRANCH  24  25
HETATM   25  N   UNL     1     -12.201  11.089  70.930  1.00  0.00    -0.362 NA 
HETATM   26  C   UNL     1     -11.654   9.882  70.615  1.00  0.00    -0.335 A  
HETATM   27  N   UNL     1     -10.729   9.619  69.677  1.00  0.00    -0.229 NA 
HETATM   28  H2  UNL     1     -13.635   6.700  71.780  1.00  0.00     0.000 HD 
HETATM   29  H1  UNL     1     -12.405   5.610  71.780  1.00  0.00     0.000 HD 
HETATM   30  C   UNL     1     -13.105  10.895  71.940  1.00  0.00    -0.432 A  
HETATM   31  N   UNL     1     -13.202   9.624  72.265  1.00  0.00    -0.434 NA 
HETATM   32  C   UNL     1     -12.316   8.975  71.422  1.00  0.00    -0.318 A  
HETATM   33  C   UNL     1     -12.007   7.621  71.228  1.00  0.00    -0.306 A  
HETATM   34  N   UNL     1     -12.630   6.595  71.921  1.00  0.00    -0.324 NA 
HETATM   35  N   UNL     1     -11.054   7.301  70.319  1.00  0.00    -0.264 NA 
HETATM   36  C   UNL     1     -10.479   8.298  69.609  1.00  0.00    -0.221 A  
ENDBRANCH  24  25
ENDBRANCH  23  24
ENDBRANCH  22  23
ENDBRANCH  11  22
ENDBRANCH   8   9
ENDBRANCH   7   8
ENDBRANCH   5   7
ENDBRANCH   2   5
TORSDOF 12
ENDMDL
MODEL       18
REMARK 921   NORMALIZED FREE ENERGY PREDICTED BY IDOCK:   -6.30 KCAL/MOL
REMARK 922        TOTAL FREE ENERGY PREDICTED BY IDOCK:  -12.32 KCAL/MOL
REMARK 923 INTER-LIGAND FREE ENERGY PREDICTED BY IDOCK:  -11.01 KCAL/MOL
REMARK 924 INTRA-LIGAND FREE ENERGY PREDICTED BY IDOCK:   -1.30 KCAL/MOL
REMARK 927      BINDING AFFINITY PREDICTED BY RF-SCORE:    0.00 PKD
ROOT
HETATM    1  C   UNL     1     -12.442  15.074  73.648  1.00  0.00    -0.660 C  
HETATM    2  C   UNL     1     -13.172  14.731  72.334  1.00  0.00    -0.479 C  
HETATM    3  C   UNL     1     -13.644  13.274  72.405  1.00  0.00    -0.694 C  
HETATM    4  C   UNL     1     -14.384  15.666  72.197  1.00  0.00    -0.497 C  
ENDROOT
BRANCH   2   5
HETATM    5  C   UNL     1     -12.210  14.966  71.159  1.00  0.00    -0.320 C  
HETATM    6  O   UNL     1     -11.139  15.556  71.272  1.00  0.00    -0.355 OA 
BRANCH   5   7
HETATM    7  O   UNL     1     -12.713  14.542  69.965  1.00  0.00    -0.288 OA 
BRANCH   7   8
HETATM    8  C   UNL     1     -11.723  14.033  69.051  1.00  0.00    -0.330 C  
BRANCH   8   9
HETATM    9  O   UNL     1     -11.065  12.858  69.514  1.00  0.00    -0.126 OA 
HETATM   10  P   UNL     1     -10.793  11.726  68.376  1.00  0.00    -0.256 P  
HETATM   11  C   UNL     1      -9.670  12.513  67.196  1.00  0.00    -0.205 C  
HETATM   12  O   UNL     1     -12.039  11.144  67.793  1.00  0.00    -0.606 OA 
HETATM   13  O   UNL     1      -9.764  10.675  69.032  1.00  0.00    -0.194 OA 
BRANCH  13  14
HETATM   14  C   UNL     1     -10.143   9.706  69.967  1.00  0.00    -0.252 C  
BRANCH  14  15
HETATM   15  O   UNL     1      -9.732   8.400  69.498  1.00  0.00    -0.173 OA 
BRANCH  15  16
HETATM   16  C   UNL     1      -9.601   7.439  70.456  1.00  0.00    -0.172 C  
HETATM   17  O   UNL     1      -8.730   7.448  71.319  1.00  0.00    -0.125 OA 
BRANCH  16  18
HETATM   18  C   UNL     1     -10.667   6.331  70.326  1.00  0.00    -0.339 C  
HETATM   19  C   UNL     1     -11.964   6.776  71.034  1.00  0.00    -0.431 C  
HETATM   20  C   UNL     1     -10.176   5.039  70.991  1.00  0.00    -0.283 C  
HETATM   21  C   UNL     1     -11.000   6.063  68.851  1.00  0.00    -0.395 C  
ENDBRANCH  16  18
ENDBRANCH  15  16
ENDBRANCH  14  15
ENDBRANCH  13  14
BRANCH  11  22
HETATM   22  O   UNL     1      -8.541  12.899  67.984  1.00  0.00    -0.169 OA 
BRANCH  22  23
HETATM   23  C   UNL     1      -7.765  13.912  67.379  1.00  0.00    -0.148 C  
BRANCH  23  24
HETATM   24  C   UNL     1      -8.014  15.218  68.121  1.00  0.00    -0.128 C  
BRANCH  24  25
HETATM   25  N   UNL     1      -8.597  16.190  67.234  1.00  0.00    -0.171 NA 
HETATM   26  C   UNL     1      -8.701  17.522  67.500  1.00  0.00    -0.225 A  
HETATM   27  N   UNL     1      -8.141  18.204  68.512  1.00  0.00    -0.301 NA 
HETATM   28  H2  UNL     1     -11.699  19.418  65.819  1.00  0.00     0.000 HD 
HETATM   29  H1  UNL     1     -11.101  20.948  65.864  1.00  0.00     0.000 HD 
HETATM   30  C   UNL     1      -9.333  15.922  66.112  1.00  0.00    -0.350 A  
HETATM   31  N   UNL     1      -9.939  17.000  65.661  1.00  0.00    -0.578 NA 
HETATM   32  C   UNL     1      -9.572  18.004  66.540  1.00  0.00    -0.315 A  
HETATM   33  C   UNL     1      -9.932  19.356  66.642  1.00  0.00    -0.390 A  
HETATM   34  N   UNL     1     -10.839  19.965  65.789  1.00  0.00    -0.354 NA 
HETATM   35  N   UNL     1      -9.369  20.101  67.624  1.00  0.00    -0.364 NA 
HETATM   36  C   UNL     1      -8.521  19.496  68.486  1.00  0.00    -0.338 A  
ENDBRANCH  24  25
ENDBRANCH  23  24
ENDBRANCH  22  23
ENDBRANCH  11  22
ENDBRANCH   8   9
ENDBRANCH   7   8
ENDBRANCH   5   7
ENDBRANCH   2   5
TORSDOF 12
ENDMDL
MODEL       19
REMARK 921   NORMALIZED FREE ENERGY PREDICTED BY IDOCK:   -6.23 KCAL/MOL
REMARK 922        TOTAL FREE ENERGY PREDICTED BY IDOCK:  -12.20 KCAL/MOL
REMARK 923 INTER-LIGAND FREE ENERGY PREDICTED BY IDOCK:  -11.03 KCAL/MOL
REMARK 924 INTRA-LIGAND FREE ENERGY PREDICTED BY IDOCK:   -1.17 KCAL/MOL
REMARK 927      BINDING AFFINITY PREDICTED BY RF-SCORE:    0.00 PKD
ROOT
HETATM    1  C   UNL     1     -12.487  15.037  73.490  1.00  0.00    -0.637 C  
HETATM    2  C   UNL     1     -13.130  14.557  72.174  1.00  0.00    -0.438 C  
HETATM    3  C   UNL     1     -13.638  13.124  72.375  1.00  0.00    -0.667 C  
HETATM    4  C   UNL     1     -14.308  15.486  71.844  1.00  0.00    -0.580 C  
ENDROOT
BRANCH   2   5
HETATM    5  C   UNL     1     -12.083  14.642  71.052  1.00  0.00    -0.329 C  
HETATM    6  O   UNL     1     -11.075  15.339  71.123  1.00  0.00    -0.340 OA 
BRANCH   5   7
HETATM    7  O   UNL     1     -12.438  13.944  69.937  1.00  0.00    -0.320 OA 
BRANCH   7   8
HETATM    8  C   UNL     1     -11.328  13.397  69.200  1.00  0.00    -0.280 C  
BRANCH   8   9
HETATM    9  O   UNL     1     -11.278  13.820  67.840  1.00  0.00    -0.255 OA 
HETATM   10  P   UNL     1      -9.793  13.826  67.174  1.00  0.00    -0.254 P  
HETATM   11  C   UNL     1      -9.266  12.096  67.194  1.00  0.00    -0.193 C  
HETATM   12  O   UNL     1      -8.850  14.796  67.809  1.00  0.00    -0.166 OA 
HETATM   13  O   UNL     1     -10.018  13.998  65.589  1.00  0.00    -0.311 OA 
BRANCH  13  14
HETATM   14  C   UNL     1     -10.343  15.216  64.983  1.00  0.00    -0.344 C  
BRANCH  14  15
HETATM   15  O   UNL     1      -9.614  16.284  65.634  1.00  0.00    -0.466 OA 
BRANCH  15  16
HETATM   16  C   UNL     1     -10.230  17.500  65.646  1.00  0.00    -0.079 C  
HETATM   17  O   UNL     1     -11.144  17.812  64.891  1.00  0.00    -0.821 OA 
BRANCH  16  18
HETATM   18  C   UNL     1      -9.639  18.447  66.712  1.00  0.00    -0.308 C  
HETATM   19  C   UNL     1     -10.213  19.866  66.518  1.00  0.00    -0.611 C  
HETATM   20  C   UNL     1      -8.113  18.522  66.571  1.00  0.00    -0.299 C  
HETATM   21  C   UNL     1     -10.008  17.976  68.126  1.00  0.00    -0.356 C  
ENDBRANCH  16  18
ENDBRANCH  15  16
ENDBRANCH  14  15
ENDBRANCH  13  14
BRANCH  11  22
HETATM   22  O   UNL     1     -10.283  11.407  66.461  1.00  0.00    -0.209 OA 
BRANCH  22  23
HETATM   23  C   UNL     1     -10.754  10.252  67.123  1.00  0.00    -0.241 C  
BRANCH  23  24
HETATM   24  C   UNL     1      -9.623   9.687  67.971  1.00  0.00    -0.143 C  
BRANCH  24  25
HETATM   25  N   UNL     1     -10.146   9.132  69.192  1.00  0.00    -0.188 NA 
HETATM   26  C   UNL     1     -10.207   7.802  69.479  1.00  0.00    -0.207 A  
HETATM   27  N   UNL     1      -9.648   6.788  68.798  1.00  0.00    -0.133 NA 
HETATM   28  H2  UNL     1     -13.087   6.657  71.886  1.00  0.00     0.000 HD 
HETATM   29  H1  UNL     1     -12.434   5.249  72.427  1.00  0.00     0.000 HD 
HETATM   30  C   UNL     1     -10.861   9.806  70.144  1.00  0.00    -0.291 A  
HETATM   31  N   UNL     1     -11.415   8.981  71.007  1.00  0.00    -0.280 NA 
HETATM   32  C   UNL     1     -11.033   7.719  70.584  1.00  0.00    -0.249 A  
HETATM   33  C   UNL     1     -11.346   6.430  71.038  1.00  0.00    -0.328 A  
HETATM   34  N   UNL     1     -12.207   6.187  72.096  1.00  0.00    -0.259 NA 
HETATM   35  N   UNL     1     -10.780   5.370  70.409  1.00  0.00    -0.251 NA 
HETATM   36  C   UNL     1      -9.978   5.604  69.347  1.00  0.00    -0.197 A  
ENDBRANCH  24  25
ENDBRANCH  23  24
ENDBRANCH  22  23
ENDBRANCH  11  22
ENDBRANCH   8   9
ENDBRANCH   7   8
ENDBRANCH   5   7
ENDBRANCH   2   5
TORSDOF 12
ENDMDL
MODEL       20
REMARK 921   NORMALIZED FREE ENERGY PREDICTED BY IDOCK:   -6.23 KCAL/MOL
REMARK 922        TOTAL FREE ENERGY PREDICTED BY IDOCK:  -12.19 KCAL/MOL
REMARK 923 INTER-LIGAND FREE ENERGY PREDICTED BY IDOCK:  -10.92 KCAL/MOL
REMARK 924 INTRA-LIGAND FREE ENERGY PREDICTED BY IDOCK:   -1.27 KCAL/MOL
REMARK 927      BINDING AFFINITY PREDICTED BY RF-SCORE:    0.00 PKD
ROOT
HETATM    1  C   UNL     1      -7.967   8.232  64.991  1.00  0.00    -0.141 C  
HETATM    2  C   UNL     1      -8.069   9.292  63.877  1.00  0.00    -0.151 C  
HETATM    3  C   UNL     1      -6.727  10.027  63.781  1.00  0.00    -0.128 C  
HETATM    4  C   UNL     1      -8.365   8.573  62.552  1.00  0.00    -0.182 C  
ENDROOT
BRANCH   2   5
HETATM    5  C   UNL     1      -9.225  10.248  64.209  1.00  0.00    -0.257 C  
HETATM    6  O   UNL     1     -10.014  10.057  65.130  1.00  0.00    -0.323 OA 
BRANCH   5   7
HETATM    7  O   UNL     1      -9.343  11.272  63.317  1.00  0.00    -0.275 OA 
BRANCH   7   8
HETATM    8  C   UNL     1     -10.541  12.057  63.470  1.00  0.00    -0.465 C  
BRANCH   8   9
HETATM    9  O   UNL     1     -10.319  13.333  64.063  1.00  0.00    -0.354 OA 
HETATM   10  P   UNL     1     -11.627  14.006  64.761  1.00  0.00    -0.416 P  
HETATM   11  C   UNL     1     -12.066  12.883  66.108  1.00  0.00    -0.393 C  
HETATM   12  O   UNL     1     -12.727  14.325  63.800  1.00  0.00    -0.779 OA 
HETATM   13  O   UNL     1     -11.077  15.240  65.637  1.00  0.00    -0.334 OA 
BRANCH  13  14
HETATM   14  C   UNL     1     -10.687  16.464  65.086  1.00  0.00    -0.291 C  
BRANCH  14  15
HETATM   15  O   UNL     1      -9.454  16.899  65.708  1.00  0.00    -0.514 OA 
BRANCH  15  16
HETATM   16  C   UNL     1      -9.497  18.114  66.325  1.00  0.00    -0.222 C  
HETATM   17  O   UNL     1      -9.815  19.156  65.764  1.00  0.00    -0.443 OA 
BRANCH  16  18
HETATM   18  C   UNL     1      -9.090  18.032  67.812  1.00  0.00    -0.262 C  
HETATM   19  C   UNL     1      -7.765  17.252  67.942  1.00  0.00    -0.196 C  
HETATM   20  C   UNL     1     -10.164  17.293  68.619  1.00  0.00    -0.351 C  
HETATM   21  C   UNL     1      -8.873  19.435  68.397  1.00  0.00    -0.397 C  
ENDBRANCH  16  18
ENDBRANCH  15  16
ENDBRANCH  14  15
ENDBRANCH  13  14
BRANCH  11  22
HETATM   22  O   UNL     1     -10.887  12.816  66.913  1.00  0.00    -0.247 OA 
BRANCH  22  23
HETATM   23  C   UNL     1     -11.162  12.824  68.299  1.00  0.00    -0.271 C  
BRANCH  23  24
HETATM   24  C   UNL     1     -10.622  11.537  68.905  1.00  0.00    -0.204 C  
BRANCH  24  25
HETATM   25  N   UNL     1     -11.380  11.182  70.076  1.00  0.00    -0.270 NA 
HETATM   26  C   UNL     1     -11.543   9.913  70.543  1.00  0.00    -0.309 A  
HETATM   27  N   UNL     1     -10.907   8.801  70.139  1.00  0.00    -0.228 NA 
HETATM   28  H2  UNL     1     -14.857   9.181  72.514  1.00  0.00     0.000 HD 
HETATM   29  H1  UNL     1     -14.367   7.867  73.373  1.00  0.00     0.000 HD 
HETATM   30  C   UNL     1     -12.232  12.002  70.766  1.00  0.00    -0.286 A  
HETATM   31  N   UNL     1     -12.965  11.325  71.624  1.00  0.00    -0.458 NA 
HETATM   32  C   UNL     1     -12.560  10.010  71.474  1.00  0.00    -0.425 A  
HETATM   33  C   UNL     1     -12.999   8.809  72.050  1.00  0.00    -0.390 A  
HETATM   34  N   UNL     1     -14.049   8.741  72.954  1.00  0.00    -0.365 NA 
HETATM   35  N   UNL     1     -12.369   7.660  71.705  1.00  0.00    -0.308 NA 
HETATM   36  C   UNL     1     -11.377   7.719  70.788  1.00  0.00    -0.279 A  
ENDBRANCH  24  25
ENDBRANCH  23  24
ENDBRANCH  22  23
ENDBRANCH  11  22
ENDBRANCH   8   9
ENDBRANCH   7   8
ENDBRANCH   5   7
ENDBRANCH   2   5
TORSDOF 12
ENDMDL
MODEL       21
REMARK 921   NORMALIZED FREE ENERGY PREDICTED BY IDOCK:   -6.22 KCAL/MOL
REMARK 922        TOTAL FREE ENERGY PREDICTED BY IDOCK:  -12.19 KCAL/MOL
REMARK 923 INTER-LIGAND FREE ENERGY PREDICTED BY IDOCK:  -10.96 KCAL/MOL
REMARK 924 INTRA-LIGAND FREE ENERGY PREDICTED BY IDOCK:   -1.23 KCAL/MOL
REMARK 927      BINDING AFFINITY PREDICTED BY RF-SCORE:    0.00 PKD
ROOT
HETATM    1  C   UNL     1     -10.094   3.044  71.925  1.00  0.00    -0.152 C  
HETATM    2  C   UNL     1      -9.993   4.573  71.763  1.00  0.00    -0.264 C  
HETATM    3  C   UNL     1     -10.977   5.232  72.738  1.00  0.00    -0.331 C  
HETATM    4  C   UNL     1      -8.557   5.002  72.104  1.00  0.00    -0.125 C  
ENDROOT
BRANCH   2   5
HETATM    5  C   UNL     1     -10.302   4.937  70.302  1.00  0.00    -0.181 C  
HETATM    6  O   UNL     1      -9.816   4.346  69.343  1.00  0.00    -0.203 OA 
BRANCH   5   7
HETATM    7  O   UNL     1     -11.090   6.043  70.183  1.00  0.00    -0.338 OA 
BRANCH   7   8
HETATM    8  C   UNL     1     -10.499   7.114  69.423  1.00  0.00    -0.222 C  
BRANCH   8   9
HETATM    9  O   UNL     1     -11.170   8.362  69.570  1.00  0.00    -0.034 OA 
HETATM   10  P   UNL     1     -10.288   9.542  70.263  1.00  0.00    -0.308 P  
HETATM   11  C   UNL     1      -8.916   9.829  69.120  1.00  0.00    -0.161 C  
HETATM   12  O   UNL     1      -9.901   9.256  71.678  1.00  0.00    -0.278 OA 
HETATM   13  O   UNL     1     -11.104  10.908  70.017  1.00  0.00    -0.268 OA 
BRANCH  13  14
HETATM   14  C   UNL     1     -12.241  11.270  70.747  1.00  0.00    -0.380 C  
BRANCH  14  15
HETATM   15  O   UNL     1     -12.319  12.713  70.830  1.00  0.00    -0.371 OA 
BRANCH  15  16
HETATM   16  C   UNL     1     -13.096  13.208  71.834  1.00  0.00    -0.385 C  
HETATM   17  O   UNL     1     -13.808  12.517  72.553  1.00  0.00    -0.346 OA 
BRANCH  16  18
HETATM   18  C   UNL     1     -12.986  14.743  71.959  1.00  0.00    -0.407 C  
HETATM   19  C   UNL     1     -12.420  15.109  73.346  1.00  0.00    -0.632 C  
HETATM   20  C   UNL     1     -14.370  15.389  71.818  1.00  0.00    -0.639 C  
HETATM   21  C   UNL     1     -12.036  15.311  70.894  1.00  0.00    -0.391 C  
ENDBRANCH  16  18
ENDBRANCH  15  16
ENDBRANCH  14  15
ENDBRANCH  13  14
BRANCH  11  22
HETATM   22  O   UNL     1      -9.549  10.159  67.881  1.00  0.00    -0.147 OA 
BRANCH  22  23
HETATM   23  C   UNL     1      -8.714  10.896  67.012  1.00  0.00    -0.141 C  
BRANCH  23  24
HETATM   24  C   UNL     1      -8.824  12.371  67.375  1.00  0.00    -0.188 C  
BRANCH  24  25
HETATM   25  N   UNL     1      -9.414  13.107  66.288  1.00  0.00    -0.227 NA 
HETATM   26  C   UNL     1      -9.553  14.462  66.250  1.00  0.00    -0.298 A  
HETATM   27  N   UNL     1      -9.027  15.365  67.093  1.00  0.00    -0.206 NA 
HETATM   28  H2  UNL     1     -12.564  15.857  64.155  1.00  0.00     0.000 HD 
HETATM   29  H1  UNL     1     -12.003  17.376  63.867  1.00  0.00     0.000 HD 
HETATM   30  C   UNL     1     -10.123  12.578  65.244  1.00  0.00    -0.257 A  
HETATM   31  N   UNL     1     -10.746  13.512  64.558  1.00  0.00    -0.411 NA 
HETATM   32  C   UNL     1     -10.418  14.696  65.197  1.00  0.00    -0.416 A  
HETATM   33  C   UNL     1     -10.811  16.026  64.993  1.00  0.00    -0.404 A  
HETATM   34  N   UNL     1     -11.717  16.408  64.015  1.00  0.00    -1.045 NA 
HETATM   35  N   UNL     1     -10.283  16.985  65.792  1.00  0.00    -0.564 NA 
HETATM   36  C   UNL     1      -9.436  16.609  66.777  1.00  0.00    -0.244 A  
ENDBRANCH  24  25
ENDBRANCH  23  24
ENDBRANCH  22  23
ENDBRANCH  11  22
ENDBRANCH   8   9
ENDBRANCH   7   8
ENDBRANCH   5   7
ENDBRANCH   2   5
TORSDOF 12
ENDMDL
MODEL       22
REMARK 921   NORMALIZED FREE ENERGY PREDICTED BY IDOCK:   -6.22 KCAL/MOL
REMARK 922        TOTAL FREE ENERGY PREDICTED BY IDOCK:  -12.18 KCAL/MOL
REMARK 923 INTER-LIGAND FREE ENERGY PREDICTED BY IDOCK:  -11.13 KCAL/MOL
REMARK 924 INTRA-LIGAND FREE ENERGY PREDICTED BY IDOCK:   -1.04 KCAL/MOL
REMARK 927      BINDING AFFINITY PREDICTED BY RF-SCORE:    0.00 PKD
ROOT
HETATM    1  C   UNL     1      -8.440   5.600  66.070  1.00  0.00    -0.132 C  
HETATM    2  C   UNL     1      -9.494   5.085  67.070  1.00  0.00    -0.150 C  
HETATM    3  C   UNL     1     -10.866   5.104  66.386  1.00  0.00    -0.174 C  
HETATM    4  C   UNL     1      -9.126   3.645  67.460  1.00  0.00    -0.185 C  
ENDROOT
BRANCH   2   5
HETATM    5  C   UNL     1      -9.465   5.976  68.322  1.00  0.00    -0.115 C  
HETATM    6  O   UNL     1      -8.429   6.291  68.901  1.00  0.00    -0.118 OA 
BRANCH   5   7
HETATM    7  O   UNL     1     -10.708   6.296  68.778  1.00  0.00    -0.233 OA 
BRANCH   7   8
HETATM    8  C   UNL     1     -10.730   6.845  70.109  1.00  0.00    -0.237 C  
BRANCH   8   9
HETATM    9  O   UNL     1     -11.457   8.065  70.215  1.00  0.00    -0.205 OA 
HETATM   10  P   UNL     1     -10.543   9.410  70.289  1.00  0.00    -0.294 P  
HETATM   11  C   UNL     1      -9.672   9.468  68.705  1.00  0.00    -0.155 C  
HETATM   12  O   UNL     1      -9.678   9.486  71.505  1.00  0.00    -0.195 OA 
HETATM   13  O   UNL     1     -11.551  10.645  70.062  1.00  0.00    -0.271 OA 
BRANCH  13  14
HETATM   14  C   UNL     1     -12.416  11.127  71.050  1.00  0.00    -0.403 C  
BRANCH  14  15
HETATM   15  O   UNL     1     -12.653  12.538  70.833  1.00  0.00    -0.334 OA 
BRANCH  15  16
HETATM   16  C   UNL     1     -13.274  13.199  71.851  1.00  0.00    -0.431 C  
HETATM   17  O   UNL     1     -13.977  12.652  72.693  1.00  0.00    -0.398 OA 
BRANCH  16  18
HETATM   18  C   UNL     1     -13.002  14.718  71.818  1.00  0.00    -0.410 C  
HETATM   19  C   UNL     1     -14.339  15.484  71.881  1.00  0.00    -0.580 C  
HETATM   20  C   UNL     1     -12.288  15.103  70.516  1.00  0.00    -0.408 C  
HETATM   21  C   UNL     1     -12.152  15.147  73.024  1.00  0.00    -0.483 C  
ENDBRANCH  16  18
ENDBRANCH  15  16
ENDBRANCH  14  15
ENDBRANCH  13  14
BRANCH  11  22
HETATM   22  O   UNL     1     -10.715   9.467  67.726  1.00  0.00    -0.261 OA 
BRANCH  22  23
HETATM   23  C   UNL     1     -10.590  10.513  66.785  1.00  0.00    -0.222 C  
BRANCH  23  24
HETATM   24  C   UNL     1     -11.581  11.609  67.149  1.00  0.00    -0.212 C  
BRANCH  24  25
HETATM   25  N   UNL     1     -11.669  12.574  66.083  1.00  0.00    -0.399 NA 
HETATM   26  C   UNL     1     -10.965  13.739  66.028  1.00  0.00    -0.284 A  
HETATM   27  N   UNL     1      -9.952  14.125  66.821  1.00  0.00    -0.260 NA 
HETATM   28  H2  UNL     1     -12.639  16.709  64.084  1.00  0.00     0.000 HD 
HETATM   29  H1  UNL     1     -11.293  17.586  63.735  1.00  0.00     0.000 HD 
HETATM   30  C   UNL     1     -12.612  12.599  65.092  1.00  0.00    -0.386 A  
HETATM   31  N   UNL     1     -12.584  13.734  64.426  1.00  0.00    -0.666 NA 
HETATM   32  C   UNL     1     -11.572  14.467  65.022  1.00  0.00    -0.382 A  
HETATM   33  C   UNL     1     -11.094  15.769  64.816  1.00  0.00    -0.400 A  
HETATM   34  N   UNL     1     -11.641  16.639  63.885  1.00  0.00    -0.969 NA 
HETATM   35  N   UNL     1     -10.049  16.199  65.565  1.00  0.00    -0.503 NA 
HETATM   36  C   UNL     1      -9.546  15.370  66.506  1.00  0.00    -0.275 A  
ENDBRANCH  24  25
ENDBRANCH  23  24
ENDBRANCH  22  23
ENDBRANCH  11  22
ENDBRANCH   8   9
ENDBRANCH   7   8
ENDBRANCH   5   7
ENDBRANCH   2   5
TORSDOF 12
ENDMDL
MODEL       23
REMARK 921   NORMALIZED FREE ENERGY PREDICTED BY IDOCK:   -6.21 KCAL/MOL
REMARK 922        TOTAL FREE ENERGY PREDICTED BY IDOCK:  -12.17 KCAL/MOL
REMARK 923 INTER-LIGAND FREE ENERGY PREDICTED BY IDOCK:  -10.87 KCAL/MOL
REMARK 924 INTRA-LIGAND FREE ENERGY PREDICTED BY IDOCK:   -1.29 KCAL/MOL
REMARK 927      BINDING AFFINITY PREDICTED BY RF-SCORE:    0.00 PKD
ROOT
HETATM    1  C   UNL     1      -8.265  10.830  65.929  1.00  0.00    -0.155 C  
HETATM    2  C   UNL     1      -8.783   9.715  65.000  1.00  0.00    -0.202 C  
HETATM    3  C   UNL     1      -7.582   8.917  64.479  1.00  0.00    -0.109 C  
HETATM    4  C   UNL     1      -9.704   8.796  65.817  1.00  0.00    -0.122 C  
ENDROOT
BRANCH   2   5
HETATM    5  C   UNL     1      -9.586  10.357  63.857  1.00  0.00    -0.312 C  
HETATM    6  O   UNL     1      -9.212  10.355  62.688  1.00  0.00    -0.246 OA 
BRANCH   5   7
HETATM    7  O   UNL     1     -10.700  11.012  64.290  1.00  0.00    -0.368 OA 
BRANCH   7   8
HETATM    8  C   UNL     1     -10.961  12.253  63.608  1.00  0.00    -0.471 C  
BRANCH   8   9
HETATM    9  O   UNL     1     -10.506  13.403  64.316  1.00  0.00    -0.429 OA 
HETATM   10  P   UNL     1     -11.674  14.274  65.042  1.00  0.00    -0.425 P  
HETATM   11  C   UNL     1     -12.386  13.160  66.276  1.00  0.00    -0.276 C  
HETATM   12  O   UNL     1     -12.647  14.891  64.090  1.00  0.00    -0.785 OA 
HETATM   13  O   UNL     1     -10.918  15.291  66.034  1.00  0.00    -0.332 OA 
BRANCH  13  14
HETATM   14  C   UNL     1     -10.264  16.449  65.601  1.00  0.00    -0.324 C  
BRANCH  14  15
HETATM   15  O   UNL     1      -9.563  17.050  66.716  1.00  0.00    -0.245 OA 
BRANCH  15  16
HETATM   16  C   UNL     1      -8.671  18.030  66.397  1.00  0.00    -0.227 C  
HETATM   17  O   UNL     1      -7.668  17.847  65.716  1.00  0.00    -0.538 OA 
BRANCH  16  18
HETATM   18  C   UNL     1      -9.059  19.397  67.000  1.00  0.00    -0.362 C  
HETATM   19  C   UNL     1      -7.855  20.358  66.919  1.00  0.00    -0.342 C  
HETATM   20  C   UNL     1      -9.449  19.238  68.475  1.00  0.00    -0.447 C  
HETATM   21  C   UNL     1     -10.222  20.027  66.219  1.00  0.00    -0.595 C  
ENDBRANCH  16  18
ENDBRANCH  15  16
ENDBRANCH  14  15
ENDBRANCH  13  14
BRANCH  11  22
HETATM   22  O   UNL     1     -11.277  12.785  67.097  1.00  0.00    -0.266 OA 
BRANCH  22  23
HETATM   23  C   UNL     1     -11.667  12.317  68.371  1.00  0.00    -0.337 C  
BRANCH  23  24
HETATM   24  C   UNL     1     -11.509  10.803  68.397  1.00  0.00    -0.288 C  
BRANCH  24  25
HETATM   25  N   UNL     1     -11.317  10.346  69.749  1.00  0.00    -0.270 NA 
HETATM   26  C   UNL     1     -10.186   9.746  70.215  1.00  0.00    -0.289 A  
HETATM   27  N   UNL     1      -9.002   9.630  69.592  1.00  0.00    -0.187 NA 
HETATM   28  H2  UNL     1     -10.636   7.220  73.185  1.00  0.00     0.000 HD 
HETATM   29  H1  UNL     1      -9.109   7.255  73.793  1.00  0.00     0.000 HD 
HETATM   30  C   UNL     1     -12.286  10.227  70.707  1.00  0.00    -0.350 A  
HETATM   31  N   UNL     1     -11.857   9.548  71.749  1.00  0.00    -0.385 NA 
HETATM   32  C   UNL     1     -10.548   9.218  71.439  1.00  0.00    -0.347 A  
HETATM   33  C   UNL     1      -9.579   8.453  72.104  1.00  0.00    -0.297 A  
HETATM   34  N   UNL     1      -9.815   7.812  73.310  1.00  0.00    -0.292 NA 
HETATM   35  N   UNL     1      -8.354   8.331  71.537  1.00  0.00    -0.125 NA 
HETATM   36  C   UNL     1      -8.137   8.916  70.338  1.00  0.00    -0.128 A  
ENDBRANCH  24  25
ENDBRANCH  23  24
ENDBRANCH  22  23
ENDBRANCH  11  22
ENDBRANCH   8   9
ENDBRANCH   7   8
ENDBRANCH   5   7
ENDBRANCH   2   5
TORSDOF 12
ENDMDL
MODEL       24
REMARK 921   NORMALIZED FREE ENERGY PREDICTED BY IDOCK:   -6.16 KCAL/MOL
REMARK 922        TOTAL FREE ENERGY PREDICTED BY IDOCK:  -12.09 KCAL/MOL
REMARK 923 INTER-LIGAND FREE ENERGY PREDICTED BY IDOCK:  -10.66 KCAL/MOL
REMARK 924 INTRA-LIGAND FREE ENERGY PREDICTED BY IDOCK:   -1.42 KCAL/MOL
REMARK 927      BINDING AFFINITY PREDICTED BY RF-SCORE:    0.00 PKD
ROOT
HETATM    1  C   UNL     1     -13.608  13.116  72.360  1.00  0.00    -0.667 C  
HETATM    2  C   UNL     1     -13.100  14.455  71.793  1.00  0.00    -0.428 C  
HETATM    3  C   UNL     1     -14.310  15.350  71.500  1.00  0.00    -0.572 C  
HETATM    4  C   UNL     1     -12.205  15.120  72.850  1.00  0.00    -0.493 C  
ENDROOT
BRANCH   2   5
HETATM    5  C   UNL     1     -12.274  14.175  70.527  1.00  0.00    -0.361 C  
HETATM    6  O   UNL     1     -12.084  13.046  70.084  1.00  0.00    -0.336 OA 
BRANCH   5   7
HETATM    7  O   UNL     1     -11.695  15.295  70.010  1.00  0.00    -0.270 OA 
BRANCH   7   8
HETATM    8  C   UNL     1     -11.866  15.449  68.588  1.00  0.00    -0.296 C  
BRANCH   8   9
HETATM    9  O   UNL     1     -10.669  15.803  67.901  1.00  0.00    -0.284 OA 
HETATM   10  P   UNL     1      -9.636  14.573  67.636  1.00  0.00    -0.221 P  
HETATM   11  C   UNL     1     -10.533  13.436  66.553  1.00  0.00    -0.283 C  
HETATM   12  O   UNL     1      -9.080  13.972  68.886  1.00  0.00    -0.095 OA 
HETATM   13  O   UNL     1      -8.555  15.122  66.577  1.00  0.00    -0.270 OA 
BRANCH  13  14
HETATM   14  C   UNL     1      -7.509  15.985  66.919  1.00  0.00    -0.218 C  
BRANCH  14  15
HETATM   15  O   UNL     1      -8.055  17.203  67.479  1.00  0.00    -0.181 OA 
BRANCH  15  16
HETATM   16  C   UNL     1      -8.252  18.224  66.598  1.00  0.00    -0.262 C  
HETATM   17  O   UNL     1      -7.773  18.257  65.470  1.00  0.00    -0.498 OA 
BRANCH  16  18
HETATM   18  C   UNL     1      -9.141  19.342  67.184  1.00  0.00    -0.359 C  
HETATM   19  C   UNL     1      -8.346  20.663  67.228  1.00  0.00    -0.305 C  
HETATM   20  C   UNL     1      -9.566  18.989  68.615  1.00  0.00    -0.458 C  
HETATM   21  C   UNL     1     -10.385  19.565  66.312  1.00  0.00    -0.601 C  
ENDBRANCH  16  18
ENDBRANCH  15  16
ENDBRANCH  14  15
ENDBRANCH  13  14
BRANCH  11  22
HETATM   22  O   UNL     1     -10.876  14.228  65.413  1.00  0.00    -0.310 OA 
BRANCH  22  23
HETATM   23  C   UNL     1     -11.020  13.465  64.233  1.00  0.00    -0.369 C  
BRANCH  23  24
HETATM   24  C   UNL     1     -11.407  12.045  64.622  1.00  0.00    -0.318 C  
BRANCH  24  25
HETATM   25  N   UNL     1     -10.460  11.106  64.081  1.00  0.00    -0.356 NA 
HETATM   26  C   UNL     1      -9.864  10.107  64.790  1.00  0.00    -0.312 A  
HETATM   27  N   UNL     1     -10.160   9.691  66.032  1.00  0.00    -0.276 NA 
HETATM   28  H2  UNL     1      -6.302   8.985  63.582  1.00  0.00     0.000 HD 
HETATM   29  H1  UNL     1      -6.268   7.475  64.231  1.00  0.00     0.000 HD 
HETATM   30  C   UNL     1      -9.839  11.194  62.865  1.00  0.00    -0.289 A  
HETATM   31  N   UNL     1      -8.848  10.334  62.764  1.00  0.00    -0.205 NA 
HETATM   32  C   UNL     1      -8.837   9.665  63.976  1.00  0.00    -0.227 A  
HETATM   33  C   UNL     1      -7.990   8.685  64.513  1.00  0.00    -0.144 A  
HETATM   34  N   UNL     1      -6.884   8.188  63.840  1.00  0.00    -0.073 NA 
HETATM   35  N   UNL     1      -8.263   8.203  65.750  1.00  0.00    -0.118 NA 
HETATM   36  C   UNL     1      -9.313   8.721  66.426  1.00  0.00    -0.204 A  
ENDBRANCH  24  25
ENDBRANCH  23  24
ENDBRANCH  22  23
ENDBRANCH  11  22
ENDBRANCH   8   9
ENDBRANCH   7   8
ENDBRANCH   5   7
ENDBRANCH   2   5
TORSDOF 12
ENDMDL
MODEL       25
REMARK 921   NORMALIZED FREE ENERGY PREDICTED BY IDOCK:   -6.14 KCAL/MOL
REMARK 922        TOTAL FREE ENERGY PREDICTED BY IDOCK:  -12.04 KCAL/MOL
REMARK 923 INTER-LIGAND FREE ENERGY PREDICTED BY IDOCK:  -10.58 KCAL/MOL
REMARK 924 INTRA-LIGAND FREE ENERGY PREDICTED BY IDOCK:   -1.47 KCAL/MOL
REMARK 927      BINDING AFFINITY PREDICTED BY RF-SCORE:    0.00 PKD
ROOT
HETATM    1  C   UNL     1      -9.759  20.311  67.304  1.00  0.00    -0.590 C  
HETATM    2  C   UNL     1      -8.349  19.699  67.425  1.00  0.00    -0.335 C  
HETATM    3  C   UNL     1      -7.323  20.838  67.432  1.00  0.00    -0.390 C  
HETATM    4  C   UNL     1      -8.273  18.920  68.747  1.00  0.00    -0.347 C  
ENDROOT
BRANCH   2   5
HETATM    5  C   UNL     1      -8.127  18.734  66.249  1.00  0.00    -0.251 C  
HETATM    6  O   UNL     1      -7.198  18.843  65.455  1.00  0.00    -0.494 OA 
BRANCH   5   7
HETATM    7  O   UNL     1      -9.121  17.811  66.122  1.00  0.00    -0.457 OA 
BRANCH   7   8
HETATM    8  C   UNL     1      -8.659  16.450  66.026  1.00  0.00    -0.211 C  
BRANCH   8   9
HETATM    9  O   UNL     1      -9.705  15.484  66.060  1.00  0.00    -0.292 OA 
HETATM   10  P   UNL     1      -9.460  14.236  67.076  1.00  0.00    -0.273 P  
HETATM   11  C   UNL     1      -9.396  14.983  68.723  1.00  0.00    -0.200 C  
HETATM   12  O   UNL     1      -8.292  13.380  66.709  1.00  0.00    -0.064 OA 
HETATM   13  O   UNL     1     -10.876  13.481  67.203  1.00  0.00    -0.279 OA 
BRANCH  13  14
HETATM   14  C   UNL     1     -11.389  12.633  66.216  1.00  0.00    -0.329 C  
BRANCH  14  15
HETATM   15  O   UNL     1     -11.103  11.259  66.569  1.00  0.00    -0.285 OA 
BRANCH  15  16
HETATM   16  C   UNL     1     -10.416  10.537  65.639  1.00  0.00    -0.143 C  
HETATM   17  O   UNL     1     -10.495  10.728  64.430  1.00  0.00    -0.365 OA 
BRANCH  16  18
HETATM   18  C   UNL     1      -9.534   9.444  66.277  1.00  0.00    -0.273 C  
HETATM   19  C   UNL     1     -10.419   8.470  67.081  1.00  0.00    -0.370 C  
HETATM   20  C   UNL     1      -8.517  10.073  67.238  1.00  0.00    -0.122 C  
HETATM   21  C   UNL     1      -8.798   8.636  65.198  1.00  0.00    -0.147 C  
ENDBRANCH  16  18
ENDBRANCH  15  16
ENDBRANCH  14  15
ENDBRANCH  13  14
BRANCH  11  22
HETATM   22  O   UNL     1     -10.646  15.665  68.852  1.00  0.00    -0.212 OA 
BRANCH  22  23
HETATM   23  C   UNL     1     -11.211  15.542  70.141  1.00  0.00    -0.318 C  
BRANCH  23  24
HETATM   24  C   UNL     1     -12.635  15.023  69.995  1.00  0.00    -0.217 C  
BRANCH  24  25
HETATM   25  N   UNL     1     -12.864  13.936  70.910  1.00  0.00    -0.321 NA 
HETATM   26  C   UNL     1     -12.423  12.660  70.730  1.00  0.00    -0.270 A  
HETATM   27  N   UNL     1     -11.564  12.211  69.799  1.00  0.00    -0.289 NA 
HETATM   28  H2  UNL     1     -14.576   9.813  72.361  1.00  0.00     0.000 HD 
HETATM   29  H1  UNL     1     -13.431   8.637  72.453  1.00  0.00     0.000 HD 
HETATM   30  C   UNL     1     -13.731  13.940  71.969  1.00  0.00    -0.486 A  
HETATM   31  N   UNL     1     -13.907  12.731  72.456  1.00  0.00    -0.471 NA 
HETATM   32  C   UNL     1     -13.112  11.915  71.669  1.00  0.00    -0.328 A  
HETATM   33  C   UNL     1     -12.912  10.527  71.637  1.00  0.00    -0.476 A  
HETATM   34  N   UNL     1     -13.577   9.646  72.476  1.00  0.00    -0.338 NA 
HETATM   35  N   UNL     1     -12.029  10.023  70.741  1.00  0.00    -0.313 NA 
HETATM   36  C   UNL     1     -11.416  10.876  69.890  1.00  0.00    -0.323 A  
ENDBRANCH  24  25
ENDBRANCH  23  24
ENDBRANCH  22  23
ENDBRANCH  11  22
ENDBRANCH   8   9
ENDBRANCH   7   8
ENDBRANCH   5   7
ENDBRANCH   2   5
TORSDOF 12
ENDMDL
MODEL       26
REMARK 921   NORMALIZED FREE ENERGY PREDICTED BY IDOCK:   -6.14 KCAL/MOL
REMARK 922        TOTAL FREE ENERGY PREDICTED BY IDOCK:  -12.04 KCAL/MOL
REMARK 923 INTER-LIGAND FREE ENERGY PREDICTED BY IDOCK:  -10.53 KCAL/MOL
REMARK 924 INTRA-LIGAND FREE ENERGY PREDICTED BY IDOCK:   -1.51 KCAL/MOL
REMARK 927      BINDING AFFINITY PREDICTED BY RF-SCORE:    0.00 PKD
ROOT
HETATM    1  C   UNL     1     -11.836  15.110  72.468  1.00  0.00    -0.485 C  
HETATM    2  C   UNL     1     -12.561  14.641  71.192  1.00  0.00    -0.404 C  
HETATM    3  C   UNL     1     -12.554  13.108  71.163  1.00  0.00    -0.403 C  
HETATM    4  C   UNL     1     -14.008  15.154  71.242  1.00  0.00    -0.548 C  
ENDROOT
BRANCH   2   5
HETATM    5  C   UNL     1     -11.848  15.241  69.970  1.00  0.00    -0.334 C  
HETATM    6  O   UNL     1     -12.340  16.119  69.267  1.00  0.00    -0.049 OA 
BRANCH   5   7
HETATM    7  O   UNL     1     -10.663  14.630  69.690  1.00  0.00    -0.225 OA 
BRANCH   7   8
HETATM    8  C   UNL     1      -9.509  15.480  69.829  1.00  0.00    -0.173 C  
BRANCH   8   9
HETATM    9  O   UNL     1      -8.929  15.868  68.587  1.00  0.00    -0.184 OA 
HETATM   10  P   UNL     1      -7.305  15.768  68.521  1.00  0.00    -0.140 P  
HETATM   11  C   UNL     1      -6.939  14.009  68.732  1.00  0.00    -0.106 C  
HETATM   12  O   UNL     1      -6.605  16.691  69.465  1.00  0.00    -0.220 OA 
HETATM   13  O   UNL     1      -6.913  15.918  66.967  1.00  0.00    -0.205 OA 
BRANCH  13  14
HETATM   14  C   UNL     1      -6.908  17.140  66.287  1.00  0.00    -0.202 C  
BRANCH  14  15
HETATM   15  O   UNL     1      -7.797  18.065  66.957  1.00  0.00    -0.208 OA 
BRANCH  15  16
HETATM   16  C   UNL     1      -9.046  18.181  66.422  1.00  0.00    -0.241 C  
HETATM   17  O   UNL     1      -9.562  17.337  65.698  1.00  0.00    -0.527 OA 
BRANCH  16  18
HETATM   18  C   UNL     1      -9.736  19.503  66.822  1.00  0.00    -0.464 C  
HETATM   19  C   UNL     1      -8.685  20.485  67.382  1.00  0.00    -0.373 C  
HETATM   20  C   UNL     1     -10.785  19.248  67.912  1.00  0.00    -0.417 C  
HETATM   21  C   UNL     1     -10.400  20.163  65.604  1.00  0.00    -0.316 C  
ENDBRANCH  16  18
ENDBRANCH  15  16
ENDBRANCH  14  15
ENDBRANCH  13  14
BRANCH  11  22
HETATM   22  O   UNL     1      -7.654  13.369  67.671  1.00  0.00    -0.144 OA 
BRANCH  22  23
HETATM   23  C   UNL     1      -7.789  11.975  67.859  1.00  0.00    -0.144 C  
BRANCH  23  24
HETATM   24  C   UNL     1      -9.273  11.638  67.906  1.00  0.00    -0.171 C  
BRANCH  24  25
HETATM   25  N   UNL     1      -9.827  11.644  66.578  1.00  0.00    -0.200 NA 
HETATM   26  C   UNL     1     -10.858  12.434  66.168  1.00  0.00    -0.273 A  
HETATM   27  N   UNL     1     -11.423  13.457  66.830  1.00  0.00    -0.327 NA 
HETATM   28  H2  UNL     1     -13.102  11.027  63.272  1.00  0.00     0.000 HD 
HETATM   29  H1  UNL     1     -13.724  12.441  62.710  1.00  0.00     0.000 HD 
HETATM   30  C   UNL     1      -9.578  10.725  65.594  1.00  0.00    -0.216 A  
HETATM   31  N   UNL     1     -10.418  10.852  64.590  1.00  0.00    -0.337 NA 
HETATM   32  C   UNL     1     -11.243  11.904  64.951  1.00  0.00    -0.292 A  
HETATM   33  C   UNL     1     -12.367  12.482  64.343  1.00  0.00    -0.455 A  
HETATM   34  N   UNL     1     -12.907  12.020  63.152  1.00  0.00    -0.587 NA 
HETATM   35  N   UNL     1     -12.956  13.541  64.951  1.00  0.00    -0.721 NA 
HETATM   36  C   UNL     1     -12.460  13.961  66.136  1.00  0.00    -0.436 A  
ENDBRANCH  24  25
ENDBRANCH  23  24
ENDBRANCH  22  23
ENDBRANCH  11  22
ENDBRANCH   8   9
ENDBRANCH   7   8
ENDBRANCH   5   7
ENDBRANCH   2   5
TORSDOF 12
ENDMDL
MODEL       27
REMARK 921   NORMALIZED FREE ENERGY PREDICTED BY IDOCK:   -6.13 KCAL/MOL
REMARK 922        TOTAL FREE ENERGY PREDICTED BY IDOCK:  -12.02 KCAL/MOL
REMARK 923 INTER-LIGAND FREE ENERGY PREDICTED BY IDOCK:  -10.02 KCAL/MOL
REMARK 924 INTRA-LIGAND FREE ENERGY PREDICTED BY IDOCK:   -2.00 KCAL/MOL
REMARK 927      BINDING AFFINITY PREDICTED BY RF-SCORE:    0.00 PKD
ROOT
HETATM    1  C   UNL     1     -12.653  13.223  65.733  1.00  0.00    -0.413 C  
HETATM    2  C   UNL     1     -11.665  13.612  64.616  1.00  0.00    -0.414 C  
HETATM    3  C   UNL     1     -10.349  12.859  64.846  1.00  0.00    -0.329 C  
HETATM    4  C   UNL     1     -12.273  13.199  63.267  1.00  0.00    -0.438 C  
ENDROOT
BRANCH   2   5
HETATM    5  C   UNL     1     -11.465  15.136  64.641  1.00  0.00    -0.362 C  
HETATM    6  O   UNL     1     -11.985  15.897  63.830  1.00  0.00    -0.730 OA 
BRANCH   5   7
HETATM    7  O   UNL     1     -10.576  15.542  65.591  1.00  0.00    -0.327 OA 
BRANCH   7   8
HETATM    8  C   UNL     1     -10.226  16.937  65.519  1.00  0.00    -0.126 C  
BRANCH   8   9
HETATM    9  O   UNL     1      -9.085  17.283  66.298  1.00  0.00    -0.338 OA 
HETATM   10  P   UNL     1      -9.055  18.820  66.834  1.00  0.00    -0.319 P  
HETATM   11  C   UNL     1     -10.486  18.959  67.931  1.00  0.00    -0.388 C  
HETATM   12  O   UNL     1      -8.976  19.838  65.742  1.00  0.00    -0.371 OA 
HETATM   13  O   UNL     1      -7.888  18.882  67.941  1.00  0.00    -0.254 OA 
BRANCH  13  14
HETATM   14  C   UNL     1      -6.526  18.920  67.626  1.00  0.00    -0.202 C  
BRANCH  14  15
HETATM   15  O   UNL     1      -5.829  17.908  68.390  1.00  0.00    -0.167 OA 
BRANCH  15  16
HETATM   16  C   UNL     1      -5.747  16.677  67.809  1.00  0.00    -0.136 C  
HETATM   17  O   UNL     1      -5.471  16.494  66.629  1.00  0.00    -0.349 OA 
BRANCH  16  18
HETATM   18  C   UNL     1      -6.052  15.537  68.804  1.00  0.00    -0.099 C  
HETATM   19  C   UNL     1      -7.530  15.614  69.240  1.00  0.00    -0.216 C  
HETATM   20  C   UNL     1      -5.175  15.672  70.055  1.00  0.00    -0.118 C  
HETATM   21  C   UNL     1      -5.821  14.166  68.152  1.00  0.00    -0.129 C  
ENDBRANCH  16  18
ENDBRANCH  15  16
ENDBRANCH  14  15
ENDBRANCH  13  14
BRANCH  11  22
HETATM   22  O   UNL     1     -10.278  17.944  68.916  1.00  0.00    -0.374 OA 
BRANCH  22  23
HETATM   23  C   UNL     1     -11.353  17.032  69.006  1.00  0.00     0.321 C  
BRANCH  23  24
HETATM   24  C   UNL     1     -11.128  16.140  70.219  1.00  0.00    -0.369 C  
BRANCH  24  25
HETATM   25  N   UNL     1     -11.417  14.769  69.889  1.00  0.00    -0.269 NA 
HETATM   26  C   UNL     1     -12.173  13.929  70.649  1.00  0.00    -0.373 A  
HETATM   27  N   UNL     1     -12.926  14.240  71.717  1.00  0.00    -0.336 NA 
HETATM   28  H2  UNL     1     -11.329  10.104  70.401  1.00  0.00     0.000 HD 
HETATM   29  H1  UNL     1     -12.767   9.484  70.902  1.00  0.00     0.000 HD 
HETATM   30  C   UNL     1     -10.813  14.030  68.909  1.00  0.00    -0.258 A  
HETATM   31  N   UNL     1     -11.105  12.751  69.019  1.00  0.00    -0.250 NA 
HETATM   32  C   UNL     1     -11.936  12.672  70.123  1.00  0.00    -0.299 A  
HETATM   33  C   UNL     1     -12.529  11.591  70.791  1.00  0.00    -0.349 A  
HETATM   34  N   UNL     1     -12.335  10.270  70.417  1.00  0.00    -0.264 NA 
HETATM   35  N   UNL     1     -13.329  11.850  71.854  1.00  0.00    -0.405 NA 
HETATM   36  C   UNL     1     -13.480  13.134  72.249  1.00  0.00    -0.568 A  
ENDBRANCH  24  25
ENDBRANCH  23  24
ENDBRANCH  22  23
ENDBRANCH  11  22
ENDBRANCH   8   9
ENDBRANCH   7   8
ENDBRANCH   5   7
ENDBRANCH   2   5
TORSDOF 12
ENDMDL
MODEL       28
REMARK 921   NORMALIZED FREE ENERGY PREDICTED BY IDOCK:   -6.11 KCAL/MOL
REMARK 922        TOTAL FREE ENERGY PREDICTED BY IDOCK:  -12.00 KCAL/MOL
REMARK 923 INTER-LIGAND FREE ENERGY PREDICTED BY IDOCK:  -10.65 KCAL/MOL
REMARK 924 INTRA-LIGAND FREE ENERGY PREDICTED BY IDOCK:   -1.35 KCAL/MOL
REMARK 927      BINDING AFFINITY PREDICTED BY RF-SCORE:    0.00 PKD
ROOT
HETATM    1  C   UNL     1     -11.637  11.787  65.466  1.00  0.00    -0.192 C  
HETATM    2  C   UNL     1     -11.545  12.431  64.069  1.00  0.00    -0.488 C  
HETATM    3  C   UNL     1     -10.225  12.001  63.420  1.00  0.00    -0.457 C  
HETATM    4  C   UNL     1     -12.728  11.929  63.227  1.00  0.00    -0.407 C  
ENDROOT
BRANCH   2   5
HETATM    5  C   UNL     1     -11.639  13.958  64.222  1.00  0.00    -0.355 C  
HETATM    6  O   UNL     1     -12.632  14.607  63.907  1.00  0.00    -0.834 OA 
BRANCH   5   7
HETATM    7  O   UNL     1     -10.474  14.524  64.646  1.00  0.00    -0.388 OA 
BRANCH   7   8
HETATM    8  C   UNL     1     -10.643  15.749  65.384  1.00  0.00    -0.421 C  
BRANCH   8   9
HETATM    9  O   UNL     1      -9.592  16.013  66.308  1.00  0.00    -0.261 OA 
HETATM   10  P   UNL     1     -10.006  15.890  67.878  1.00  0.00    -0.225 P  
HETATM   11  C   UNL     1     -10.465  14.155  68.103  1.00  0.00    -0.244 C  
HETATM   12  O   UNL     1     -11.027  16.890  68.313  1.00  0.00    -0.364 OA 
HETATM   13  O   UNL     1      -8.623  15.889  68.703  1.00  0.00    -0.176 OA 
BRANCH  13  14
HETATM   14  C   UNL     1      -7.870  17.041  68.947  1.00  0.00    -0.224 C  
BRANCH  14  15
HETATM   15  O   UNL     1      -7.173  17.424  67.738  1.00  0.00    -0.163 OA 
BRANCH  15  16
HETATM   16  C   UNL     1      -6.647  18.682  67.729  1.00  0.00    -0.212 C  
HETATM   17  O   UNL     1      -5.919  19.126  68.609  1.00  0.00    -0.210 OA 
BRANCH  16  18
HETATM   18  C   UNL     1      -7.082  19.492  66.488  1.00  0.00    -0.230 C  
HETATM   19  C   UNL     1      -6.378  18.933  65.234  1.00  0.00    -0.314 C  
HETATM   20  C   UNL     1      -6.684  20.964  66.647  1.00  0.00    -0.338 C  
HETATM   21  C   UNL     1      -8.598  19.383  66.269  1.00  0.00    -0.360 C  
ENDBRANCH  16  18
ENDBRANCH  15  16
ENDBRANCH  14  15
ENDBRANCH  13  14
BRANCH  11  22
HETATM   22  O   UNL     1      -9.304  13.425  67.698  1.00  0.00    -0.201 OA 
BRANCH  22  23
HETATM   23  C   UNL     1      -9.254  12.121  68.239  1.00  0.00    -0.192 C  
BRANCH  23  24
HETATM   24  C   UNL     1     -10.596  11.819  68.892  1.00  0.00    -0.180 C  
BRANCH  24  25
HETATM   25  N   UNL     1     -10.516  10.598  69.650  1.00  0.00    -0.213 NA 
HETATM   26  C   UNL     1     -11.480  10.143  70.498  1.00  0.00    -0.337 A  
HETATM   27  N   UNL     1     -12.727  10.619  70.654  1.00  0.00    -0.364 NA 
HETATM   28  H2  UNL     1     -10.272   7.925  73.502  1.00  0.00     0.000 HD 
HETATM   29  H1  UNL     1     -11.677   7.134  73.826  1.00  0.00     0.000 HD 
HETATM   30  C   UNL     1      -9.399   9.826  69.823  1.00  0.00    -0.226 A  
HETATM   31  N   UNL     1      -9.576   8.924  70.765  1.00  0.00    -0.209 NA 
HETATM   32  C   UNL     1     -10.869   9.132  71.214  1.00  0.00    -0.332 A  
HETATM   33  C   UNL     1     -11.624   8.545  72.240  1.00  0.00    -0.374 A  
HETATM   34  N   UNL     1     -11.127   7.561  73.080  1.00  0.00    -0.376 NA 
HETATM   35  N   UNL     1     -12.901   8.962  72.419  1.00  0.00    -0.399 NA 
HETATM   36  C   UNL     1     -13.372   9.955  71.632  1.00  0.00    -0.389 A  
ENDBRANCH  24  25
ENDBRANCH  23  24
ENDBRANCH  22  23
ENDBRANCH  11  22
ENDBRANCH   8   9
ENDBRANCH   7   8
ENDBRANCH   5   7
ENDBRANCH   2   5
TORSDOF 12
ENDMDL
MODEL       29
REMARK 921   NORMALIZED FREE ENERGY PREDICTED BY IDOCK:   -6.09 KCAL/MOL
REMARK 922        TOTAL FREE ENERGY PREDICTED BY IDOCK:  -11.96 KCAL/MOL
REMARK 923 INTER-LIGAND FREE ENERGY PREDICTED BY IDOCK:  -10.19 KCAL/MOL
REMARK 924 INTRA-LIGAND FREE ENERGY PREDICTED BY IDOCK:   -1.77 KCAL/MOL
REMARK 927      BINDING AFFINITY PREDICTED BY RF-SCORE:    0.00 PKD
ROOT
HETATM    1  C   UNL     1     -10.436  12.936  64.105  1.00  0.00    -0.429 C  
HETATM    2  C   UNL     1     -11.910  13.172  64.487  1.00  0.00    -0.427 C  
HETATM    3  C   UNL     1     -12.276  14.621  64.144  1.00  0.00    -0.343 C  
HETATM    4  C   UNL     1     -12.782  12.207  63.669  1.00  0.00    -0.549 C  
ENDROOT
BRANCH   2   5
HETATM    5  C   UNL     1     -12.086  12.875  65.985  1.00  0.00    -0.422 C  
HETATM    6  O   UNL     1     -11.950  11.756  66.470  1.00  0.00    -0.545 OA 
BRANCH   5   7
HETATM    7  O   UNL     1     -12.505  13.959  66.698  1.00  0.00    -0.407 OA 
BRANCH   7   8
HETATM    8  C   UNL     1     -11.555  14.434  67.669  1.00  0.00    -0.370 C  
BRANCH   8   9
HETATM    9  O   UNL     1     -10.328  14.883  67.100  1.00  0.00    -0.255 OA 
HETATM   10  P   UNL     1      -9.069  14.939  68.130  1.00  0.00    -0.188 P  
HETATM   11  C   UNL     1      -8.804  13.222  68.634  1.00  0.00     0.038 C  
HETATM   12  O   UNL     1      -9.244  15.920  69.245  1.00  0.00    -0.238 OA 
HETATM   13  O   UNL     1      -7.757  15.134  67.218  1.00  0.00    -0.185 OA 
BRANCH  13  14
HETATM   14  C   UNL     1      -7.394  16.355  66.640  1.00  0.00    -0.206 C  
BRANCH  14  15
HETATM   15  O   UNL     1      -8.581  17.155  66.423  1.00  0.00    -0.245 OA 
BRANCH  15  16
HETATM   16  C   UNL     1      -8.383  18.501  66.345  1.00  0.00    -0.259 C  
HETATM   17  O   UNL     1      -7.561  19.030  65.606  1.00  0.00    -0.474 OA 
BRANCH  16  18
HETATM   18  C   UNL     1      -9.307  19.287  67.301  1.00  0.00    -0.366 C  
HETATM   19  C   UNL     1      -8.648  19.383  68.692  1.00  0.00    -0.394 C  
HETATM   20  C   UNL     1     -10.652  18.565  67.454  1.00  0.00    -0.463 C  
HETATM   21  C   UNL     1      -9.538  20.715  66.785  1.00  0.00    -0.360 C  
ENDBRANCH  16  18
ENDBRANCH  15  16
ENDBRANCH  14  15
ENDBRANCH  13  14
BRANCH  11  22
HETATM   22  O   UNL     1      -8.584  12.522  67.407  1.00  0.00    -0.168 OA 
BRANCH  22  23
HETATM   23  C   UNL     1      -8.742  11.124  67.532  1.00  0.00    -0.129 C  
BRANCH  23  24
HETATM   24  C   UNL     1      -8.611  10.754  69.003  1.00  0.00    -0.138 C  
BRANCH  24  25
HETATM   25  N   UNL     1      -9.513   9.681  69.328  1.00  0.00    -0.169 NA 
HETATM   26  C   UNL     1     -10.703   9.832  69.972  1.00  0.00    -0.283 A  
HETATM   27  N   UNL     1     -11.342  10.978  70.259  1.00  0.00    -0.259 NA 
HETATM   28  H2  UNL     1     -11.937   6.784  72.116  1.00  0.00     0.000 HD 
HETATM   29  H1  UNL     1     -13.546   7.122  72.151  1.00  0.00     0.000 HD 
HETATM   30  C   UNL     1      -9.235   8.343  69.256  1.00  0.00    -0.154 A  
HETATM   31  N   UNL     1     -10.160   7.624  69.855  1.00  0.00    -0.195 NA 
HETATM   32  C   UNL     1     -11.073   8.549  70.332  1.00  0.00    -0.231 A  
HETATM   33  C   UNL     1     -12.236   8.426  71.105  1.00  0.00    -0.226 A  
HETATM   34  N   UNL     1     -12.699   7.212  71.590  1.00  0.00    -0.369 NA 
HETATM   35  N   UNL     1     -12.941   9.547  71.394  1.00  0.00    -0.355 NA 
HETATM   36  C   UNL     1     -12.464  10.737  70.963  1.00  0.00    -0.420 A  
ENDBRANCH  24  25
ENDBRANCH  23  24
ENDBRANCH  22  23
ENDBRANCH  11  22
ENDBRANCH   8   9
ENDBRANCH   7   8
ENDBRANCH   5   7
ENDBRANCH   2   5
TORSDOF 12
ENDMDL
MODEL       30
REMARK 921   NORMALIZED FREE ENERGY PREDICTED BY IDOCK:   -6.08 KCAL/MOL
REMARK 922        TOTAL FREE ENERGY PREDICTED BY IDOCK:  -11.95 KCAL/MOL
REMARK 923 INTER-LIGAND FREE ENERGY PREDICTED BY IDOCK:  -10.57 KCAL/MOL
REMARK 924 INTRA-LIGAND FREE ENERGY PREDICTED BY IDOCK:   -1.38 KCAL/MOL
REMARK 927      BINDING AFFINITY PREDICTED BY RF-SCORE:    0.00 PKD
ROOT
HETATM    1  C   UNL     1     -12.881   6.991  71.852  1.00  0.00    -0.296 C  
HETATM    2  C   UNL     1     -11.514   6.375  72.206  1.00  0.00    -0.339 C  
HETATM    3  C   UNL     1     -10.755   7.359  73.104  1.00  0.00    -0.436 C  
HETATM    4  C   UNL     1     -11.758   5.060  72.964  1.00  0.00    -0.229 C  
ENDROOT
BRANCH   2   5
HETATM    5  C   UNL     1     -10.752   6.080  70.905  1.00  0.00    -0.267 C  
HETATM    6  O   UNL     1      -9.722   5.413  70.863  1.00  0.00    -0.165 OA 
BRANCH   5   7
HETATM    7  O   UNL     1     -11.279   6.718  69.822  1.00  0.00    -0.301 OA 
BRANCH   7   8
HETATM    8  C   UNL     1     -10.324   7.477  69.057  1.00  0.00    -0.212 C  
BRANCH   8   9
HETATM    9  O   UNL     1     -10.762   8.795  68.739  1.00  0.00    -0.181 OA 
HETATM   10  P   UNL     1     -10.303   9.948  69.793  1.00  0.00    -0.272 P  
HETATM   11  C   UNL     1      -8.497   9.970  69.702  1.00  0.00    -0.180 C  
HETATM   12  O   UNL     1     -10.879   9.777  71.162  1.00  0.00    -0.334 OA 
HETATM   13  O   UNL     1     -10.604  11.355  69.072  1.00  0.00    -0.209 OA 
BRANCH  13  14
HETATM   14  C   UNL     1     -11.885  11.906  68.959  1.00  0.00    -0.308 C  
BRANCH  14  15
HETATM   15  O   UNL     1     -12.279  12.466  70.235  1.00  0.00    -0.327 OA 
BRANCH  15  16
HETATM   16  C   UNL     1     -12.350  13.827  70.289  1.00  0.00    -0.337 C  
HETATM   17  O   UNL     1     -11.979  14.568  69.386  1.00  0.00    -0.303 OA 
BRANCH  16  18
HETATM   18  C   UNL     1     -12.941  14.331  71.623  1.00  0.00    -0.420 C  
HETATM   19  C   UNL     1     -11.837  15.026  72.447  1.00  0.00    -0.432 C  
HETATM   20  C   UNL     1     -13.484  13.154  72.444  1.00  0.00    -0.643 C  
HETATM   21  C   UNL     1     -14.060  15.352  71.373  1.00  0.00    -0.539 C  
ENDBRANCH  16  18
ENDBRANCH  15  16
ENDBRANCH  14  15
ENDBRANCH  13  14
BRANCH  11  22
HETATM   22  O   UNL     1      -8.214  10.228  68.324  1.00  0.00    -0.111 OA 
BRANCH  22  23
HETATM   23  C   UNL     1      -7.788  11.553  68.086  1.00  0.00    -0.128 C  
BRANCH  23  24
HETATM   24  C   UNL     1      -7.929  11.844  66.598  1.00  0.00    -0.032 C  
BRANCH  24  25
HETATM   25  N   UNL     1      -9.105  12.637  66.356  1.00  0.00    -0.164 NA 
HETATM   26  C   UNL     1     -10.017  12.396  65.373  1.00  0.00    -0.236 A  
HETATM   27  N   UNL     1     -10.106  11.315  64.581  1.00  0.00    -0.268 NA 
HETATM   28  H2  UNL     1     -11.947  15.513  63.969  1.00  0.00     0.000 HD 
HETATM   29  H1  UNL     1     -13.269  14.750  63.359  1.00  0.00     0.000 HD 
HETATM   30  C   UNL     1      -9.381  13.861  66.902  1.00  0.00    -0.258 A  
HETATM   31  N   UNL     1     -10.396  14.443  66.298  1.00  0.00    -0.287 NA 
HETATM   32  C   UNL     1     -10.785  13.544  65.319  1.00  0.00    -0.323 A  
HETATM   33  C   UNL     1     -11.757  13.601  64.309  1.00  0.00    -0.403 A  
HETATM   34  N   UNL     1     -12.562  14.709  64.093  1.00  0.00    -0.790 NA 
HETATM   35  N   UNL     1     -11.914  12.523  63.504  1.00  0.00    -0.517 NA 
HETATM   36  C   UNL     1     -11.097  11.460  63.682  1.00  0.00    -0.325 A  
ENDBRANCH  24  25
ENDBRANCH  23  24
ENDBRANCH  22  23
ENDBRANCH  11  22
ENDBRANCH   8   9
ENDBRANCH   7   8
ENDBRANCH   5   7
ENDBRANCH   2   5
TORSDOF 12
ENDMDL
MODEL       31
REMARK 921   NORMALIZED FREE ENERGY PREDICTED BY IDOCK:   -6.05 KCAL/MOL
REMARK 922        TOTAL FREE ENERGY PREDICTED BY IDOCK:  -11.89 KCAL/MOL
REMARK 923 INTER-LIGAND FREE ENERGY PREDICTED BY IDOCK:  -10.49 KCAL/MOL
REMARK 924 INTRA-LIGAND FREE ENERGY PREDICTED BY IDOCK:   -1.40 KCAL/MOL
REMARK 927      BINDING AFFINITY PREDICTED BY RF-SCORE:    0.00 PKD
ROOT
HETATM    1  C   UNL     1     -12.115  12.536  65.644  1.00  0.00    -0.464 C  
HETATM    2  C   UNL     1     -11.282  12.908  64.402  1.00  0.00    -0.389 C  
HETATM    3  C   UNL     1     -12.241  13.194  63.240  1.00  0.00    -0.438 C  
HETATM    4  C   UNL     1     -10.467  14.169  64.727  1.00  0.00    -0.432 C  
ENDROOT
BRANCH   2   5
HETATM    5  C   UNL     1     -10.324  11.749  64.083  1.00  0.00    -0.331 C  
HETATM    6  O   UNL     1      -9.552  11.755  63.129  1.00  0.00    -0.371 OA 
BRANCH   5   7
HETATM    7  O   UNL     1     -10.493  10.676  64.908  1.00  0.00    -0.312 OA 
BRANCH   7   8
HETATM    8  C   UNL     1      -9.268  10.015  65.279  1.00  0.00    -0.218 C  
BRANCH   8   9
HETATM    9  O   UNL     1      -9.435   9.023  66.288  1.00  0.00    -0.201 OA 
HETATM   10  P   UNL     1      -8.882   9.439  67.762  1.00  0.00    -0.121 P  
HETATM   11  C   UNL     1      -9.896  10.852  68.258  1.00  0.00    -0.170 C  
HETATM   12  O   UNL     1      -7.404   9.654  67.813  1.00  0.00    -0.085 OA 
HETATM   13  O   UNL     1      -9.471   8.342  68.783  1.00  0.00    -0.147 OA 
BRANCH  13  14
HETATM   14  C   UNL     1      -8.955   7.048  68.906  1.00  0.00    -0.129 C  
BRANCH  14  15
HETATM   15  O   UNL     1      -9.480   6.435  70.108  1.00  0.00    -0.159 OA 
BRANCH  15  16
HETATM   16  C   UNL     1     -10.839   6.392  70.208  1.00  0.00    -0.293 C  
HETATM   17  O   UNL     1     -11.581   6.057  69.292  1.00  0.00    -0.240 OA 
BRANCH  16  18
HETATM   18  C   UNL     1     -11.339   6.823  71.603  1.00  0.00    -0.305 C  
HETATM   19  C   UNL     1     -10.375   7.871  72.197  1.00  0.00    -0.297 C  
HETATM   20  C   UNL     1     -11.381   5.617  72.550  1.00  0.00    -0.349 C  
HETATM   21  C   UNL     1     -12.734   7.460  71.510  1.00  0.00    -0.409 C  
ENDBRANCH  16  18
ENDBRANCH  15  16
ENDBRANCH  14  15
ENDBRANCH  13  14
BRANCH  11  22
HETATM   22  O   UNL     1     -11.238  10.362  68.203  1.00  0.00    -0.288 OA 
BRANCH  22  23
HETATM   23  C   UNL     1     -12.151  11.169  68.919  1.00  0.00    -0.207 C  
BRANCH  23  24
HETATM   24  C   UNL     1     -11.612  11.371  70.328  1.00  0.00    -0.243 C  
BRANCH  24  25
HETATM   25  N   UNL     1     -12.396  12.358  71.023  1.00  0.00    -0.305 NA 
HETATM   26  C   UNL     1     -12.171  13.701  70.983  1.00  0.00    -0.291 A  
HETATM   27  N   UNL     1     -11.330  14.368  70.177  1.00  0.00    -0.210 NA 
HETATM   28  H2  UNL     1     -13.261  15.758  74.142  1.00  0.00     0.000 HD 
HETATM   29  H1  UNL     1     -13.407  17.243  73.452  1.00  0.00     0.000 HD 
HETATM   30  C   UNL     1     -13.326  12.112  71.997  1.00  0.00    -0.365 A  
HETATM   31  N   UNL     1     -13.684  13.217  72.615  1.00  0.00    -0.695 NA 
HETATM   32  C   UNL     1     -12.946  14.217  72.005  1.00  0.00    -0.360 A  
HETATM   33  C   UNL     1     -12.826  15.593  72.248  1.00  0.00    -0.441 A  
HETATM   34  N   UNL     1     -13.494  16.242  73.275  1.00  0.00    -0.479 NA 
HETATM   35  N   UNL     1     -12.018  16.323  71.442  1.00  0.00    -0.380 NA 
HETATM   36  C   UNL     1     -11.329  15.683  70.470  1.00  0.00    -0.367 A  
ENDBRANCH  24  25
ENDBRANCH  23  24
ENDBRANCH  22  23
ENDBRANCH  11  22
ENDBRANCH   8   9
ENDBRANCH   7   8
ENDBRANCH   5   7
ENDBRANCH   2   5
TORSDOF 12
ENDMDL
MODEL       32
REMARK 921   NORMALIZED FREE ENERGY PREDICTED BY IDOCK:   -6.04 KCAL/MOL
REMARK 922        TOTAL FREE ENERGY PREDICTED BY IDOCK:  -11.88 KCAL/MOL
REMARK 923 INTER-LIGAND FREE ENERGY PREDICTED BY IDOCK:  -10.26 KCAL/MOL
REMARK 924 INTRA-LIGAND FREE ENERGY PREDICTED BY IDOCK:   -1.62 KCAL/MOL
REMARK 927      BINDING AFFINITY PREDICTED BY RF-SCORE:    0.00 PKD
ROOT
HETATM    1  C   UNL     1     -10.505  13.439  64.369  1.00  0.00    -0.403 C  
HETATM    2  C   UNL     1     -10.948  12.018  63.972  1.00  0.00    -0.442 C  
HETATM    3  C   UNL     1     -12.389  12.084  63.451  1.00  0.00    -0.635 C  
HETATM    4  C   UNL     1     -10.015  11.514  62.859  1.00  0.00    -0.246 C  
ENDROOT
BRANCH   2   5
HETATM    5  C   UNL     1     -10.824  11.100  65.198  1.00  0.00    -0.159 C  
HETATM    6  O   UNL     1     -11.445  11.281  66.241  1.00  0.00    -0.265 OA 
BRANCH   5   7
HETATM    7  O   UNL     1      -9.880  10.128  65.043  1.00  0.00    -0.296 OA 
BRANCH   7   8
HETATM    8  C   UNL     1      -8.627  10.408  65.695  1.00  0.00    -0.167 C  
BRANCH   8   9
HETATM    9  O   UNL     1      -8.618  10.090  67.083  1.00  0.00    -0.128 OA 
HETATM   10  P   UNL     1      -7.454  10.825  67.952  1.00  0.00    -0.093 P  
HETATM   11  C   UNL     1      -7.829  12.591  67.832  1.00  0.00    -0.144 C  
HETATM   12  O   UNL     1      -6.067  10.431  67.560  1.00  0.00    -0.052 OA 
HETATM   13  O   UNL     1      -7.842  10.596  69.498  1.00  0.00    -0.144 OA 
BRANCH  13  14
HETATM   14  C   UNL     1      -7.642   9.387  70.172  1.00  0.00    -0.130 C  
BRANCH  14  15
HETATM   15  O   UNL     1      -8.879   8.636  70.188  1.00  0.00    -0.131 OA 
BRANCH  15  16
HETATM   16  C   UNL     1      -9.540   8.605  71.380  1.00  0.00    -0.243 C  
HETATM   17  O   UNL     1      -8.990   8.717  72.470  1.00  0.00    -0.386 OA 
BRANCH  16  18
HETATM   18  C   UNL     1     -11.060   8.401  71.205  1.00  0.00    -0.301 C  
HETATM   19  C   UNL     1     -11.322   7.059  70.490  1.00  0.00    -0.355 C  
HETATM   20  C   UNL     1     -11.653   9.526  70.348  1.00  0.00    -0.268 C  
HETATM   21  C   UNL     1     -11.766   8.358  72.568  1.00  0.00    -0.429 C  
ENDBRANCH  16  18
ENDBRANCH  15  16
ENDBRANCH  14  15
ENDBRANCH  13  14
BRANCH  11  22
HETATM   22  O   UNL     1      -9.161  12.707  68.338  1.00  0.00    -0.195 OA 
BRANCH  22  23
HETATM   23  C   UNL     1      -9.764  13.946  68.029  1.00  0.00    -0.226 C  
BRANCH  23  24
HETATM   24  C   UNL     1     -11.224  13.892  68.458  1.00  0.00    -0.270 C  
BRANCH  24  25
HETATM   25  N   UNL     1     -11.402  14.590  69.704  1.00  0.00    -0.265 NA 
HETATM   26  C   UNL     1     -12.183  14.158  70.733  1.00  0.00    -0.365 A  
HETATM   27  N   UNL     1     -12.773  12.959  70.870  1.00  0.00    -0.259 NA 
HETATM   28  H2  UNL     1     -13.739  16.929  73.037  1.00  0.00     0.000 HD 
HETATM   29  H1  UNL     1     -14.012  16.028  74.384  1.00  0.00     0.000 HD 
HETATM   30  C   UNL     1     -11.017  15.875  69.973  1.00  0.00    -0.358 A  
HETATM   31  N   UNL     1     -11.540  16.312  71.099  1.00  0.00    -0.405 NA 
HETATM   32  C   UNL     1     -12.296  15.252  71.571  1.00  0.00    -0.352 A  
HETATM   33  C   UNL     1     -13.140  15.107  72.681  1.00  0.00    -0.421 A  
HETATM   34  N   UNL     1     -13.398  16.134  73.577  1.00  0.00    -0.634 NA 
HETATM   35  N   UNL     1     -13.733  13.906  72.888  1.00  0.00    -0.619 NA 
HETATM   36  C   UNL     1     -13.521  12.919  71.989  1.00  0.00    -0.473 A  
ENDBRANCH  24  25
ENDBRANCH  23  24
ENDBRANCH  22  23
ENDBRANCH  11  22
ENDBRANCH   8   9
ENDBRANCH   7   8
ENDBRANCH   5   7
ENDBRANCH   2   5
TORSDOF 12
ENDMDL
MODEL       33
REMARK 921   NORMALIZED FREE ENERGY PREDICTED BY IDOCK:   -6.01 KCAL/MOL
REMARK 922        TOTAL FREE ENERGY PREDICTED BY IDOCK:  -11.83 KCAL/MOL
REMARK 923 INTER-LIGAND FREE ENERGY PREDICTED BY IDOCK:   -9.63 KCAL/MOL
REMARK 924 INTRA-LIGAND FREE ENERGY PREDICTED BY IDOCK:   -2.20 KCAL/MOL
REMARK 927      BINDING AFFINITY PREDICTED BY RF-SCORE:    0.00 PKD
ROOT
HETATM    1  C   UNL     1     -12.771   9.267  71.166  1.00  0.00    -0.306 C  
HETATM    2  C   UNL     1     -11.536   8.364  70.984  1.00  0.00    -0.307 C  
HETATM    3  C   UNL     1     -10.706   8.408  72.273  1.00  0.00    -0.417 C  
HETATM    4  C   UNL     1     -12.022   6.928  70.726  1.00  0.00    -0.424 C  
ENDROOT
BRANCH   2   5
HETATM    5  C   UNL     1     -10.736   8.858  69.769  1.00  0.00    -0.225 C  
HETATM    6  O   UNL     1     -10.638   8.223  68.723  1.00  0.00    -0.202 OA 
BRANCH   5   7
HETATM    7  O   UNL     1     -10.068  10.022  70.008  1.00  0.00    -0.248 OA 
BRANCH   7   8
HETATM    8  C   UNL     1      -8.828  10.153  69.287  1.00  0.00    -0.183 C  
BRANCH   8   9
HETATM    9  O   UNL     1      -8.654  11.427  68.674  1.00  0.00    -0.157 OA 
HETATM   10  P   UNL     1      -7.135  11.758  68.189  1.00  0.00    -0.096 P  
HETATM   11  C   UNL     1      -6.773  10.522  66.918  1.00  0.00    -0.086 C  
HETATM   12  O   UNL     1      -6.149  11.842  69.308  1.00  0.00    -0.068 OA 
HETATM   13  O   UNL     1      -7.244  13.058  67.245  1.00  0.00    -0.138 OA 
BRANCH  13  14
HETATM   14  C   UNL     1      -7.415  14.356  67.736  1.00  0.00    -0.170 C  
BRANCH  14  15
HETATM   15  O   UNL     1      -8.823  14.689  67.728  1.00  0.00    -0.167 OA 
BRANCH  15  16
HETATM   16  C   UNL     1      -9.181  15.735  66.930  1.00  0.00    -0.229 C  
HETATM   17  O   UNL     1      -9.106  15.718  65.707  1.00  0.00    -0.308 OA 
BRANCH  16  18
HETATM   18  C   UNL     1      -9.682  16.949  67.741  1.00  0.00    -0.250 C  
HETATM   19  C   UNL     1     -10.742  16.486  68.762  1.00  0.00    -0.339 C  
HETATM   20  C   UNL     1     -10.330  17.981  66.810  1.00  0.00    -0.373 C  
HETATM   21  C   UNL     1      -8.528  17.601  68.518  1.00  0.00    -0.289 C  
ENDBRANCH  16  18
ENDBRANCH  15  16
ENDBRANCH  14  15
ENDBRANCH  13  14
BRANCH  11  22
HETATM   22  O   UNL     1      -7.801  10.706  65.941  1.00  0.00    -0.151 OA 
BRANCH  22  23
HETATM   23  C   UNL     1      -8.474   9.508  65.615  1.00  0.00    -0.133 C  
BRANCH  23  24
HETATM   24  C   UNL     1      -9.974   9.762  65.690  1.00  0.00    -0.282 C  
BRANCH  24  25
HETATM   25  N   UNL     1     -10.303  10.991  65.018  1.00  0.00    -0.291 NA 
HETATM   26  C   UNL     1     -10.960  12.039  65.589  1.00  0.00    -0.297 A  
HETATM   27  N   UNL     1     -11.257  12.212  66.888  1.00  0.00    -0.300 NA 
HETATM   28  H2  UNL     1     -13.105  14.284  63.189  1.00  0.00     0.000 HD 
HETATM   29  H1  UNL     1     -13.158  15.658  64.091  1.00  0.00     0.000 HD 
HETATM   30  C   UNL     1     -10.225  11.222  63.671  1.00  0.00    -0.392 A  
HETATM   31  N   UNL     1     -10.830  12.341  63.336  1.00  0.00    -0.445 NA 
HETATM   32  C   UNL     1     -11.319  12.849  64.528  1.00  0.00    -0.341 A  
HETATM   33  C   UNL     1     -12.103  13.971  64.833  1.00  0.00    -0.420 A  
HETATM   34  N   UNL     1     -12.588  14.841  63.869  1.00  0.00    -0.772 NA 
HETATM   35  N   UNL     1     -12.403  14.214  66.132  1.00  0.00    -0.459 NA 
HETATM   36  C   UNL     1     -11.971  13.340  67.068  1.00  0.00    -0.365 A  
ENDBRANCH  24  25
ENDBRANCH  23  24
ENDBRANCH  22  23
ENDBRANCH  11  22
ENDBRANCH   8   9
ENDBRANCH   7   8
ENDBRANCH   5   7
ENDBRANCH   2   5
TORSDOF 12
ENDMDL
MODEL       34
REMARK 921   NORMALIZED FREE ENERGY PREDICTED BY IDOCK:   -5.95 KCAL/MOL
REMARK 922        TOTAL FREE ENERGY PREDICTED BY IDOCK:  -11.72 KCAL/MOL
REMARK 923 INTER-LIGAND FREE ENERGY PREDICTED BY IDOCK:  -10.36 KCAL/MOL
REMARK 924 INTRA-LIGAND FREE ENERGY PREDICTED BY IDOCK:   -1.36 KCAL/MOL
REMARK 927      BINDING AFFINITY PREDICTED BY RF-SCORE:    0.00 PKD
ROOT
HETATM    1  C   UNL     1     -12.703  14.680  73.440  1.00  0.00    -0.528 C  
HETATM    2  C   UNL     1     -12.826  15.076  71.956  1.00  0.00    -0.410 C  
HETATM    3  C   UNL     1     -14.287  15.440  71.668  1.00  0.00    -0.615 C  
HETATM    4  C   UNL     1     -11.926  16.297  71.705  1.00  0.00    -0.473 C  
ENDROOT
BRANCH   2   5
HETATM    5  C   UNL     1     -12.345  13.902  71.089  1.00  0.00    -0.359 C  
HETATM    6  O   UNL     1     -12.679  12.737  71.288  1.00  0.00    -0.368 OA 
BRANCH   5   7
HETATM    7  O   UNL     1     -11.435  14.273  70.144  1.00  0.00    -0.254 OA 
BRANCH   7   8
HETATM    8  C   UNL     1     -11.617  13.639  68.864  1.00  0.00    -0.322 C  
BRANCH   8   9
HETATM    9  O   UNL     1     -11.151  12.293  68.819  1.00  0.00    -0.225 OA 
HETATM   10  P   UNL     1     -10.684  11.773  67.348  1.00  0.00    -0.264 P  
HETATM   11  C   UNL     1      -9.275  12.820  66.910  1.00  0.00    -0.229 C  
HETATM   12  O   UNL     1     -11.791  11.727  66.345  1.00  0.00    -0.534 OA 
HETATM   13  O   UNL     1      -9.897  10.390  67.595  1.00  0.00    -0.165 OA 
BRANCH  13  14
HETATM   14  C   UNL     1     -10.537   9.177  67.869  1.00  0.00    -0.214 C  
BRANCH  14  15
HETATM   15  O   UNL     1     -10.934   9.148  69.260  1.00  0.00    -0.179 OA 
BRANCH  15  16
HETATM   16  C   UNL     1     -10.723   7.969  69.913  1.00  0.00    -0.242 C  
HETATM   17  O   UNL     1     -10.464   6.912  69.349  1.00  0.00    -0.199 OA 
BRANCH  16  18
HETATM   18  C   UNL     1     -10.855   8.114  71.444  1.00  0.00    -0.281 C  
HETATM   19  C   UNL     1     -11.128   6.731  72.071  1.00  0.00    -0.283 C  
HETATM   20  C   UNL     1     -12.027   9.040  71.792  1.00  0.00    -0.438 C  
HETATM   21  C   UNL     1      -9.558   8.664  72.055  1.00  0.00    -0.385 C  
ENDBRANCH  16  18
ENDBRANCH  15  16
ENDBRANCH  14  15
ENDBRANCH  13  14
BRANCH  11  22
HETATM   22  O   UNL     1      -8.341  12.621  67.975  1.00  0.00    -0.156 OA 
BRANCH  22  23
HETATM   23  C   UNL     1      -7.775  13.827  68.445  1.00  0.00    -0.134 C  
BRANCH  23  24
HETATM   24  C   UNL     1      -7.579  14.761  67.259  1.00  0.00    -0.165 C  
BRANCH  24  25
HETATM   25  N   UNL     1      -8.126  16.059  67.553  1.00  0.00    -0.141 NA 
HETATM   26  C   UNL     1      -9.067  16.696  66.801  1.00  0.00    -0.237 A  
HETATM   27  N   UNL     1      -9.783  16.193  65.782  1.00  0.00    -0.435 NA 
HETATM   28  H2  UNL     1      -9.006  20.620  66.871  1.00  0.00     0.000 HD 
HETATM   29  H1  UNL     1     -10.559  20.915  66.417  1.00  0.00     0.000 HD 
HETATM   30  C   UNL     1      -7.647  16.949  68.476  1.00  0.00    -0.221 A  
HETATM   31  N   UNL     1      -8.196  18.136  68.335  1.00  0.00    -0.297 NA 
HETATM   32  C   UNL     1      -9.068  17.997  67.270  1.00  0.00    -0.255 A  
HETATM   33  C   UNL     1      -9.895  18.906  66.593  1.00  0.00    -0.358 A  
HETATM   34  N   UNL     1      -9.958  20.254  66.909  1.00  0.00    -0.452 NA 
HETATM   35  N   UNL     1     -10.666  18.444  65.579  1.00  0.00    -0.501 NA 
HETATM   36  C   UNL     1     -10.570  17.140  65.237  1.00  0.00    -0.043 A  
ENDBRANCH  24  25
ENDBRANCH  23  24
ENDBRANCH  22  23
ENDBRANCH  11  22
ENDBRANCH   8   9
ENDBRANCH   7   8
ENDBRANCH   5   7
ENDBRANCH   2   5
TORSDOF 12
ENDMDL
MODEL       35
REMARK 921   NORMALIZED FREE ENERGY PREDICTED BY IDOCK:   -5.95 KCAL/MOL
REMARK 922        TOTAL FREE ENERGY PREDICTED BY IDOCK:  -11.71 KCAL/MOL
REMARK 923 INTER-LIGAND FREE ENERGY PREDICTED BY IDOCK:  -10.07 KCAL/MOL
REMARK 924 INTRA-LIGAND FREE ENERGY PREDICTED BY IDOCK:   -1.65 KCAL/MOL
REMARK 927      BINDING AFFINITY PREDICTED BY RF-SCORE:    0.00 PKD
ROOT
HETATM    1  C   UNL     1     -12.563  11.984  63.736  1.00  0.00    -0.567 C  
HETATM    2  C   UNL     1     -11.802  13.095  64.485  1.00  0.00    -0.427 C  
HETATM    3  C   UNL     1     -10.305  12.945  64.187  1.00  0.00    -0.385 C  
HETATM    4  C   UNL     1     -12.302  14.454  63.970  1.00  0.00    -0.243 C  
ENDROOT
BRANCH   2   5
HETATM    5  C   UNL     1     -12.103  12.974  65.987  1.00  0.00    -0.432 C  
HETATM    6  O   UNL     1     -12.081  11.908  66.595  1.00  0.00    -0.587 OA 
BRANCH   5   7
HETATM    7  O   UNL     1     -12.494  14.153  66.549  1.00  0.00    -0.447 OA 
BRANCH   7   8
HETATM    8  C   UNL     1     -11.579  14.675  67.530  1.00  0.00    -0.375 C  
BRANCH   8   9
HETATM    9  O   UNL     1     -10.342  15.121  66.982  1.00  0.00    -0.262 OA 
HETATM   10  P   UNL     1      -9.062  15.007  67.982  1.00  0.00    -0.187 P  
HETATM   11  C   UNL     1      -8.876  13.235  68.298  1.00  0.00    -0.168 C  
HETATM   12  O   UNL     1      -9.166  15.872  69.196  1.00  0.00    -0.225 OA 
HETATM   13  O   UNL     1      -7.760  15.232  67.063  1.00  0.00    -0.208 OA 
BRANCH  13  14
HETATM   14  C   UNL     1      -7.345  16.488  66.607  1.00  0.00    -0.233 C  
BRANCH  14  15
HETATM   15  O   UNL     1      -8.507  17.279  66.260  1.00  0.00    -0.334 OA 
BRANCH  15  16
HETATM   16  C   UNL     1      -8.346  18.631  66.329  1.00  0.00    -0.230 C  
HETATM   17  O   UNL     1      -7.549  19.261  65.644  1.00  0.00    -0.443 OA 
BRANCH  16  18
HETATM   18  C   UNL     1      -9.276  19.280  67.377  1.00  0.00    -0.356 C  
HETATM   19  C   UNL     1      -8.654  19.130  68.781  1.00  0.00    -0.370 C  
HETATM   20  C   UNL     1     -10.643  18.584  67.380  1.00  0.00    -0.463 C  
HETATM   21  C   UNL     1      -9.455  20.778  67.095  1.00  0.00    -0.444 C  
ENDBRANCH  16  18
ENDBRANCH  15  16
ENDBRANCH  14  15
ENDBRANCH  13  14
BRANCH  11  22
HETATM   22  O   UNL     1      -8.715  12.658  67.000  1.00  0.00    -0.197 OA 
BRANCH  22  23
HETATM   23  C   UNL     1      -7.868  11.527  66.999  1.00  0.00    -0.161 C  
BRANCH  23  24
HETATM   24  C   UNL     1      -8.679  10.319  66.550  1.00  0.00    -0.131 C  
BRANCH  24  25
HETATM   25  N   UNL     1      -8.976   9.474  67.676  1.00  0.00    -0.118 NA 
HETATM   26  C   UNL     1      -9.664   8.300  67.608  1.00  0.00    -0.159 A  
HETATM   27  N   UNL     1     -10.029   7.624  66.506  1.00  0.00    -0.197 NA 
HETATM   28  H2  UNL     1     -11.686   7.265  70.809  1.00  0.00     0.000 HD 
HETATM   29  H1  UNL     1     -11.789   5.646  70.543  1.00  0.00     0.000 HD 
HETATM   30  C   UNL     1      -8.828   9.804  68.996  1.00  0.00    -0.153 A  
HETATM   31  N   UNL     1      -9.418   8.930  69.783  1.00  0.00    -0.166 NA 
HETATM   32  C   UNL     1      -9.969   7.996  68.922  1.00  0.00    -0.195 A  
HETATM   33  C   UNL     1     -10.771   6.865  69.134  1.00  0.00    -0.234 A  
HETATM   34  N   UNL     1     -11.207   6.469  70.389  1.00  0.00    -0.327 NA 
HETATM   35  N   UNL     1     -11.139   6.125  68.060  1.00  0.00    -0.308 NA 
HETATM   36  C   UNL     1     -10.754   6.537  66.831  1.00  0.00    -0.333 A  
ENDBRANCH  24  25
ENDBRANCH  23  24
ENDBRANCH  22  23
ENDBRANCH  11  22
ENDBRANCH   8   9
ENDBRANCH   7   8
ENDBRANCH   5   7
ENDBRANCH   2   5
TORSDOF 12
ENDMDL
MODEL       36
REMARK 921   NORMALIZED FREE ENERGY PREDICTED BY IDOCK:   -5.93 KCAL/MOL
REMARK 922        TOTAL FREE ENERGY PREDICTED BY IDOCK:  -11.69 KCAL/MOL
REMARK 923 INTER-LIGAND FREE ENERGY PREDICTED BY IDOCK:   -9.94 KCAL/MOL
REMARK 924 INTRA-LIGAND FREE ENERGY PREDICTED BY IDOCK:   -1.74 KCAL/MOL
REMARK 927      BINDING AFFINITY PREDICTED BY RF-SCORE:    0.00 PKD
ROOT
HETATM    1  C   UNL     1      -7.934   4.807  66.257  1.00  0.00    -0.103 C  
HETATM    2  C   UNL     1      -9.229   5.167  67.011  1.00  0.00    -0.117 C  
HETATM    3  C   UNL     1     -10.427   4.761  66.144  1.00  0.00    -0.332 C  
HETATM    4  C   UNL     1      -9.253   4.383  68.332  1.00  0.00    -0.186 C  
ENDROOT
BRANCH   2   5
HETATM    5  C   UNL     1      -9.223   6.674  67.311  1.00  0.00    -0.125 C  
HETATM    6  O   UNL     1      -8.428   7.205  68.081  1.00  0.00    -0.122 OA 
BRANCH   5   7
HETATM    7  O   UNL     1     -10.251   7.341  66.713  1.00  0.00    -0.249 OA 
BRANCH   7   8
HETATM    8  C   UNL     1     -10.181   8.774  66.839  1.00  0.00    -0.287 C  
BRANCH   8   9
HETATM    9  O   UNL     1     -10.967   9.295  67.908  1.00  0.00    -0.168 OA 
HETATM   10  P   UNL     1     -10.384  10.651  68.595  1.00  0.00    -0.213 P  
HETATM   11  C   UNL     1     -10.420  11.892  67.280  1.00  0.00    -0.222 C  
HETATM   12  O   UNL     1      -9.065  10.466  69.273  1.00  0.00    -0.187 OA 
HETATM   13  O   UNL     1     -11.574  11.229  69.513  1.00  0.00    -0.268 OA 
BRANCH  13  14
HETATM   14  C   UNL     1     -11.917  10.694  70.759  1.00  0.00    -0.374 C  
BRANCH  14  15
HETATM   15  O   UNL     1     -12.239   9.291  70.605  1.00  0.00    -0.193 OA 
BRANCH  15  16
HETATM   16  C   UNL     1     -12.060   8.517  71.713  1.00  0.00    -0.333 C  
HETATM   17  O   UNL     1     -12.510   8.792  72.820  1.00  0.00    -0.308 OA 
BRANCH  16  18
HETATM   18  C   UNL     1     -11.217   7.257  71.420  1.00  0.00    -0.274 C  
HETATM   19  C   UNL     1     -11.654   6.646  70.073  1.00  0.00    -0.423 C  
HETATM   20  C   UNL     1     -11.431   6.206  72.517  1.00  0.00    -0.318 C  
HETATM   21  C   UNL     1      -9.726   7.609  71.320  1.00  0.00    -0.176 C  
ENDBRANCH  16  18
ENDBRANCH  15  16
ENDBRANCH  14  15
ENDBRANCH  13  14
BRANCH  11  22
HETATM   22  O   UNL     1     -11.789  11.932  66.867  1.00  0.00    -0.590 OA 
BRANCH  22  23
HETATM   23  C   UNL     1     -11.965  12.520  65.595  1.00  0.00    -0.433 C  
BRANCH  23  24
HETATM   24  C   UNL     1     -12.568  13.905  65.785  1.00  0.00    -0.494 C  
BRANCH  24  25
HETATM   25  N   UNL     1     -11.527  14.874  66.010  1.00  0.00    -0.318 NA 
HETATM   26  C   UNL     1     -11.199  15.396  67.225  1.00  0.00    -0.270 A  
HETATM   27  N   UNL     1     -11.631  14.999  68.433  1.00  0.00    -0.323 NA 
HETATM   28  H2  UNL     1      -9.687  19.018  67.226  1.00  0.00     0.000 HD 
HETATM   29  H1  UNL     1      -8.904  18.976  68.671  1.00  0.00     0.000 HD 
HETATM   30  C   UNL     1     -10.864  15.586  65.048  1.00  0.00    -0.450 A  
HETATM   31  N   UNL     1     -10.159  16.567  65.571  1.00  0.00    -0.579 NA 
HETATM   32  C   UNL     1     -10.384  16.474  66.935  1.00  0.00    -0.300 A  
HETATM   33  C   UNL     1      -9.973  17.260  68.021  1.00  0.00    -0.304 A  
HETATM   34  N   UNL     1      -9.203  18.404  67.881  1.00  0.00    -0.278 NA 
HETATM   35  N   UNL     1     -10.350  16.885  69.267  1.00  0.00    -0.314 NA 
HETATM   36  C   UNL     1     -11.141  15.796  69.402  1.00  0.00    -0.314 A  
ENDBRANCH  24  25
ENDBRANCH  23  24
ENDBRANCH  22  23
ENDBRANCH  11  22
ENDBRANCH   8   9
ENDBRANCH   7   8
ENDBRANCH   5   7
ENDBRANCH   2   5
TORSDOF 12
ENDMDL
MODEL       37
REMARK 921   NORMALIZED FREE ENERGY PREDICTED BY IDOCK:   -5.92 KCAL/MOL
REMARK 922        TOTAL FREE ENERGY PREDICTED BY IDOCK:  -11.67 KCAL/MOL
REMARK 923 INTER-LIGAND FREE ENERGY PREDICTED BY IDOCK:  -10.59 KCAL/MOL
REMARK 924 INTRA-LIGAND FREE ENERGY PREDICTED BY IDOCK:   -1.08 KCAL/MOL
REMARK 927      BINDING AFFINITY PREDICTED BY RF-SCORE:    0.00 PKD
ROOT
HETATM    1  C   UNL     1     -12.555  14.722  73.427  1.00  0.00    -0.556 C  
HETATM    2  C   UNL     1     -12.913  14.934  71.943  1.00  0.00    -0.414 C  
HETATM    3  C   UNL     1     -14.410  15.251  71.844  1.00  0.00    -0.691 C  
HETATM    4  C   UNL     1     -12.093  16.121  71.414  1.00  0.00    -0.384 C  
ENDROOT
BRANCH   2   5
HETATM    5  C   UNL     1     -12.542  13.666  71.159  1.00  0.00    -0.371 C  
HETATM    6  O   UNL     1     -12.943  12.546  71.460  1.00  0.00    -0.376 OA 
BRANCH   5   7
HETATM    7  O   UNL     1     -11.645  13.900  70.160  1.00  0.00    -0.251 OA 
BRANCH   7   8
HETATM    8  C   UNL     1     -11.873  13.131  68.964  1.00  0.00    -0.313 C  
BRANCH   8   9
HETATM    9  O   UNL     1     -10.704  12.492  68.460  1.00  0.00    -0.228 OA 
HETATM   10  P   UNL     1     -10.972  11.351  67.331  1.00  0.00    -0.303 P  
HETATM   11  C   UNL     1     -11.713  12.238  65.940  1.00  0.00    -0.389 C  
HETATM   12  O   UNL     1     -11.746  10.175  67.834  1.00  0.00    -0.166 OA 
HETATM   13  O   UNL     1      -9.537  11.024  66.680  1.00  0.00    -0.183 OA 
BRANCH  13  14
HETATM   14  C   UNL     1      -8.567  10.236  67.307  1.00  0.00    -0.125 C  
BRANCH  14  15
HETATM   15  O   UNL     1      -9.215   9.286  68.185  1.00  0.00    -0.131 OA 
BRANCH  15  16
HETATM   16  C   UNL     1      -8.661   9.148  69.423  1.00  0.00    -0.138 C  
HETATM   17  O   UNL     1      -7.493   9.415  69.684  1.00  0.00    -0.070 OA 
BRANCH  16  18
HETATM   18  C   UNL     1      -9.667   8.605  70.460  1.00  0.00    -0.210 C  
HETATM   19  C   UNL     1      -8.902   7.985  71.647  1.00  0.00    -0.179 C  
HETATM   20  C   UNL     1     -10.545   7.516  69.831  1.00  0.00    -0.243 C  
HETATM   21  C   UNL     1     -10.552   9.736  71.005  1.00  0.00    -0.295 C  
ENDBRANCH  16  18
ENDBRANCH  15  16
ENDBRANCH  14  15
ENDBRANCH  13  14
BRANCH  11  22
HETATM   22  O   UNL     1     -10.751  13.241  65.606  1.00  0.00    -0.275 OA 
BRANCH  22  23
HETATM   23  C   UNL     1     -11.338  14.437  65.137  1.00  0.00    -0.359 C  
BRANCH  23  24
HETATM   24  C   UNL     1     -10.289  15.539  65.180  1.00  0.00    -0.356 C  
BRANCH  24  25
HETATM   25  N   UNL     1     -10.372  16.256  66.425  1.00  0.00    -0.306 NA 
HETATM   26  C   UNL     1     -10.379  17.614  66.543  1.00  0.00    -0.337 A  
HETATM   27  N   UNL     1     -10.492  18.523  65.560  1.00  0.00    -0.554 NA 
HETATM   28  H2  UNL     1      -8.914  19.093  69.870  1.00  0.00     0.000 HD 
HETATM   29  H1  UNL     1      -9.663  20.556  69.860  1.00  0.00     0.000 HD 
HETATM   30  C   UNL     1     -10.230  15.722  67.677  1.00  0.00    -0.266 A  
HETATM   31  N   UNL     1     -10.103  16.659  68.592  1.00  0.00    -0.254 NA 
HETATM   32  C   UNL     1     -10.167  17.850  67.888  1.00  0.00    -0.371 A  
HETATM   33  C   UNL     1     -10.033  19.191  68.276  1.00  0.00    -0.403 A  
HETATM   34  N   UNL     1      -9.761  19.580  69.578  1.00  0.00    -0.172 NA 
HETATM   35  N   UNL     1     -10.174  20.152  67.331  1.00  0.00    -0.410 NA 
HETATM   36  C   UNL     1     -10.392  19.772  66.052  1.00  0.00    -0.511 A  
ENDBRANCH  24  25
ENDBRANCH  23  24
ENDBRANCH  22  23
ENDBRANCH  11  22
ENDBRANCH   8   9
ENDBRANCH   7   8
ENDBRANCH   5   7
ENDBRANCH   2   5
TORSDOF 12
ENDMDL
MODEL       38
REMARK 921   NORMALIZED FREE ENERGY PREDICTED BY IDOCK:   -5.85 KCAL/MOL
REMARK 922        TOTAL FREE ENERGY PREDICTED BY IDOCK:  -11.54 KCAL/MOL
REMARK 923 INTER-LIGAND FREE ENERGY PREDICTED BY IDOCK:  -10.15 KCAL/MOL
REMARK 924 INTRA-LIGAND FREE ENERGY PREDICTED BY IDOCK:   -1.40 KCAL/MOL
REMARK 927      BINDING AFFINITY PREDICTED BY RF-SCORE:    0.00 PKD
ROOT
HETATM    1  C   UNL     1      -7.177   7.203  66.989  1.00  0.00    -0.091 C  
HETATM    2  C   UNL     1      -7.507   8.670  66.653  1.00  0.00    -0.089 C  
HETATM    3  C   UNL     1      -7.508   9.480  67.955  1.00  0.00    -0.083 C  
HETATM    4  C   UNL     1      -6.421   9.205  65.707  1.00  0.00    -0.064 C  
ENDROOT
BRANCH   2   5
HETATM    5  C   UNL     1      -8.871   8.720  65.945  1.00  0.00    -0.186 C  
HETATM    6  O   UNL     1      -9.876   8.167  66.381  1.00  0.00    -0.236 OA 
BRANCH   5   7
HETATM    7  O   UNL     1      -8.823   9.354  64.740  1.00  0.00    -0.190 OA 
BRANCH   7   8
HETATM    8  C   UNL     1      -9.925  10.249  64.496  1.00  0.00    -0.289 C  
BRANCH   8   9
HETATM    9  O   UNL     1      -9.705  11.573  64.974  1.00  0.00    -0.242 OA 
HETATM   10  P   UNL     1     -11.008  12.296  65.628  1.00  0.00    -0.324 P  
HETATM   11  C   UNL     1     -11.421  11.290  67.074  1.00  0.00    -0.096 C  
HETATM   12  O   UNL     1     -12.123  12.523  64.659  1.00  0.00    -0.387 OA 
HETATM   13  O   UNL     1     -10.456  13.604  66.387  1.00  0.00    -0.280 OA 
BRANCH  13  14
HETATM   14  C   UNL     1     -10.083  14.779  65.727  1.00  0.00    -0.339 C  
BRANCH  14  15
HETATM   15  O   UNL     1     -10.761  15.905  66.332  1.00  0.00    -0.308 OA 
BRANCH  15  16
HETATM   16  C   UNL     1     -10.716  17.073  65.629  1.00  0.00    -0.144 C  
HETATM   17  O   UNL     1     -11.150  17.203  64.490  1.00  0.00    -1.105 OA 
BRANCH  16  18
HETATM   18  C   UNL     1     -10.046  18.213  66.426  1.00  0.00    -0.392 C  
HETATM   19  C   UNL     1      -8.516  18.139  66.245  1.00  0.00    -0.213 C  
HETATM   20  C   UNL     1     -10.361  18.075  67.921  1.00  0.00    -0.402 C  
HETATM   21  C   UNL     1     -10.518  19.584  65.919  1.00  0.00    -0.585 C  
ENDBRANCH  16  18
ENDBRANCH  15  16
ENDBRANCH  14  15
ENDBRANCH  13  14
BRANCH  11  22
HETATM   22  O   UNL     1     -10.231  11.301  67.865  1.00  0.00    -0.175 OA 
BRANCH  22  23
HETATM   23  C   UNL     1     -10.484  11.492  69.242  1.00  0.00    -0.028 C  
BRANCH  23  24
HETATM   24  C   UNL     1     -11.889  10.992  69.547  1.00  0.00    -0.333 C  
BRANCH  24  25
HETATM   25  N   UNL     1     -12.522  11.848  70.515  1.00  0.00    -0.258 NA 
HETATM   26  C   UNL     1     -12.525  13.210  70.466  1.00  0.00    -0.248 A  
HETATM   27  N   UNL     1     -12.119  13.996  69.456  1.00  0.00    -0.338 NA 
HETATM   28  H2  UNL     1     -12.752  15.088  73.905  1.00  0.00     0.000 HD 
HETATM   29  H1  UNL     1     -13.343  16.529  73.379  1.00  0.00     0.000 HD 
HETATM   30  C   UNL     1     -13.015  11.466  71.733  1.00  0.00    -0.414 A  
HETATM   31  N   UNL     1     -13.296  12.505  72.490  1.00  0.00    -0.345 NA 
HETATM   32  C   UNL     1     -12.968  13.604  71.715  1.00  0.00    -0.353 A  
HETATM   33  C   UNL     1     -12.976  14.983  71.970  1.00  0.00    -0.343 A  
HETATM   34  N   UNL     1     -13.337  15.526  73.194  1.00  0.00    -0.522 NA 
HETATM   35  N   UNL     1     -12.609  15.826  70.974  1.00  0.00    -0.454 NA 
HETATM   36  C   UNL     1     -12.211  15.296  69.796  1.00  0.00    -0.294 A  
ENDBRANCH  24  25
ENDBRANCH  23  24
ENDBRANCH  22  23
ENDBRANCH  11  22
ENDBRANCH   8   9
ENDBRANCH   7   8
ENDBRANCH   5   7
ENDBRANCH   2   5
TORSDOF 12
ENDMDL
MODEL       39
REMARK 921   NORMALIZED FREE ENERGY PREDICTED BY IDOCK:   -5.82 KCAL/MOL
REMARK 922        TOTAL FREE ENERGY PREDICTED BY IDOCK:  -11.50 KCAL/MOL
REMARK 923 INTER-LIGAND FREE ENERGY PREDICTED BY IDOCK:   -9.90 KCAL/MOL
REMARK 924 INTRA-LIGAND FREE ENERGY PREDICTED BY IDOCK:   -1.61 KCAL/MOL
REMARK 927      BINDING AFFINITY PREDICTED BY RF-SCORE:    0.00 PKD
ROOT
HETATM    1  C   UNL     1      -8.095  11.016  65.849  1.00  0.00    -0.075 C  
HETATM    2  C   UNL     1      -9.265  10.441  65.026  1.00  0.00    -0.256 C  
HETATM    3  C   UNL     1      -8.707   9.879  63.714  1.00  0.00    -0.226 C  
HETATM    4  C   UNL     1      -9.919   9.314  65.840  1.00  0.00    -0.289 C  
ENDROOT
BRANCH   2   5
HETATM    5  C   UNL     1     -10.292  11.558  64.782  1.00  0.00    -0.289 C  
HETATM    6  O   UNL     1     -10.082  12.517  64.046  1.00  0.00    -0.359 OA 
BRANCH   5   7
HETATM    7  O   UNL     1     -11.416  11.424  65.541  1.00  0.00    -0.099 OA 
BRANCH   7   8
HETATM    8  C   UNL     1     -11.686  12.545  66.405  1.00  0.00    -0.397 C  
BRANCH   8   9
HETATM    9  O   UNL     1     -12.261  12.180  67.656  1.00  0.00    -0.462 OA 
HETATM   10  P   UNL     1     -11.235  12.204  68.920  1.00  0.00    -0.286 P  
HETATM   11  C   UNL     1     -10.726  13.934  69.073  1.00  0.00    -0.195 C  
HETATM   12  O   UNL     1     -10.124  11.211  68.815  1.00  0.00    -0.194 OA 
HETATM   13  O   UNL     1     -12.153  12.099  70.239  1.00  0.00    -0.339 OA 
BRANCH  13  14
HETATM   14  C   UNL     1     -12.736  10.907  70.680  1.00  0.00    -0.309 C  
BRANCH  14  15
HETATM   15  O   UNL     1     -11.832  10.240  71.593  1.00  0.00    -0.300 OA 
BRANCH  15  16
HETATM   16  C   UNL     1     -12.199   8.986  71.981  1.00  0.00    -0.375 C  
HETATM   17  O   UNL     1     -13.333   8.683  72.333  1.00  0.00    -0.371 OA 
BRANCH  16  18
HETATM   18  C   UNL     1     -11.021   7.989  71.936  1.00  0.00    -0.321 C  
HETATM   19  C   UNL     1      -9.736   8.728  71.509  1.00  0.00    -0.361 C  
HETATM   20  C   UNL     1     -11.300   6.880  70.914  1.00  0.00    -0.348 C  
HETATM   21  C   UNL     1     -10.775   7.371  73.320  1.00  0.00    -0.441 C  
ENDBRANCH  16  18
ENDBRANCH  15  16
ENDBRANCH  14  15
ENDBRANCH  13  14
BRANCH  11  22
HETATM   22  O   UNL     1     -11.952  14.650  69.242  1.00  0.00    -0.303 OA 
BRANCH  22  23
HETATM   23  C   UNL     1     -11.827  16.031  68.970  1.00  0.00    -0.252 C  
BRANCH  23  24
HETATM   24  C   UNL     1     -10.387  16.446  69.237  1.00  0.00    -0.292 C  
BRANCH  24  25
HETATM   25  N   UNL     1      -9.851  17.144  68.099  1.00  0.00    -0.269 NA 
HETATM   26  C   UNL     1      -8.600  16.960  67.591  1.00  0.00    -0.208 A  
HETATM   27  N   UNL     1      -7.714  16.003  67.914  1.00  0.00    -0.134 NA 
HETATM   28  H2  UNL     1      -6.971  20.040  65.784  1.00  0.00     0.000 HD 
HETATM   29  H1  UNL     1      -5.877  19.247  64.848  1.00  0.00     0.000 HD 
HETATM   30  C   UNL     1     -10.399  18.240  67.491  1.00  0.00    -0.398 A  
HETATM   31  N   UNL     1      -9.556  18.800  66.650  1.00  0.00    -0.323 NA 
HETATM   32  C   UNL     1      -8.414  18.021  66.724  1.00  0.00    -0.257 A  
HETATM   33  C   UNL     1      -7.150  18.128  66.127  1.00  0.00    -0.281 A  
HETATM   34  N   UNL     1      -6.797  19.170  65.282  1.00  0.00    -0.468 NA 
HETATM   35  N   UNL     1      -6.229  17.170  66.390  1.00  0.00    -0.219 NA 
HETATM   36  C   UNL     1      -6.556  16.180  67.251  1.00  0.00    -0.196 A  
ENDBRANCH  24  25
ENDBRANCH  23  24
ENDBRANCH  22  23
ENDBRANCH  11  22
ENDBRANCH   8   9
ENDBRANCH   7   8
ENDBRANCH   5   7
ENDBRANCH   2   5
TORSDOF 12
ENDMDL
MODEL       40
REMARK 921   NORMALIZED FREE ENERGY PREDICTED BY IDOCK:   -5.81 KCAL/MOL
REMARK 922        TOTAL FREE ENERGY PREDICTED BY IDOCK:  -11.49 KCAL/MOL
REMARK 923 INTER-LIGAND FREE ENERGY PREDICTED BY IDOCK:  -10.11 KCAL/MOL
REMARK 924 INTRA-LIGAND FREE ENERGY PREDICTED BY IDOCK:   -1.38 KCAL/MOL
REMARK 927      BINDING AFFINITY PREDICTED BY RF-SCORE:    0.00 PKD
ROOT
HETATM    1  C   UNL     1      -9.472   4.956  74.179  1.00  0.00    -0.130 C  
HETATM    2  C   UNL     1     -10.226   4.535  72.902  1.00  0.00    -0.228 C  
HETATM    3  C   UNL     1      -9.770   3.124  72.511  1.00  0.00    -0.206 C  
HETATM    4  C   UNL     1     -11.732   4.529  73.210  1.00  0.00    -0.164 C  
ENDROOT
BRANCH   2   5
HETATM    5  C   UNL     1      -9.935   5.560  71.795  1.00  0.00    -0.179 C  
HETATM    6  O   UNL     1      -8.814   6.004  71.566  1.00  0.00    -0.138 OA 
BRANCH   5   7
HETATM    7  O   UNL     1     -11.061   5.998  71.164  1.00  0.00    -0.277 OA 
BRANCH   7   8
HETATM    8  C   UNL     1     -10.813   6.805  69.998  1.00  0.00    -0.266 C  
BRANCH   8   9
HETATM    9  O   UNL     1     -11.419   8.094  70.052  1.00  0.00    -0.098 OA 
HETATM   10  P   UNL     1     -10.509   9.256  70.739  1.00  0.00    -0.320 P  
HETATM   11  C   UNL     1      -9.064   9.413  69.662  1.00  0.00    -0.181 C  
HETATM   12  O   UNL     1     -10.215   9.017  72.185  1.00  0.00    -0.300 OA 
HETATM   13  O   UNL     1     -11.231  10.651  70.387  1.00  0.00    -0.304 OA 
BRANCH  13  14
HETATM   14  C   UNL     1     -12.383  11.109  71.036  1.00  0.00    -0.382 C  
BRANCH  14  15
HETATM   15  O   UNL     1     -12.462  12.549  70.913  1.00  0.00    -0.365 OA 
BRANCH  15  16
HETATM   16  C   UNL     1     -13.244  13.181  71.834  1.00  0.00    -0.431 C  
HETATM   17  O   UNL     1     -14.123  12.624  72.483  1.00  0.00    -0.370 OA 
BRANCH  16  18
HETATM   18  C   UNL     1     -12.906  14.682  71.961  1.00  0.00    -0.403 C  
HETATM   19  C   UNL     1     -14.183  15.519  71.743  1.00  0.00    -0.563 C  
HETATM   20  C   UNL     1     -11.878  15.087  70.897  1.00  0.00    -0.376 C  
HETATM   21  C   UNL     1     -12.361  15.002  73.360  1.00  0.00    -0.557 C  
ENDBRANCH  16  18
ENDBRANCH  15  16
ENDBRANCH  14  15
ENDBRANCH  13  14
BRANCH  11  22
HETATM   22  O   UNL     1      -9.611   9.717  68.377  1.00  0.00    -0.145 OA 
BRANCH  22  23
HETATM   23  C   UNL     1      -8.686   9.531  67.325  1.00  0.00    -0.128 C  
BRANCH  23  24
HETATM   24  C   UNL     1      -8.242  10.900  66.826  1.00  0.00    -0.140 C  
BRANCH  24  25
HETATM   25  N   UNL     1      -9.082  11.329  65.739  1.00  0.00    -0.210 NA 
HETATM   26  C   UNL     1     -10.171  12.138  65.869  1.00  0.00    -0.244 A  
HETATM   27  N   UNL     1     -10.560  12.823  66.957  1.00  0.00    -0.240 NA 
HETATM   28  H2  UNL     1     -13.028  11.672  63.219  1.00  0.00     0.000 HD 
HETATM   29  H1  UNL     1     -13.745  13.146  63.344  1.00  0.00     0.000 HD 
HETATM   30  C   UNL     1      -9.073  10.830  64.465  1.00  0.00    -0.198 A  
HETATM   31  N   UNL     1     -10.117  11.240  63.777  1.00  0.00    -0.323 NA 
HETATM   32  C   UNL     1     -10.828  12.039  64.657  1.00  0.00    -0.309 A  
HETATM   33  C   UNL     1     -12.054  12.711  64.551  1.00  0.00    -0.417 A  
HETATM   34  N   UNL     1     -12.854  12.657  63.420  1.00  0.00    -0.659 NA 
HETATM   35  N   UNL     1     -12.478  13.448  65.607  1.00  0.00    -0.469 NA 
HETATM   36  C   UNL     1     -11.723  13.463  66.728  1.00  0.00    -0.385 A  
ENDBRANCH  24  25
ENDBRANCH  23  24
ENDBRANCH  22  23
ENDBRANCH  11  22
ENDBRANCH   8   9
ENDBRANCH   7   8
ENDBRANCH   5   7
ENDBRANCH   2   5
TORSDOF 12
ENDMDL
MODEL       41
REMARK 921   NORMALIZED FREE ENERGY PREDICTED BY IDOCK:   -5.79 KCAL/MOL
REMARK 922        TOTAL FREE ENERGY PREDICTED BY IDOCK:  -11.45 KCAL/MOL
REMARK 923 INTER-LIGAND FREE ENERGY PREDICTED BY IDOCK:  -10.23 KCAL/MOL
REMARK 924 INTRA-LIGAND FREE ENERGY PREDICTED BY IDOCK:   -1.22 KCAL/MOL
REMARK 927      BINDING AFFINITY PREDICTED BY RF-SCORE:    0.00 PKD
ROOT
HETATM    1  C   UNL     1      -8.603   5.714  68.401  1.00  0.00    -0.111 C  
HETATM    2  C   UNL     1      -9.898   6.205  67.724  1.00  0.00    -0.131 C  
HETATM    3  C   UNL     1     -10.313   5.179  66.663  1.00  0.00    -0.325 C  
HETATM    4  C   UNL     1     -10.992   6.315  68.798  1.00  0.00    -0.424 C  
ENDROOT
BRANCH   2   5
HETATM    5  C   UNL     1      -9.641   7.592  67.113  1.00  0.00    -0.161 C  
HETATM    6  O   UNL     1      -8.519   8.069  66.973  1.00  0.00    -0.117 OA 
BRANCH   5   7
HETATM    7  O   UNL     1     -10.789   8.274  66.837  1.00  0.00    -0.228 OA 
BRANCH   7   8
HETATM    8  C   UNL     1     -10.593   9.669  66.537  1.00  0.00    -0.072 C  
BRANCH   8   9
HETATM    9  O   UNL     1     -11.217  10.549  67.468  1.00  0.00    -0.320 OA 
HETATM   10  P   UNL     1     -10.231  11.657  68.138  1.00  0.00    -0.208 P  
HETATM   11  C   UNL     1      -9.674  12.682  66.755  1.00  0.00    -0.240 C  
HETATM   12  O   UNL     1      -9.147  11.068  68.983  1.00  0.00    -0.152 OA 
HETATM   13  O   UNL     1     -11.191  12.724  68.866  1.00  0.00    -0.256 OA 
BRANCH  13  14
HETATM   14  C   UNL     1     -11.824  12.484  70.089  1.00  0.00    -0.258 C  
BRANCH  14  15
HETATM   15  O   UNL     1     -12.479  13.695  70.537  1.00  0.00    -0.338 OA 
BRANCH  15  16
HETATM   16  C   UNL     1     -12.917  13.690  71.827  1.00  0.00    -0.353 C  
HETATM   17  O   UNL     1     -13.297  12.685  72.418  1.00  0.00    -0.514 OA 
BRANCH  16  18
HETATM   18  C   UNL     1     -12.892  15.098  72.461  1.00  0.00    -0.449 C  
HETATM   19  C   UNL     1     -12.659  14.975  73.981  1.00  0.00    -0.578 C  
HETATM   20  C   UNL     1     -14.232  15.808  72.236  1.00  0.00    -0.417 C  
HETATM   21  C   UNL     1     -11.751  15.941  71.873  1.00  0.00    -0.590 C  
ENDBRANCH  16  18
ENDBRANCH  15  16
ENDBRANCH  14  15
ENDBRANCH  13  14
BRANCH  11  22
HETATM   22  O   UNL     1     -10.881  13.181  66.175  1.00  0.00    -0.277 OA 
BRANCH  22  23
HETATM   23  C   UNL     1     -10.705  14.413  65.506  1.00  0.00    -0.336 C  
BRANCH  23  24
HETATM   24  C   UNL     1     -10.925  15.540  66.506  1.00  0.00    -0.243 C  
BRANCH  24  25
HETATM   25  N   UNL     1      -9.771  16.399  66.548  1.00  0.00    -0.254 NA 
HETATM   26  C   UNL     1      -9.815  17.759  66.621  1.00  0.00    -0.322 A  
HETATM   27  N   UNL     1     -10.887  18.535  66.848  1.00  0.00    -0.264 NA 
HETATM   28  H2  UNL     1      -6.799  19.700  65.027  1.00  0.00     0.000 HD 
HETATM   29  H1  UNL     1      -6.929  21.114  65.855  1.00  0.00     0.000 HD 
HETATM   30  C   UNL     1      -8.478  16.029  66.295  1.00  0.00    -0.302 A  
HETATM   31  N   UNL     1      -7.692  17.075  66.160  1.00  0.00    -0.371 NA 
HETATM   32  C   UNL     1      -8.525  18.167  66.336  1.00  0.00    -0.238 A  
HETATM   33  C   UNL     1      -8.310  19.550  66.251  1.00  0.00    -0.345 A  
HETATM   34  N   UNL     1      -7.086  20.108  65.916  1.00  0.00    -0.287 NA 
HETATM   35  N   UNL     1      -9.350  20.381  66.506  1.00  0.00    -0.276 NA 
HETATM   36  C   UNL     1     -10.556  19.838  66.786  1.00  0.00    -0.467 A  
ENDBRANCH  24  25
ENDBRANCH  23  24
ENDBRANCH  22  23
ENDBRANCH  11  22
ENDBRANCH   8   9
ENDBRANCH   7   8
ENDBRANCH   5   7
ENDBRANCH   2   5
TORSDOF 12
ENDMDL
MODEL       42
REMARK 921   NORMALIZED FREE ENERGY PREDICTED BY IDOCK:   -5.77 KCAL/MOL
REMARK 922        TOTAL FREE ENERGY PREDICTED BY IDOCK:  -11.42 KCAL/MOL
REMARK 923 INTER-LIGAND FREE ENERGY PREDICTED BY IDOCK:  -10.06 KCAL/MOL
REMARK 924 INTRA-LIGAND FREE ENERGY PREDICTED BY IDOCK:   -1.35 KCAL/MOL
REMARK 927      BINDING AFFINITY PREDICTED BY RF-SCORE:    0.00 PKD
ROOT
HETATM    1  C   UNL     1     -10.038  14.983  65.271  1.00  0.00    -0.378 C  
HETATM    2  C   UNL     1     -11.476  14.448  65.132  1.00  0.00    -0.362 C  
HETATM    3  C   UNL     1     -12.158  14.523  66.504  1.00  0.00    -0.330 C  
HETATM    4  C   UNL     1     -12.228  15.336  64.128  1.00  0.00    -0.133 C  
ENDROOT
BRANCH   2   5
HETATM    5  C   UNL     1     -11.419  13.008  64.598  1.00  0.00    -0.336 C  
HETATM    6  O   UNL     1     -10.813  12.692  63.579  1.00  0.00    -0.429 OA 
BRANCH   5   7
HETATM    7  O   UNL     1     -12.190  12.142  65.315  1.00  0.00    -0.484 OA 
BRANCH   7   8
HETATM    8  C   UNL     1     -11.445  11.224  66.137  1.00  0.00     0.188 C  
BRANCH   8   9
HETATM    9  O   UNL     1     -11.838  11.231  67.506  1.00  0.00    -0.613 OA 
HETATM   10  P   UNL     1     -10.706  10.706  68.551  1.00  0.00    -0.259 P  
HETATM   11  C   UNL     1      -9.347  11.891  68.400  1.00  0.00    -0.184 C  
HETATM   12  O   UNL     1     -10.334   9.271  68.368  1.00  0.00    -0.196 OA 
HETATM   13  O   UNL     1     -11.230  11.117  70.017  1.00  0.00    -0.259 OA 
BRANCH  13  14
HETATM   14  C   UNL     1     -12.239  10.428  70.697  1.00  0.00    -0.347 C  
BRANCH  14  15
HETATM   15  O   UNL     1     -11.642   9.420  71.547  1.00  0.00    -0.346 OA 
BRANCH  15  16
HETATM   16  C   UNL     1     -12.269   8.209  71.563  1.00  0.00    -0.301 C  
HETATM   17  O   UNL     1     -13.477   8.066  71.712  1.00  0.00    -0.337 OA 
BRANCH  16  18
HETATM   18  C   UNL     1     -11.283   7.035  71.381  1.00  0.00    -0.283 C  
HETATM   19  C   UNL     1     -11.387   6.493  69.940  1.00  0.00    -0.469 C  
HETATM   20  C   UNL     1     -11.626   5.897  72.350  1.00  0.00    -0.341 C  
HETATM   21  C   UNL     1      -9.836   7.496  71.611  1.00  0.00    -0.185 C  
ENDBRANCH  16  18
ENDBRANCH  15  16
ENDBRANCH  14  15
ENDBRANCH  13  14
BRANCH  11  22
HETATM   22  O   UNL     1      -9.945  13.156  68.700  1.00  0.00    -0.204 OA 
BRANCH  22  23
HETATM   23  C   UNL     1      -9.027  14.228  68.642  1.00  0.00    -0.154 C  
BRANCH  23  24
HETATM   24  C   UNL     1      -9.740  15.497  69.089  1.00  0.00    -0.252 C  
BRANCH  24  25
HETATM   25  N   UNL     1      -8.937  16.652  68.784  1.00  0.00    -0.248 NA 
HETATM   26  C   UNL     1      -9.398  17.784  68.183  1.00  0.00    -0.281 A  
HETATM   27  N   UNL     1     -10.674  18.119  67.931  1.00  0.00    -0.370 NA 
HETATM   28  H2  UNL     1      -6.806  19.818  66.051  1.00  0.00     0.000 HD 
HETATM   29  H1  UNL     1      -7.542  21.288  66.076  1.00  0.00     0.000 HD 
HETATM   30  C   UNL     1      -7.571  16.721  68.831  1.00  0.00    -0.239 A  
HETATM   31  N   UNL     1      -7.122  17.817  68.257  1.00  0.00    -0.221 NA 
HETATM   32  C   UNL     1      -8.258  18.478  67.823  1.00  0.00    -0.251 A  
HETATM   33  C   UNL     1      -8.449  19.658  67.090  1.00  0.00    -0.304 A  
HETATM   34  N   UNL     1      -7.402  20.430  66.608  1.00  0.00    -0.274 NA 
HETATM   35  N   UNL     1      -9.718  20.063  66.837  1.00  0.00    -0.396 NA 
HETATM   36  C   UNL     1     -10.739  19.287  67.264  1.00  0.00    -0.488 A  
ENDBRANCH  24  25
ENDBRANCH  23  24
ENDBRANCH  22  23
ENDBRANCH  11  22
ENDBRANCH   8   9
ENDBRANCH   7   8
ENDBRANCH   5   7
ENDBRANCH   2   5
TORSDOF 12
ENDMDL
MODEL       43
REMARK 921   NORMALIZED FREE ENERGY PREDICTED BY IDOCK:   -5.77 KCAL/MOL
REMARK 922        TOTAL FREE ENERGY PREDICTED BY IDOCK:  -11.41 KCAL/MOL
REMARK 923 INTER-LIGAND FREE ENERGY PREDICTED BY IDOCK:  -10.09 KCAL/MOL
REMARK 924 INTRA-LIGAND FREE ENERGY PREDICTED BY IDOCK:   -1.32 KCAL/MOL
REMARK 927      BINDING AFFINITY PREDICTED BY RF-SCORE:    0.00 PKD
ROOT
HETATM    1  C   UNL     1      -9.735  20.462  66.547  1.00  0.00    -0.449 C  
HETATM    2  C   UNL     1      -9.437  19.000  66.933  1.00  0.00    -0.355 C  
HETATM    3  C   UNL     1      -7.986  18.683  66.554  1.00  0.00    -0.296 C  
HETATM    4  C   UNL     1      -9.624  18.853  68.451  1.00  0.00    -0.420 C  
ENDROOT
BRANCH   2   5
HETATM    5  C   UNL     1     -10.434  18.084  66.204  1.00  0.00    -0.331 C  
HETATM    6  O   UNL     1     -10.839  18.300  65.066  1.00  0.00    -0.679 OA 
BRANCH   5   7
HETATM    7  O   UNL     1     -10.895  17.068  66.987  1.00  0.00    -0.200 OA 
BRANCH   7   8
HETATM    8  C   UNL     1     -10.479  15.756  66.563  1.00  0.00    -0.303 C  
BRANCH   8   9
HETATM    9  O   UNL     1     -10.754  14.732  67.514  1.00  0.00    -0.260 OA 
HETATM   10  P   UNL     1     -11.376  13.362  66.893  1.00  0.00    -0.356 P  
HETATM   11  C   UNL     1     -10.085  12.717  65.802  1.00  0.00    -0.286 C  
HETATM   12  O   UNL     1     -12.721  13.539  66.267  1.00  0.00    -0.302 OA 
HETATM   13  O   UNL     1     -11.282  12.261  68.064  1.00  0.00    -0.233 OA 
BRANCH  13  14
HETATM   14  C   UNL     1     -12.159  12.216  69.152  1.00  0.00    -0.168 C  
BRANCH  14  15
HETATM   15  O   UNL     1     -11.853  13.301  70.059  1.00  0.00    -0.319 OA 
BRANCH  15  16
HETATM   16  C   UNL     1     -12.611  13.361  71.191  1.00  0.00    -0.345 C  
HETATM   17  O   UNL     1     -13.099  12.380  71.740  1.00  0.00    -0.416 OA 
BRANCH  16  18
HETATM   18  C   UNL     1     -12.795  14.807  71.699  1.00  0.00    -0.405 C  
HETATM   19  C   UNL     1     -14.278  15.213  71.573  1.00  0.00    -0.647 C  
HETATM   20  C   UNL     1     -11.957  15.778  70.858  1.00  0.00    -0.453 C  
HETATM   21  C   UNL     1     -12.395  14.922  73.178  1.00  0.00    -0.473 C  
ENDBRANCH  16  18
ENDBRANCH  15  16
ENDBRANCH  14  15
ENDBRANCH  13  14
BRANCH  11  22
HETATM   22  O   UNL     1      -8.946  12.563  66.653  1.00  0.00    -0.216 OA 
BRANCH  22  23
HETATM   23  C   UNL     1      -8.320  11.304  66.517  1.00  0.00    -0.168 C  
BRANCH  23  24
HETATM   24  C   UNL     1      -9.195  10.425  65.634  1.00  0.00    -0.182 C  
BRANCH  24  25
HETATM   25  N   UNL     1      -9.443   9.162  66.280  1.00  0.00    -0.216 NA 
HETATM   26  C   UNL     1      -8.891   7.975  65.905  1.00  0.00    -0.153 A  
HETATM   27  N   UNL     1      -7.904   7.771  65.017  1.00  0.00    -0.118 NA 
HETATM   28  H2  UNL     1     -10.994   4.748  66.659  1.00  0.00     0.000 HD 
HETATM   29  H1  UNL     1      -9.782   3.637  66.657  1.00  0.00     0.000 HD 
HETATM   30  C   UNL     1     -10.420   8.905  67.203  1.00  0.00    -0.274 A  
HETATM   31  N   UNL     1     -10.558   7.613  67.414  1.00  0.00    -0.289 NA 
HETATM   32  C   UNL     1      -9.622   7.019  66.585  1.00  0.00    -0.167 A  
HETATM   33  C   UNL     1      -9.318   5.679  66.303  1.00  0.00    -0.157 A  
HETATM   34  N   UNL     1     -10.004   4.612  66.862  1.00  0.00    -0.212 NA 
HETATM   35  N   UNL     1      -8.306   5.415  65.441  1.00  0.00    -0.133 NA 
HETATM   36  C   UNL     1      -7.668   6.455  64.859  1.00  0.00    -0.104 A  
ENDBRANCH  24  25
ENDBRANCH  23  24
ENDBRANCH  22  23
ENDBRANCH  11  22
ENDBRANCH   8   9
ENDBRANCH   7   8
ENDBRANCH   5   7
ENDBRANCH   2   5
TORSDOF 12
ENDMDL
MODEL       44
REMARK 921   NORMALIZED FREE ENERGY PREDICTED BY IDOCK:   -5.76 KCAL/MOL
REMARK 922        TOTAL FREE ENERGY PREDICTED BY IDOCK:  -11.40 KCAL/MOL
REMARK 923 INTER-LIGAND FREE ENERGY PREDICTED BY IDOCK:  -10.33 KCAL/MOL
REMARK 924 INTRA-LIGAND FREE ENERGY PREDICTED BY IDOCK:   -1.07 KCAL/MOL
REMARK 927      BINDING AFFINITY PREDICTED BY RF-SCORE:    0.00 PKD
ROOT
HETATM    1  C   UNL     1      -7.906  19.811  66.314  1.00  0.00    -0.340 C  
HETATM    2  C   UNL     1      -9.190  19.266  66.970  1.00  0.00    -0.357 C  
HETATM    3  C   UNL     1      -9.227  19.735  68.430  1.00  0.00    -0.370 C  
HETATM    4  C   UNL     1     -10.399  19.833  66.210  1.00  0.00    -0.626 C  
ENDROOT
BRANCH   2   5
HETATM    5  C   UNL     1      -9.189  17.734  66.860  1.00  0.00    -0.258 C  
HETATM    6  O   UNL     1      -8.799  17.130  65.865  1.00  0.00    -0.520 OA 
BRANCH   5   7
HETATM    7  O   UNL     1      -9.758  17.121  67.936  1.00  0.00    -0.258 OA 
BRANCH   7   8
HETATM    8  C   UNL     1     -10.945  16.365  67.630  1.00  0.00    -0.225 C  
BRANCH   8   9
HETATM    9  O   UNL     1     -10.688  15.004  67.295  1.00  0.00    -0.285 OA 
HETATM   10  P   UNL     1      -9.790  14.184  68.378  1.00  0.00    -0.216 P  
HETATM   11  C   UNL     1     -10.786  14.162  69.887  1.00  0.00     0.133 C  
HETATM   12  O   UNL     1      -8.399  14.709  68.530  1.00  0.00    -0.149 OA 
HETATM   13  O   UNL     1      -9.917  12.631  67.975  1.00  0.00    -0.207 OA 
BRANCH  13  14
HETATM   14  C   UNL     1      -9.230  12.053  66.903  1.00  0.00    -0.197 C  
BRANCH  14  15
HETATM   15  O   UNL     1     -10.143  11.237  66.131  1.00  0.00    -0.220 OA 
BRANCH  15  16
HETATM   16  C   UNL     1     -11.302  11.844  65.747  1.00  0.00    -0.299 C  
HETATM   17  O   UNL     1     -12.277  11.981  66.477  1.00  0.00    -0.548 OA 
BRANCH  16  18
HETATM   18  C   UNL     1     -11.252  12.332  64.283  1.00  0.00    -0.409 C  
HETATM   19  C   UNL     1     -10.089  11.637  63.547  1.00  0.00    -0.455 C  
HETATM   20  C   UNL     1     -11.015  13.847  64.235  1.00  0.00    -0.219 C  
HETATM   21  C   UNL     1     -12.554  11.985  63.547  1.00  0.00    -0.625 C  
ENDBRANCH  16  18
ENDBRANCH  15  16
ENDBRANCH  14  15
ENDBRANCH  13  14
BRANCH  11  22
HETATM   22  O   UNL     1     -12.015  13.547  69.492  1.00  0.00    -0.311 OA 
BRANCH  22  23
HETATM   23  C   UNL     1     -12.530  12.664  70.468  1.00  0.00    -0.193 C  
BRANCH  23  24
HETATM   24  C   UNL     1     -12.501  11.251  69.903  1.00  0.00    -0.153 C  
BRANCH  24  25
HETATM   25  N   UNL     1     -12.303  10.296  70.962  1.00  0.00    -0.347 NA 
HETATM   26  C   UNL     1     -11.165   9.573  71.155  1.00  0.00    -0.376 A  
HETATM   27  N   UNL     1      -9.979   9.728  70.543  1.00  0.00    -0.248 NA 
HETATM   28  H2  UNL     1     -11.584   6.069  72.873  1.00  0.00     0.000 HD 
HETATM   29  H1  UNL     1     -10.057   5.876  73.453  1.00  0.00     0.000 HD 
HETATM   30  C   UNL     1     -13.271   9.796  71.789  1.00  0.00    -0.436 A  
HETATM   31  N   UNL     1     -12.833   8.763  72.477  1.00  0.00    -0.375 NA 
HETATM   32  C   UNL     1     -11.520   8.597  72.067  1.00  0.00    -0.367 A  
HETATM   33  C   UNL     1     -10.542   7.642  72.377  1.00  0.00    -0.260 A  
HETATM   34  N   UNL     1     -10.770   6.571  73.228  1.00  0.00    -0.271 NA 
HETATM   35  N   UNL     1      -9.315   7.769  71.815  1.00  0.00    -0.137 NA 
HETATM   36  C   UNL     1      -9.106   8.785  70.947  1.00  0.00    -0.208 A  
ENDBRANCH  24  25
ENDBRANCH  23  24
ENDBRANCH  22  23
ENDBRANCH  11  22
ENDBRANCH   8   9
ENDBRANCH   7   8
ENDBRANCH   5   7
ENDBRANCH   2   5
TORSDOF 12
ENDMDL
MODEL       45
REMARK 921   NORMALIZED FREE ENERGY PREDICTED BY IDOCK:   -5.74 KCAL/MOL
REMARK 922        TOTAL FREE ENERGY PREDICTED BY IDOCK:  -11.37 KCAL/MOL
REMARK 923 INTER-LIGAND FREE ENERGY PREDICTED BY IDOCK:  -10.27 KCAL/MOL
REMARK 924 INTRA-LIGAND FREE ENERGY PREDICTED BY IDOCK:   -1.10 KCAL/MOL
REMARK 927      BINDING AFFINITY PREDICTED BY RF-SCORE:    0.00 PKD
ROOT
HETATM    1  C   UNL     1      -9.259   9.968  63.461  1.00  0.00    -0.315 C  
HETATM    2  C   UNL     1      -8.239   8.906  63.916  1.00  0.00    -0.171 C  
HETATM    3  C   UNL     1      -8.117   7.844  62.816  1.00  0.00    -0.130 C  
HETATM    4  C   UNL     1      -6.882   9.597  64.124  1.00  0.00    -0.113 C  
ENDROOT
BRANCH   2   5
HETATM    5  C   UNL     1      -8.714   8.302  65.247  1.00  0.00    -0.086 C  
HETATM    6  O   UNL     1      -8.198   7.314  65.760  1.00  0.00    -0.121 OA 
BRANCH   5   7
HETATM    7  O   UNL     1      -9.826   8.914  65.743  1.00  0.00    -0.226 OA 
BRANCH   7   8
HETATM    8  C   UNL     1     -10.090   8.630  67.130  1.00  0.00    -0.261 C  
BRANCH   8   9
HETATM    9  O   UNL     1     -10.925   9.595  67.765  1.00  0.00    -0.260 OA 
HETATM   10  P   UNL     1     -10.148  10.898  68.356  1.00  0.00    -0.200 P  
HETATM   11  C   UNL     1      -9.433  11.710  66.906  1.00  0.00    -0.185 C  
HETATM   12  O   UNL     1      -9.189  10.581  69.457  1.00  0.00    -0.158 OA 
HETATM   13  O   UNL     1     -11.292  11.976  68.705  1.00  0.00    -0.229 OA 
BRANCH  13  14
HETATM   14  C   UNL     1     -12.108  11.895  69.837  1.00  0.00    -0.272 C  
BRANCH  14  15
HETATM   15  O   UNL     1     -12.348  13.227  70.351  1.00  0.00    -0.333 OA 
BRANCH  15  16
HETATM   16  C   UNL     1     -12.926  13.292  71.584  1.00  0.00    -0.349 C  
HETATM   17  O   UNL     1     -13.357  12.318  72.190  1.00  0.00    -0.526 OA 
BRANCH  16  18
HETATM   18  C   UNL     1     -12.988  14.735  72.128  1.00  0.00    -0.415 C  
HETATM   19  C   UNL     1     -12.715  14.726  73.647  1.00  0.00    -0.511 C  
HETATM   20  C   UNL     1     -14.380  15.334  71.894  1.00  0.00    -0.691 C  
HETATM   21  C   UNL     1     -11.923  15.617  71.460  1.00  0.00    -0.482 C  
ENDBRANCH  16  18
ENDBRANCH  15  16
ENDBRANCH  14  15
ENDBRANCH  13  14
BRANCH  11  22
HETATM   22  O   UNL     1     -10.554  11.975  66.059  1.00  0.00    -0.251 OA 
BRANCH  22  23
HETATM   23  C   UNL     1     -10.454  13.210  65.380  1.00  0.00    -0.296 C  
BRANCH  23  24
HETATM   24  C   UNL     1     -10.178  14.302  66.405  1.00  0.00    -0.291 C  
BRANCH  24  25
HETATM   25  N   UNL     1     -10.374  15.600  65.813  1.00  0.00    -0.339 NA 
HETATM   26  C   UNL     1     -10.009  16.780  66.387  1.00  0.00    -0.304 A  
HETATM   27  N   UNL     1      -9.256  16.961  67.484  1.00  0.00    -0.222 NA 
HETATM   28  H2  UNL     1     -12.135  19.933  65.420  1.00  0.00     0.000 HD 
HETATM   29  H1  UNL     1     -11.040  21.108  65.773  1.00  0.00     0.000 HD 
HETATM   30  C   UNL     1     -11.145  15.880  64.718  1.00  0.00    -0.384 A  
HETATM   31  N   UNL     1     -11.331  17.175  64.575  1.00  0.00    -0.926 NA 
HETATM   32  C   UNL     1     -10.645  17.748  65.633  1.00  0.00    -0.123 A  
HETATM   33  C   UNL     1     -10.511  19.073  66.072  1.00  0.00    -0.458 A  
HETATM   34  N   UNL     1     -11.138  20.144  65.453  1.00  0.00    -0.059 NA 
HETATM   35  N   UNL     1      -9.733  19.318  67.154  1.00  0.00    -0.319 NA 
HETATM   36  C   UNL     1      -9.160  18.270  67.787  1.00  0.00    -0.267 A  
ENDBRANCH  24  25
ENDBRANCH  23  24
ENDBRANCH  22  23
ENDBRANCH  11  22
ENDBRANCH   8   9
ENDBRANCH   7   8
ENDBRANCH   5   7
ENDBRANCH   2   5
TORSDOF 12
ENDMDL
MODEL       46
REMARK 921   NORMALIZED FREE ENERGY PREDICTED BY IDOCK:   -5.71 KCAL/MOL
REMARK 922        TOTAL FREE ENERGY PREDICTED BY IDOCK:  -11.32 KCAL/MOL
REMARK 923 INTER-LIGAND FREE ENERGY PREDICTED BY IDOCK:  -10.17 KCAL/MOL
REMARK 924 INTRA-LIGAND FREE ENERGY PREDICTED BY IDOCK:   -1.14 KCAL/MOL
REMARK 927      BINDING AFFINITY PREDICTED BY RF-SCORE:    0.00 PKD
ROOT
HETATM    1  C   UNL     1     -13.883  13.421  72.684  1.00  0.00    -0.448 C  
HETATM    2  C   UNL     1     -13.113  14.354  71.729  1.00  0.00    -0.428 C  
HETATM    3  C   UNL     1     -14.077  15.431  71.217  1.00  0.00    -0.463 C  
HETATM    4  C   UNL     1     -11.968  15.012  72.515  1.00  0.00    -0.432 C  
ENDROOT
BRANCH   2   5
HETATM    5  C   UNL     1     -12.529  13.514  70.582  1.00  0.00    -0.333 C  
HETATM    6  O   UNL     1     -12.280  12.317  70.684  1.00  0.00    -0.371 OA 
BRANCH   5   7
HETATM    7  O   UNL     1     -12.225  14.256  69.479  1.00  0.00    -0.323 OA 
BRANCH   7   8
HETATM    8  C   UNL     1     -11.902  13.477  68.312  1.00  0.00    -0.366 C  
BRANCH   8   9
HETATM    9  O   UNL     1     -11.070  14.161  67.379  1.00  0.00    -0.291 OA 
HETATM   10  P   UNL     1      -9.528  14.371  67.854  1.00  0.00    -0.228 P  
HETATM   11  C   UNL     1      -8.857  12.699  68.011  1.00  0.00    -0.195 C  
HETATM   12  O   UNL     1      -9.381  15.242  69.059  1.00  0.00    -0.205 OA 
HETATM   13  O   UNL     1      -8.719  14.840  66.543  1.00  0.00    -0.232 OA 
BRANCH  13  14
HETATM   14  C   UNL     1      -8.780  16.136  66.021  1.00  0.00    -0.246 C  
BRANCH  14  15
HETATM   15  O   UNL     1      -9.672  16.937  66.831  1.00  0.00    -0.242 OA 
BRANCH  15  16
HETATM   16  C   UNL     1      -9.964  18.177  66.344  1.00  0.00    -0.376 C  
HETATM   17  O   UNL     1     -10.709  18.380  65.392  1.00  0.00    -0.594 OA 
BRANCH  16  18
HETATM   18  C   UNL     1      -9.240  19.298  67.120  1.00  0.00    -0.354 C  
HETATM   19  C   UNL     1      -8.879  18.797  68.533  1.00  0.00    -0.378 C  
HETATM   20  C   UNL     1     -10.152  20.522  67.262  1.00  0.00    -0.439 C  
HETATM   21  C   UNL     1      -7.937  19.699  66.412  1.00  0.00    -0.332 C  
ENDBRANCH  16  18
ENDBRANCH  15  16
ENDBRANCH  14  15
ENDBRANCH  13  14
BRANCH  11  22
HETATM   22  O   UNL     1      -9.044  12.118  66.718  1.00  0.00    -0.196 OA 
BRANCH  22  23
HETATM   23  C   UNL     1      -9.106  10.708  66.749  1.00  0.00    -0.152 C  
BRANCH  23  24
HETATM   24  C   UNL     1     -10.554  10.294  66.972  1.00  0.00    -0.239 C  
BRANCH  24  25
HETATM   25  N   UNL     1     -10.610   9.007  67.614  1.00  0.00    -0.255 NA 
HETATM   26  C   UNL     1     -10.525   8.803  68.959  1.00  0.00    -0.203 A  
HETATM   27  N   UNL     1     -10.560   9.727  69.933  1.00  0.00    -0.245 NA 
HETATM   28  H2  UNL     1      -9.020   5.371  70.122  1.00  0.00     0.000 HD 
HETATM   29  H1  UNL     1      -9.668   5.297  71.631  1.00  0.00     0.000 HD 
HETATM   30  C   UNL     1     -10.526   7.790  66.994  1.00  0.00    -0.349 A  
HETATM   31  N   UNL     1     -10.351   6.816  67.861  1.00  0.00    -0.177 NA 
HETATM   32  C   UNL     1     -10.321   7.443  69.095  1.00  0.00    -0.208 A  
HETATM   33  C   UNL     1     -10.103   6.969  70.397  1.00  0.00    -0.187 A  
HETATM   34  N   UNL     1      -9.826   5.642  70.684  1.00  0.00    -0.179 NA 
HETATM   35  N   UNL     1     -10.162   7.853  71.423  1.00  0.00    -0.189 NA 
HETATM   36  C   UNL     1     -10.383   9.156  71.140  1.00  0.00    -0.317 A  
ENDBRANCH  24  25
ENDBRANCH  23  24
ENDBRANCH  22  23
ENDBRANCH  11  22
ENDBRANCH   8   9
ENDBRANCH   7   8
ENDBRANCH   5   7
ENDBRANCH   2   5
TORSDOF 12
ENDMDL
MODEL       47
REMARK 921   NORMALIZED FREE ENERGY PREDICTED BY IDOCK:   -5.71 KCAL/MOL
REMARK 922        TOTAL FREE ENERGY PREDICTED BY IDOCK:  -11.31 KCAL/MOL
REMARK 923 INTER-LIGAND FREE ENERGY PREDICTED BY IDOCK:   -9.79 KCAL/MOL
REMARK 924 INTRA-LIGAND FREE ENERGY PREDICTED BY IDOCK:   -1.52 KCAL/MOL
REMARK 927      BINDING AFFINITY PREDICTED BY RF-SCORE:    0.00 PKD
ROOT
HETATM    1  C   UNL     1      -8.423  19.035  66.418  1.00  0.00    -0.312 C  
HETATM    2  C   UNL     1      -9.945  18.825  66.533  1.00  0.00    -0.415 C  
HETATM    3  C   UNL     1     -10.353  19.010  67.999  1.00  0.00    -0.472 C  
HETATM    4  C   UNL     1     -10.645  19.878  65.660  1.00  0.00    -0.431 C  
ENDROOT
BRANCH   2   5
HETATM    5  C   UNL     1     -10.291  17.420  66.014  1.00  0.00    -0.304 C  
HETATM    6  O   UNL     1     -10.945  17.220  64.995  1.00  0.00    -0.648 OA 
BRANCH   5   7
HETATM    7  O   UNL     1      -9.883  16.426  66.853  1.00  0.00    -0.246 OA 
BRANCH   7   8
HETATM    8  C   UNL     1     -10.952  15.616  67.377  1.00  0.00    -0.293 C  
BRANCH   8   9
HETATM    9  O   UNL     1     -11.151  14.398  66.667  1.00  0.00    -0.311 OA 
HETATM   10  P   UNL     1     -10.133  13.192  67.066  1.00  0.00    -0.249 P  
HETATM   11  C   UNL     1     -10.490  12.837  68.803  1.00  0.00    -0.156 C  
HETATM   12  O   UNL     1      -8.702  13.479  66.746  1.00  0.00    -0.188 OA 
HETATM   13  O   UNL     1     -10.748  11.856  66.410  1.00  0.00    -0.246 OA 
BRANCH  13  14
HETATM   14  C   UNL     1     -10.648  11.548  65.049  1.00  0.00    -0.297 C  
BRANCH  14  15
HETATM   15  O   UNL     1     -10.233  10.170  64.899  1.00  0.00    -0.300 OA 
BRANCH  15  16
HETATM   16  C   UNL     1      -8.954   9.890  65.279  1.00  0.00    -0.191 C  
HETATM   17  O   UNL     1      -7.961  10.388  64.761  1.00  0.00    -0.152 OA 
BRANCH  16  18
HETATM   18  C   UNL     1      -8.895   8.866  66.433  1.00  0.00    -0.178 C  
HETATM   19  C   UNL     1     -10.315   8.343  66.731  1.00  0.00    -0.357 C  
HETATM   20  C   UNL     1      -8.348   9.526  67.704  1.00  0.00    -0.125 C  
HETATM   21  C   UNL     1      -8.018   7.664  66.052  1.00  0.00    -0.112 C  
ENDBRANCH  16  18
ENDBRANCH  15  16
ENDBRANCH  14  15
ENDBRANCH  13  14
BRANCH  11  22
HETATM   22  O   UNL     1     -11.884  12.518  68.821  1.00  0.00    -0.306 OA 
BRANCH  22  23
HETATM   23  C   UNL     1     -12.228  11.603  69.841  1.00  0.00    -0.239 C  
BRANCH  23  24
HETATM   24  C   UNL     1     -11.191  10.490  69.860  1.00  0.00    -0.307 C  
BRANCH  24  25
HETATM   25  N   UNL     1     -11.286   9.742  71.087  1.00  0.00    -0.370 NA 
HETATM   26  C   UNL     1     -10.250   9.086  71.681  1.00  0.00    -0.348 A  
HETATM   27  N   UNL     1      -8.947   9.151  71.364  1.00  0.00    -0.318 NA 
HETATM   28  H2  UNL     1     -11.173   5.937  73.833  1.00  0.00     0.000 HD 
HETATM   29  H1  UNL     1      -9.843   5.878  74.797  1.00  0.00     0.000 HD 
HETATM   30  C   UNL     1     -12.441   9.379  71.724  1.00  0.00    -0.391 A  
HETATM   31  N   UNL     1     -12.214   8.493  72.670  1.00  0.00    -0.326 NA 
HETATM   32  C   UNL     1     -10.846   8.282  72.634  1.00  0.00    -0.311 A  
HETATM   33  C   UNL     1     -10.000   7.415  73.340  1.00  0.00    -0.314 A  
HETATM   34  N   UNL     1     -10.459   6.508  74.284  1.00  0.00    -0.283 NA 
HETATM   35  N   UNL     1      -8.669   7.463  73.086  1.00  0.00    -0.134 NA 
HETATM   36  C   UNL     1      -8.226   8.312  72.132  1.00  0.00    -0.157 A  
ENDBRANCH  24  25
ENDBRANCH  23  24
ENDBRANCH  22  23
ENDBRANCH  11  22
ENDBRANCH   8   9
ENDBRANCH   7   8
ENDBRANCH   5   7
ENDBRANCH   2   5
TORSDOF 12
ENDMDL
MODEL       48
REMARK 921   NORMALIZED FREE ENERGY PREDICTED BY IDOCK:   -5.71 KCAL/MOL
REMARK 922        TOTAL FREE ENERGY PREDICTED BY IDOCK:  -11.31 KCAL/MOL
REMARK 923 INTER-LIGAND FREE ENERGY PREDICTED BY IDOCK:  -10.08 KCAL/MOL
REMARK 924 INTRA-LIGAND FREE ENERGY PREDICTED BY IDOCK:   -1.23 KCAL/MOL
REMARK 927      BINDING AFFINITY PREDICTED BY RF-SCORE:    0.00 PKD
ROOT
HETATM    1  C   UNL     1     -12.547  14.813  73.633  1.00  0.00    -0.527 C  
HETATM    2  C   UNL     1     -12.895  15.147  72.170  1.00  0.00    -0.426 C  
HETATM    3  C   UNL     1     -14.373  15.549  72.100  1.00  0.00    -0.598 C  
HETATM    4  C   UNL     1     -12.014  16.323  71.719  1.00  0.00    -0.473 C  
ENDROOT
BRANCH   2   5
HETATM    5  C   UNL     1     -12.593  13.919  71.297  1.00  0.00    -0.371 C  
HETATM    6  O   UNL     1     -13.072  12.808  71.508  1.00  0.00    -0.372 OA 
BRANCH   5   7
HETATM    7  O   UNL     1     -11.664  14.166  70.331  1.00  0.00    -0.285 OA 
BRANCH   7   8
HETATM    8  C   UNL     1     -11.899  13.473  69.090  1.00  0.00    -0.340 C  
BRANCH   8   9
HETATM    9  O   UNL     1     -10.744  12.822  68.569  1.00  0.00    -0.241 OA 
HETATM   10  P   UNL     1     -11.003  11.914  67.243  1.00  0.00    -0.304 P  
HETATM   11  C   UNL     1     -11.549  13.085  65.976  1.00  0.00    -0.365 C  
HETATM   12  O   UNL     1     -11.908  10.748  67.477  1.00  0.00    -0.451 OA 
HETATM   13  O   UNL     1      -9.547  11.569  66.649  1.00  0.00    -0.190 OA 
BRANCH  13  14
HETATM   14  C   UNL     1      -8.700  10.602  67.199  1.00  0.00    -0.130 C  
BRANCH  14  15
HETATM   15  O   UNL     1      -9.166   9.285  66.821  1.00  0.00    -0.138 OA 
BRANCH  15  16
HETATM   16  C   UNL     1      -8.392   8.240  67.232  1.00  0.00    -0.124 C  
HETATM   17  O   UNL     1      -7.218   8.092  66.913  1.00  0.00    -0.080 OA 
BRANCH  16  18
HETATM   18  C   UNL     1      -9.164   7.257  68.137  1.00  0.00    -0.132 C  
HETATM   19  C   UNL     1     -10.572   7.016  67.554  1.00  0.00    -0.351 C  
HETATM   20  C   UNL     1      -9.320   7.840  69.547  1.00  0.00    -0.149 C  
HETATM   21  C   UNL     1      -8.444   5.902  68.211  1.00  0.00    -0.114 C  
ENDBRANCH  16  18
ENDBRANCH  15  16
ENDBRANCH  14  15
ENDBRANCH  13  14
BRANCH  11  22
HETATM   22  O   UNL     1     -10.485  14.036  65.891  1.00  0.00    -0.292 OA 
BRANCH  22  23
HETATM   23  C   UNL     1     -10.942  15.368  65.778  1.00  0.00    -0.309 C  
BRANCH  23  24
HETATM   24  C   UNL     1     -10.605  16.103  67.067  1.00  0.00    -0.292 C  
BRANCH  24  25
HETATM   25  N   UNL     1      -9.918  17.334  66.773  1.00  0.00    -0.288 NA 
HETATM   26  C   UNL     1      -8.812  17.783  67.427  1.00  0.00    -0.240 A  
HETATM   27  N   UNL     1      -8.055  17.117  68.315  1.00  0.00    -0.230 NA 
HETATM   28  H2  UNL     1      -8.320  21.674  67.574  1.00  0.00     0.000 HD 
HETATM   29  H1  UNL     1      -6.698  21.725  67.834  1.00  0.00     0.000 HD 
HETATM   30  C   UNL     1     -10.376  18.342  65.969  1.00  0.00    -0.375 A  
HETATM   31  N   UNL     1      -9.650  19.432  66.100  1.00  0.00    -0.381 NA 
HETATM   32  C   UNL     1      -8.682  19.102  67.032  1.00  0.00    -0.294 A  
HETATM   33  C   UNL     1      -7.658  19.841  67.642  1.00  0.00    -0.282 A  
HETATM   34  N   UNL     1      -7.443  21.187  67.391  1.00  0.00    -0.398 NA 
HETATM   35  N   UNL     1      -6.841  19.209  68.520  1.00  0.00    -0.266 NA 
HETATM   36  C   UNL     1      -7.080  17.909  68.801  1.00  0.00    -0.268 A  
ENDBRANCH  24  25
ENDBRANCH  23  24
ENDBRANCH  22  23
ENDBRANCH  11  22
ENDBRANCH   8   9
ENDBRANCH   7   8
ENDBRANCH   5   7
ENDBRANCH   2   5
TORSDOF 12
ENDMDL
MODEL       49
REMARK 921   NORMALIZED FREE ENERGY PREDICTED BY IDOCK:   -5.69 KCAL/MOL
REMARK 922        TOTAL FREE ENERGY PREDICTED BY IDOCK:  -11.28 KCAL/MOL
REMARK 923 INTER-LIGAND FREE ENERGY PREDICTED BY IDOCK:  -10.04 KCAL/MOL
REMARK 924 INTRA-LIGAND FREE ENERGY PREDICTED BY IDOCK:   -1.24 KCAL/MOL
REMARK 927      BINDING AFFINITY PREDICTED BY RF-SCORE:    0.00 PKD
ROOT
HETATM    1  C   UNL     1      -7.434   4.784  68.106  1.00  0.00    -0.074 C  
HETATM    2  C   UNL     1      -8.878   5.304  67.965  1.00  0.00    -0.106 C  
HETATM    3  C   UNL     1      -9.809   4.104  67.755  1.00  0.00    -0.108 C  
HETATM    4  C   UNL     1      -9.256   6.036  69.262  1.00  0.00    -0.133 C  
ENDROOT
BRANCH   2   5
HETATM    5  C   UNL     1      -8.936   6.289  66.786  1.00  0.00    -0.125 C  
HETATM    6  O   UNL     1      -8.096   6.320  65.892  1.00  0.00    -0.111 OA 
BRANCH   5   7
HETATM    7  O   UNL     1      -9.957   7.185  66.891  1.00  0.00    -0.194 OA 
BRANCH   7   8
HETATM    8  C   UNL     1      -9.533   8.552  67.051  1.00  0.00    -0.173 C  
BRANCH   8   9
HETATM    9  O   UNL     1     -10.494   9.379  67.701  1.00  0.00    -0.238 OA 
HETATM   10  P   UNL     1     -10.025  10.918  67.951  1.00  0.00    -0.187 P  
HETATM   11  C   UNL     1      -9.790  11.607  66.295  1.00  0.00    -0.219 C  
HETATM   12  O   UNL     1      -8.860  11.051  68.877  1.00  0.00    -0.164 OA 
HETATM   13  O   UNL     1     -11.354  11.725  68.368  1.00  0.00    -0.224 OA 
BRANCH  13  14
HETATM   14  C   UNL     1     -11.935  11.651  69.638  1.00  0.00    -0.324 C  
BRANCH  14  15
HETATM   15  O   UNL     1     -11.927  12.964  70.247  1.00  0.00    -0.341 OA 
BRANCH  15  16
HETATM   16  C   UNL     1     -12.782  13.137  71.294  1.00  0.00    -0.306 C  
HETATM   17  O   UNL     1     -13.394  12.224  71.837  1.00  0.00    -0.463 OA 
BRANCH  16  18
HETATM   18  C   UNL     1     -12.902  14.618  71.715  1.00  0.00    -0.402 C  
HETATM   19  C   UNL     1     -14.215  15.207  71.161  1.00  0.00    -0.433 C  
HETATM   20  C   UNL     1     -11.732  15.430  71.146  1.00  0.00    -0.418 C  
HETATM   21  C   UNL     1     -12.931  14.750  73.245  1.00  0.00    -0.608 C  
ENDBRANCH  16  18
ENDBRANCH  15  16
ENDBRANCH  14  15
ENDBRANCH  13  14
BRANCH  11  22
HETATM   22  O   UNL     1     -11.056  11.430  65.654  1.00  0.00    -0.243 OA 
BRANCH  22  23
HETATM   23  C   UNL     1     -11.418  12.522  64.835  1.00  0.00    -0.325 C  
BRANCH  23  24
HETATM   24  C   UNL     1     -11.988  13.621  65.722  1.00  0.00    -0.395 C  
BRANCH  24  25
HETATM   25  N   UNL     1     -11.344  14.875  65.436  1.00  0.00    -0.349 NA 
HETATM   26  C   UNL     1     -10.558  15.564  66.310  1.00  0.00    -0.307 A  
HETATM   27  N   UNL     1     -10.090  15.147  67.498  1.00  0.00    -0.231 NA 
HETATM   28  H2  UNL     1     -10.458  19.464  65.880  1.00  0.00     0.000 HD 
HETATM   29  H1  UNL     1      -9.025  19.774  66.623  1.00  0.00     0.000 HD 
HETATM   30  C   UNL     1     -11.587  15.681  64.357  1.00  0.00    -0.249 A  
HETATM   31  N   UNL     1     -11.036  16.867  64.504  1.00  0.00    -1.071 NA 
HETATM   32  C   UNL     1     -10.411  16.814  65.738  1.00  0.00    -0.305 A  
HETATM   33  C   UNL     1      -9.711  17.769  66.491  1.00  0.00    -0.320 A  
HETATM   34  N   UNL     1      -9.534  19.080  66.076  1.00  0.00    -0.467 NA 
HETATM   35  N   UNL     1      -9.186  17.392  67.682  1.00  0.00    -0.232 NA 
HETATM   36  C   UNL     1      -9.400  16.128  68.110  1.00  0.00    -0.201 A  
ENDBRANCH  24  25
ENDBRANCH  23  24
ENDBRANCH  22  23
ENDBRANCH  11  22
ENDBRANCH   8   9
ENDBRANCH   7   8
ENDBRANCH   5   7
ENDBRANCH   2   5
TORSDOF 12
ENDMDL
MODEL       50
REMARK 921   NORMALIZED FREE ENERGY PREDICTED BY IDOCK:   -5.69 KCAL/MOL
REMARK 922        TOTAL FREE ENERGY PREDICTED BY IDOCK:  -11.28 KCAL/MOL
REMARK 923 INTER-LIGAND FREE ENERGY PREDICTED BY IDOCK:   -9.80 KCAL/MOL
REMARK 924 INTRA-LIGAND FREE ENERGY PREDICTED BY IDOCK:   -1.49 KCAL/MOL
REMARK 927      BINDING AFFINITY PREDICTED BY RF-SCORE:    0.00 PKD
ROOT
HETATM    1  C   UNL     1     -10.449  13.606  64.607  1.00  0.00    -0.442 C  
HETATM    2  C   UNL     1     -11.542  12.662  65.144  1.00  0.00    -0.386 C  
HETATM    3  C   UNL     1     -12.171  13.303  66.388  1.00  0.00    -0.419 C  
HETATM    4  C   UNL     1     -12.609  12.488  64.053  1.00  0.00    -0.481 C  
ENDROOT
BRANCH   2   5
HETATM    5  C   UNL     1     -10.906  11.299  65.461  1.00  0.00    -0.179 C  
HETATM    6  O   UNL     1     -10.374  10.591  64.611  1.00  0.00    -0.344 OA 
BRANCH   5   7
HETATM    7  O   UNL     1     -11.084  10.915  66.756  1.00  0.00    -0.237 OA 
BRANCH   7   8
HETATM    8  C   UNL     1      -9.884  10.465  67.412  1.00  0.00    -0.178 C  
BRANCH   8   9
HETATM    9  O   UNL     1      -9.941   9.109  67.846  1.00  0.00    -0.168 OA 
HETATM   10  P   UNL     1      -9.353   8.838  69.340  1.00  0.00    -0.160 P  
HETATM   11  C   UNL     1     -10.436   9.777  70.444  1.00  0.00    -0.297 C  
HETATM   12  O   UNL     1      -7.892   9.120  69.474  1.00  0.00    -0.076 OA 
HETATM   13  O   UNL     1      -9.824   7.351  69.739  1.00  0.00    -0.170 OA 
BRANCH  13  14
HETATM   14  C   UNL     1      -9.219   6.191  69.243  1.00  0.00    -0.132 C  
BRANCH  14  15
HETATM   15  O   UNL     1     -10.227   5.344  68.642  1.00  0.00    -0.178 OA 
BRANCH  15  16
HETATM   16  C   UNL     1     -10.424   5.514  67.303  1.00  0.00    -0.236 C  
HETATM   17  O   UNL     1     -11.129   6.393  66.821  1.00  0.00    -0.358 OA 
BRANCH  16  18
HETATM   18  C   UNL     1      -9.665   4.466  66.461  1.00  0.00    -0.230 C  
HETATM   19  C   UNL     1      -8.248   4.987  66.143  1.00  0.00    -0.109 C  
HETATM   20  C   UNL     1     -10.395   4.219  65.135  1.00  0.00    -0.215 C  
HETATM   21  C   UNL     1      -9.523   3.145  67.231  1.00  0.00    -0.164 C  
ENDBRANCH  16  18
ENDBRANCH  15  16
ENDBRANCH  14  15
ENDBRANCH  13  14
BRANCH  11  22
HETATM   22  O   UNL     1     -11.744   9.264  70.178  1.00  0.00    -0.136 OA 
BRANCH  22  23
HETATM   23  C   UNL     1     -12.737  10.269  70.156  1.00  0.00    -0.026 C  
BRANCH  23  24
HETATM   24  C   UNL     1     -12.052  11.621  70.013  1.00  0.00    -0.319 C  
BRANCH  24  25
HETATM   25  N   UNL     1     -12.635  12.573  70.921  1.00  0.00    -0.304 NA 
HETATM   26  C   UNL     1     -12.322  13.898  70.967  1.00  0.00    -0.376 A  
HETATM   27  N   UNL     1     -11.578  14.597  70.095  1.00  0.00    -0.273 NA 
HETATM   28  H2  UNL     1     -12.720  15.673  74.445  1.00  0.00     0.000 HD 
HETATM   29  H1  UNL     1     -12.868  17.228  73.931  1.00  0.00     0.000 HD 
HETATM   30  C   UNL     1     -13.408  12.280  72.012  1.00  0.00    -0.386 A  
HETATM   31  N   UNL     1     -13.576  13.333  72.783  1.00  0.00    -0.598 NA 
HETATM   32  C   UNL     1     -12.876  14.348  72.151  1.00  0.00    -0.342 A  
HETATM   33  C   UNL     1     -12.618  15.682  72.497  1.00  0.00    -0.429 A  
HETATM   34  N   UNL     1     -13.056  16.257  73.680  1.00  0.00    -0.649 NA 
HETATM   35  N   UNL     1     -11.901  16.444  71.635  1.00  0.00    -0.406 NA 
HETATM   36  C   UNL     1     -11.432  15.871  70.504  1.00  0.00    -0.392 A  
ENDBRANCH  24  25
ENDBRANCH  23  24
ENDBRANCH  22  23
ENDBRANCH  11  22
ENDBRANCH   8   9
ENDBRANCH   7   8
ENDBRANCH   5   7
ENDBRANCH   2   5
TORSDOF 12
ENDMDL
MODEL       51
REMARK 921   NORMALIZED FREE ENERGY PREDICTED BY IDOCK:   -5.69 KCAL/MOL
REMARK 922        TOTAL FREE ENERGY PREDICTED BY IDOCK:  -11.28 KCAL/MOL
REMARK 923 INTER-LIGAND FREE ENERGY PREDICTED BY IDOCK:   -9.78 KCAL/MOL
REMARK 924 INTRA-LIGAND FREE ENERGY PREDICTED BY IDOCK:   -1.50 KCAL/MOL
REMARK 927      BINDING AFFINITY PREDICTED BY RF-SCORE:    0.00 PKD
ROOT
HETATM    1  C   UNL     1     -11.244   6.069  72.627  1.00  0.00    -0.326 C  
HETATM    2  C   UNL     1     -11.880   6.853  71.463  1.00  0.00    -0.366 C  
HETATM    3  C   UNL     1     -11.321   6.307  70.144  1.00  0.00    -0.476 C  
HETATM    4  C   UNL     1     -13.401   6.639  71.512  1.00  0.00    -0.045 C  
ENDROOT
BRANCH   2   5
HETATM    5  C   UNL     1     -11.568   8.347  71.644  1.00  0.00    -0.289 C  
HETATM    6  O   UNL     1     -10.614   8.761  72.296  1.00  0.00    -0.337 OA 
BRANCH   5   7
HETATM    7  O   UNL     1     -12.512   9.160  71.092  1.00  0.00    -0.305 OA 
BRANCH   7   8
HETATM    8  C   UNL     1     -12.255  10.567  71.258  1.00  0.00    -0.368 C  
BRANCH   8   9
HETATM    9  O   UNL     1     -11.157  11.045  70.486  1.00  0.00    -0.084 OA 
HETATM   10  P   UNL     1     -11.564  11.837  69.123  1.00  0.00    -0.349 P  
HETATM   11  C   UNL     1     -12.471  13.297  69.687  1.00  0.00     0.036 C  
HETATM   12  O   UNL     1     -12.271  10.985  68.119  1.00  0.00    -0.578 OA 
HETATM   13  O   UNL     1     -10.221  12.562  68.612  1.00  0.00    -0.220 OA 
BRANCH  13  14
HETATM   14  C   UNL     1      -9.181  11.890  67.962  1.00  0.00    -0.190 C  
BRANCH  14  15
HETATM   15  O   UNL     1      -9.106  12.338  66.588  1.00  0.00    -0.204 OA 
BRANCH  15  16
HETATM   16  C   UNL     1      -9.916  11.686  65.706  1.00  0.00    -0.237 C  
HETATM   17  O   UNL     1     -10.027  10.467  65.651  1.00  0.00    -0.241 OA 
BRANCH  16  18
HETATM   18  C   UNL     1     -10.673  12.659  64.776  1.00  0.00    -0.335 C  
HETATM   19  C   UNL     1     -12.179  12.627  65.112  1.00  0.00    -0.539 C  
HETATM   20  C   UNL     1     -10.498  12.239  63.311  1.00  0.00    -0.296 C  
HETATM   21  C   UNL     1     -10.174  14.098  64.968  1.00  0.00    -0.399 C  
ENDBRANCH  16  18
ENDBRANCH  15  16
ENDBRANCH  14  15
ENDBRANCH  13  14
BRANCH  11  22
HETATM   22  O   UNL     1     -11.556  13.969  70.556  1.00  0.00    -0.230 OA 
BRANCH  22  23
HETATM   23  C   UNL     1     -11.590  15.374  70.415  1.00  0.00    -0.324 C  
BRANCH  23  24
HETATM   24  C   UNL     1     -11.388  15.715  68.945  1.00  0.00    -0.339 C  
BRANCH  24  25
HETATM   25  N   UNL     1     -10.132  16.392  68.759  1.00  0.00    -0.234 NA 
HETATM   26  C   UNL     1      -9.982  17.600  68.147  1.00  0.00    -0.330 A  
HETATM   27  N   UNL     1     -10.946  18.457  67.774  1.00  0.00    -0.227 NA 
HETATM   28  H2  UNL     1      -6.550  18.244  66.355  1.00  0.00     0.000 HD 
HETATM   29  H1  UNL     1      -6.562  19.888  66.347  1.00  0.00     0.000 HD 
HETATM   30  C   UNL     1      -8.888  15.854  68.949  1.00  0.00    -0.225 A  
HETATM   31  N   UNL     1      -7.945  16.629  68.457  1.00  0.00    -0.212 NA 
HETATM   32  C   UNL     1      -8.622  17.715  67.927  1.00  0.00    -0.238 A  
HETATM   33  C   UNL     1      -8.196  18.844  67.213  1.00  0.00    -0.270 A  
HETATM   34  N   UNL     1      -6.872  19.066  66.865  1.00  0.00    -0.198 NA 
HETATM   35  N   UNL     1      -9.123  19.761  66.843  1.00  0.00    -0.329 NA 
HETATM   36  C   UNL     1     -10.420  19.522  67.139  1.00  0.00    -0.474 A  
ENDBRANCH  24  25
ENDBRANCH  23  24
ENDBRANCH  22  23
ENDBRANCH  11  22
ENDBRANCH   8   9
ENDBRANCH   7   8
ENDBRANCH   5   7
ENDBRANCH   2   5
TORSDOF 12
ENDMDL
MODEL       52
REMARK 921   NORMALIZED FREE ENERGY PREDICTED BY IDOCK:   -5.68 KCAL/MOL
REMARK 922        TOTAL FREE ENERGY PREDICTED BY IDOCK:  -11.26 KCAL/MOL
REMARK 923 INTER-LIGAND FREE ENERGY PREDICTED BY IDOCK:  -10.14 KCAL/MOL
REMARK 924 INTRA-LIGAND FREE ENERGY PREDICTED BY IDOCK:   -1.12 KCAL/MOL
REMARK 927      BINDING AFFINITY PREDICTED BY RF-SCORE:    0.00 PKD
ROOT
HETATM    1  C   UNL     1     -11.679  13.868  63.777  1.00  0.00    -0.138 C  
HETATM    2  C   UNL     1     -11.896  12.429  64.282  1.00  0.00    -0.473 C  
HETATM    3  C   UNL     1     -12.195  12.479  65.785  1.00  0.00    -0.361 C  
HETATM    4  C   UNL     1     -13.097  11.830  63.532  1.00  0.00    -0.055 C  
ENDROOT
BRANCH   2   5
HETATM    5  C   UNL     1     -10.638  11.602  63.974  1.00  0.00    -0.373 C  
HETATM    6  O   UNL     1      -9.802  11.932  63.138  1.00  0.00    -0.405 OA 
BRANCH   5   7
HETATM    7  O   UNL     1     -10.598  10.419  64.651  1.00  0.00    -0.173 OA 
BRANCH   7   8
HETATM    8  C   UNL     1      -9.407  10.224  65.436  1.00  0.00    -0.207 C  
BRANCH   8   9
HETATM    9  O   UNL     1      -9.658  10.064  66.829  1.00  0.00    -0.169 OA 
HETATM   10  P   UNL     1      -8.424  10.482  67.805  1.00  0.00    -0.115 P  
HETATM   11  C   UNL     1      -8.189  12.254  67.525  1.00  0.00    -0.170 C  
HETATM   12  O   UNL     1      -7.205   9.634  67.635  1.00  0.00    -0.087 OA 
HETATM   13  O   UNL     1      -9.036  10.546  69.293  1.00  0.00    -0.189 OA 
BRANCH  13  14
HETATM   14  C   UNL     1      -9.316   9.412  70.061  1.00  0.00    -0.226 C  
BRANCH  14  15
HETATM   15  O   UNL     1     -10.665   8.967  69.785  1.00  0.00    -0.229 OA 
BRANCH  15  16
HETATM   16  C   UNL     1     -11.523   8.977  70.845  1.00  0.00    -0.291 C  
HETATM   17  O   UNL     1     -11.937   9.998  71.380  1.00  0.00    -0.365 OA 
BRANCH  16  18
HETATM   18  C   UNL     1     -11.906   7.553  71.303  1.00  0.00    -0.319 C  
HETATM   19  C   UNL     1     -11.160   7.213  72.610  1.00  0.00    -0.330 C  
HETATM   20  C   UNL     1     -11.504   6.524  70.239  1.00  0.00    -0.474 C  
HETATM   21  C   UNL     1     -13.414   7.455  71.579  1.00  0.00    -0.445 C  
ENDBRANCH  16  18
ENDBRANCH  15  16
ENDBRANCH  14  15
ENDBRANCH  13  14
BRANCH  11  22
HETATM   22  O   UNL     1      -9.459  12.833  67.832  1.00  0.00    -0.194 OA 
BRANCH  22  23
HETATM   23  C   UNL     1      -9.355  14.104  68.440  1.00  0.00    -0.208 C  
BRANCH  23  24
HETATM   24  C   UNL     1     -10.641  14.873  68.171  1.00  0.00    -0.244 C  
BRANCH  24  25
HETATM   25  N   UNL     1     -10.389  15.961  67.262  1.00  0.00    -0.286 NA 
HETATM   26  C   UNL     1     -10.241  17.264  67.630  1.00  0.00    -0.333 A  
HETATM   27  N   UNL     1     -10.118  17.758  68.872  1.00  0.00    -0.367 NA 
HETATM   28  H2  UNL     1     -11.285  19.963  64.978  1.00  0.00     0.000 HD 
HETATM   29  H1  UNL     1     -10.400  21.232  65.532  1.00  0.00     0.000 HD 
HETATM   30  C   UNL     1     -10.482  15.911  65.898  1.00  0.00    -0.359 A  
HETATM   31  N   UNL     1     -10.444  17.115  65.366  1.00  0.00    -0.651 NA 
HETATM   32  C   UNL     1     -10.320  17.973  66.446  1.00  0.00    -0.379 A  
HETATM   33  C   UNL     1     -10.292  19.371  66.549  1.00  0.00    -0.469 A  
HETATM   34  N   UNL     1     -10.421  20.215  65.457  1.00  0.00    -0.293 NA 
HETATM   35  N   UNL     1     -10.133  19.924  67.776  1.00  0.00    -0.409 NA 
HETATM   36  C   UNL     1     -10.055  19.103  68.848  1.00  0.00    -0.354 A  
ENDBRANCH  24  25
ENDBRANCH  23  24
ENDBRANCH  22  23
ENDBRANCH  11  22
ENDBRANCH   8   9
ENDBRANCH   7   8
ENDBRANCH   5   7
ENDBRANCH   2   5
TORSDOF 12
ENDMDL
MODEL       53
REMARK 921   NORMALIZED FREE ENERGY PREDICTED BY IDOCK:   -5.68 KCAL/MOL
REMARK 922        TOTAL FREE ENERGY PREDICTED BY IDOCK:  -11.25 KCAL/MOL
REMARK 923 INTER-LIGAND FREE ENERGY PREDICTED BY IDOCK:   -9.58 KCAL/MOL
REMARK 924 INTRA-LIGAND FREE ENERGY PREDICTED BY IDOCK:   -1.68 KCAL/MOL
REMARK 927      BINDING AFFINITY PREDICTED BY RF-SCORE:    0.00 PKD
ROOT
HETATM    1  C   UNL     1     -11.204   6.330  72.445  1.00  0.00    -0.320 C  
HETATM    2  C   UNL     1     -11.765   7.101  71.235  1.00  0.00    -0.342 C  
HETATM    3  C   UNL     1     -11.396   6.338  69.957  1.00  0.00    -0.486 C  
HETATM    4  C   UNL     1     -13.294   7.172  71.375  1.00  0.00    -0.380 C  
ENDROOT
BRANCH   2   5
HETATM    5  C   UNL     1     -11.184   8.523  71.242  1.00  0.00    -0.265 C  
HETATM    6  O   UNL     1     -10.486   8.961  72.151  1.00  0.00    -0.336 OA 
BRANCH   5   7
HETATM    7  O   UNL     1     -11.606   9.277  70.188  1.00  0.00    -0.182 OA 
BRANCH   7   8
HETATM    8  C   UNL     1     -11.348  10.687  70.326  1.00  0.00    -0.319 C  
BRANCH   8   9
HETATM    9  O   UNL     1     -10.403  11.192  69.387  1.00  0.00    -0.173 OA 
HETATM   10  P   UNL     1     -11.046  11.931  68.087  1.00  0.00    -0.292 P  
HETATM   11  C   UNL     1     -11.924  13.365  68.754  1.00  0.00    -0.324 C  
HETATM   12  O   UNL     1     -11.857  11.024  67.218  1.00  0.00    -0.468 OA 
HETATM   13  O   UNL     1      -9.830  12.699  67.365  1.00  0.00    -0.201 OA 
BRANCH  13  14
HETATM   14  C   UNL     1      -8.870  12.056  66.578  1.00  0.00    -0.172 C  
BRANCH  14  15
HETATM   15  O   UNL     1      -8.456  10.832  67.230  1.00  0.00    -0.123 OA 
BRANCH  15  16
HETATM   16  C   UNL     1      -8.370   9.732  66.429  1.00  0.00    -0.120 C  
HETATM   17  O   UNL     1      -7.993   9.763  65.263  1.00  0.00    -0.114 OA 
BRANCH  16  18
HETATM   18  C   UNL     1      -8.810   8.442  67.154  1.00  0.00    -0.139 C  
HETATM   19  C   UNL     1      -8.045   7.236  66.571  1.00  0.00    -0.114 C  
HETATM   20  C   UNL     1     -10.312   8.203  66.950  1.00  0.00    -0.401 C  
HETATM   21  C   UNL     1      -8.496   8.523  68.655  1.00  0.00    -0.131 C  
ENDBRANCH  16  18
ENDBRANCH  15  16
ENDBRANCH  14  15
ENDBRANCH  13  14
BRANCH  11  22
HETATM   22  O   UNL     1     -10.921  14.097  69.462  1.00  0.00    -0.224 OA 
BRANCH  22  23
HETATM   23  C   UNL     1     -11.081  15.497  69.357  1.00  0.00    -0.291 C  
BRANCH  23  24
HETATM   24  C   UNL     1     -11.300  15.848  67.892  1.00  0.00    -0.252 C  
BRANCH  24  25
HETATM   25  N   UNL     1     -10.128  16.486  67.354  1.00  0.00    -0.272 NA 
HETATM   26  C   UNL     1      -9.890  17.827  67.380  1.00  0.00    -0.311 A  
HETATM   27  N   UNL     1     -10.576  18.770  68.047  1.00  0.00    -0.341 NA 
HETATM   28  H2  UNL     1      -7.676  19.274  64.480  1.00  0.00     0.000 HD 
HETATM   29  H1  UNL     1      -7.151  20.650  65.211  1.00  0.00     0.000 HD 
HETATM   30  C   UNL     1      -9.191  15.904  66.543  1.00  0.00    -0.279 A  
HETATM   31  N   UNL     1      -8.386  16.800  66.012  1.00  0.00    -0.473 NA 
HETATM   32  C   UNL     1      -8.833  18.013  66.509  1.00  0.00    -0.258 A  
HETATM   33  C   UNL     1      -8.440  19.339  66.273  1.00  0.00    -0.319 A  
HETATM   34  N   UNL     1      -7.436  19.685  65.382  1.00  0.00    -0.391 NA 
HETATM   35  N   UNL     1      -9.075  20.329  66.947  1.00  0.00    -0.342 NA 
HETATM   36  C   UNL     1     -10.086  19.996  67.780  1.00  0.00    -0.424 A  
ENDBRANCH  24  25
ENDBRANCH  23  24
ENDBRANCH  22  23
ENDBRANCH  11  22
ENDBRANCH   8   9
ENDBRANCH   7   8
ENDBRANCH   5   7
ENDBRANCH   2   5
TORSDOF 12
ENDMDL
MODEL       54
REMARK 921   NORMALIZED FREE ENERGY PREDICTED BY IDOCK:   -5.63 KCAL/MOL
REMARK 922        TOTAL FREE ENERGY PREDICTED BY IDOCK:  -11.18 KCAL/MOL
REMARK 923 INTER-LIGAND FREE ENERGY PREDICTED BY IDOCK:   -9.95 KCAL/MOL
REMARK 924 INTRA-LIGAND FREE ENERGY PREDICTED BY IDOCK:   -1.23 KCAL/MOL
REMARK 927      BINDING AFFINITY PREDICTED BY RF-SCORE:    0.00 PKD
ROOT
HETATM    1  C   UNL     1      -6.158  10.022  64.315  1.00  0.00    -0.131 C  
HETATM    2  C   UNL     1      -7.643   9.887  64.705  1.00  0.00    -0.139 C  
HETATM    3  C   UNL     1      -7.954   8.402  64.930  1.00  0.00    -0.136 C  
HETATM    4  C   UNL     1      -7.873  10.670  66.007  1.00  0.00    -0.156 C  
ENDROOT
BRANCH   2   5
HETATM    5  C   UNL     1      -8.506  10.491  63.586  1.00  0.00    -0.133 C  
HETATM    6  O   UNL     1      -8.085  10.705  62.453  1.00  0.00    -0.167 OA 
BRANCH   5   7
HETATM    7  O   UNL     1      -9.749  10.854  64.009  1.00  0.00    -0.247 OA 
BRANCH   7   8
HETATM    8  C   UNL     1     -10.294  12.003  63.332  1.00  0.00    -0.434 C  
BRANCH   8   9
HETATM    9  O   UNL     1     -10.137  13.222  64.052  1.00  0.00    -0.337 OA 
HETATM   10  P   UNL     1     -11.503  13.822  64.702  1.00  0.00    -0.386 P  
HETATM   11  C   UNL     1     -12.031  12.578  65.905  1.00  0.00    -0.409 C  
HETATM   12  O   UNL     1     -12.530  14.218  63.690  1.00  0.00    -0.816 OA 
HETATM   13  O   UNL     1     -11.040  14.975  65.725  1.00  0.00    -0.340 OA 
BRANCH  13  14
HETATM   14  C   UNL     1     -10.625  16.246  65.318  1.00  0.00    -0.336 C  
BRANCH  14  15
HETATM   15  O   UNL     1      -9.720  16.795  66.305  1.00  0.00    -0.270 OA 
BRANCH  15  16
HETATM   16  C   UNL     1     -10.297  17.545  67.287  1.00  0.00    -0.337 C  
HETATM   17  O   UNL     1     -11.115  17.110  68.089  1.00  0.00    -0.315 OA 
BRANCH  16  18
HETATM   18  C   UNL     1      -9.811  19.011  67.268  1.00  0.00    -0.386 C  
HETATM   19  C   UNL     1      -9.959  19.622  68.676  1.00  0.00    -0.553 C  
HETATM   20  C   UNL     1     -10.657  19.839  66.293  1.00  0.00    -0.572 C  
HETATM   21  C   UNL     1      -8.330  19.090  66.869  1.00  0.00    -0.289 C  
ENDBRANCH  16  18
ENDBRANCH  15  16
ENDBRANCH  14  15
ENDBRANCH  13  14
BRANCH  11  22
HETATM   22  O   UNL     1     -10.917  12.447  66.791  1.00  0.00    -0.245 OA 
BRANCH  22  23
HETATM   23  C   UNL     1     -11.189  11.619  67.903  1.00  0.00    -0.269 C  
BRANCH  23  24
HETATM   24  C   UNL     1     -10.851  10.183  67.527  1.00  0.00    -0.290 C  
BRANCH  24  25
HETATM   25  N   UNL     1     -10.729   9.375  68.712  1.00  0.00    -0.204 NA 
HETATM   26  C   UNL     1     -10.557   8.023  68.719  1.00  0.00    -0.118 A  
HETATM   27  N   UNL     1     -10.289   7.224  67.673  1.00  0.00    -0.207 NA 
HETATM   28  H2  UNL     1     -11.959   6.092  71.835  1.00  0.00     0.000 HD 
HETATM   29  H1  UNL     1     -11.031   4.738  71.744  1.00  0.00     0.000 HD 
HETATM   30  C   UNL     1     -10.989   9.777  69.995  1.00  0.00    -0.277 A  
HETATM   31  N   UNL     1     -11.034   8.755  70.822  1.00  0.00    -0.238 NA 
HETATM   32  C   UNL     1     -10.792   7.647  70.028  1.00  0.00    -0.243 A  
HETATM   33  C   UNL     1     -10.771   6.271  70.298  1.00  0.00    -0.280 A  
HETATM   34  N   UNL     1     -11.046   5.739  71.548  1.00  0.00    -0.248 NA 
HETATM   35  N   UNL     1     -10.472   5.420  69.286  1.00  0.00    -0.258 NA 
HETATM   36  C   UNL     1     -10.251   5.934  68.055  1.00  0.00    -0.184 A  
ENDBRANCH  24  25
ENDBRANCH  23  24
ENDBRANCH  22  23
ENDBRANCH  11  22
ENDBRANCH   8   9
ENDBRANCH   7   8
ENDBRANCH   5   7
ENDBRANCH   2   5
TORSDOF 12
ENDMDL
MODEL       55
REMARK 921   NORMALIZED FREE ENERGY PREDICTED BY IDOCK:   -5.62 KCAL/MOL
REMARK 922        TOTAL FREE ENERGY PREDICTED BY IDOCK:  -11.16 KCAL/MOL
REMARK 923 INTER-LIGAND FREE ENERGY PREDICTED BY IDOCK:  -10.05 KCAL/MOL
REMARK 924 INTRA-LIGAND FREE ENERGY PREDICTED BY IDOCK:   -1.11 KCAL/MOL
REMARK 927      BINDING AFFINITY PREDICTED BY RF-SCORE:    0.00 PKD
ROOT
HETATM    1  C   UNL     1     -13.984  15.205  71.149  1.00  0.00    -0.487 C  
HETATM    2  C   UNL     1     -12.567  14.603  71.071  1.00  0.00    -0.400 C  
HETATM    3  C   UNL     1     -11.685  15.296  72.116  1.00  0.00    -0.537 C  
HETATM    4  C   UNL     1     -12.663  13.101  71.383  1.00  0.00    -0.390 C  
ENDROOT
BRANCH   2   5
HETATM    5  C   UNL     1     -12.026  14.795  69.645  1.00  0.00    -0.316 C  
HETATM    6  O   UNL     1     -11.722  15.891  69.182  1.00  0.00    -0.376 OA 
BRANCH   5   7
HETATM    7  O   UNL     1     -12.015  13.642  68.919  1.00  0.00    -0.340 OA 
BRANCH   7   8
HETATM    8  C   UNL     1     -12.125  13.836  67.496  1.00  0.00    -0.331 C  
BRANCH   8   9
HETATM    9  O   UNL     1     -11.246  13.012  66.735  1.00  0.00    -0.279 OA 
HETATM   10  P   UNL     1     -11.556  12.962  65.138  1.00  0.00    -0.375 P  
HETATM   11  C   UNL     1     -11.300  14.658  64.561  1.00  0.00    -0.310 C  
HETATM   12  O   UNL     1     -12.880  12.358  64.798  1.00  0.00    -0.728 OA 
HETATM   13  O   UNL     1     -10.271  12.273  64.457  1.00  0.00    -0.290 OA 
BRANCH  13  14
HETATM   14  C   UNL     1     -10.022  10.897  64.495  1.00  0.00    -0.317 C  
BRANCH  14  15
HETATM   15  O   UNL     1      -8.785  10.653  65.207  1.00  0.00    -0.183 OA 
BRANCH  15  16
HETATM   16  C   UNL     1      -8.913  10.323  66.523  1.00  0.00    -0.144 C  
HETATM   17  O   UNL     1      -9.001  11.143  67.429  1.00  0.00    -0.138 OA 
BRANCH  16  18
HETATM   18  C   UNL     1      -8.924   8.795  66.746  1.00  0.00    -0.161 C  
HETATM   19  C   UNL     1      -8.389   8.085  65.486  1.00  0.00    -0.153 C  
HETATM   20  C   UNL     1     -10.354   8.304  67.004  1.00  0.00    -0.393 C  
HETATM   21  C   UNL     1      -8.021   8.409  67.927  1.00  0.00    -0.115 C  
ENDBRANCH  16  18
ENDBRANCH  15  16
ENDBRANCH  14  15
ENDBRANCH  13  14
BRANCH  11  22
HETATM   22  O   UNL     1      -9.953  14.959  64.932  1.00  0.00    -0.288 OA 
BRANCH  22  23
HETATM   23  C   UNL     1      -9.843  16.133  65.711  1.00  0.00    -0.320 C  
BRANCH  23  24
HETATM   24  C   UNL     1      -8.783  15.905  66.779  1.00  0.00    -0.269 C  
BRANCH  24  25
HETATM   25  N   UNL     1      -7.881  17.026  66.831  1.00  0.00    -0.193 NA 
HETATM   26  C   UNL     1      -8.252  18.312  67.083  1.00  0.00    -0.234 A  
HETATM   27  N   UNL     1      -9.449  18.755  67.502  1.00  0.00    -0.295 NA 
HETATM   28  H2  UNL     1      -6.021  21.125  65.497  1.00  0.00     0.000 HD 
HETATM   29  H1  UNL     1      -6.399  22.363  66.510  1.00  0.00     0.000 HD 
HETATM   30  C   UNL     1      -6.576  17.033  66.420  1.00  0.00    -0.166 A  
HETATM   31  N   UNL     1      -6.095  18.256  66.354  1.00  0.00    -0.162 NA 
HETATM   32  C   UNL     1      -7.146  19.069  66.742  1.00  0.00    -0.205 A  
HETATM   33  C   UNL     1      -7.292  20.462  66.819  1.00  0.00    -0.278 A  
HETATM   34  N   UNL     1      -6.293  21.350  66.453  1.00  0.00    -0.343 NA 
HETATM   35  N   UNL     1      -8.468  20.963  67.270  1.00  0.00    -0.149 NA 
HETATM   36  C   UNL     1      -9.460  20.099  67.581  1.00  0.00    -0.387 A  
ENDBRANCH  24  25
ENDBRANCH  23  24
ENDBRANCH  22  23
ENDBRANCH  11  22
ENDBRANCH   8   9
ENDBRANCH   7   8
ENDBRANCH   5   7
ENDBRANCH   2   5
TORSDOF 12
ENDMDL
MODEL       56
REMARK 921   NORMALIZED FREE ENERGY PREDICTED BY IDOCK:   -5.62 KCAL/MOL
REMARK 922        TOTAL FREE ENERGY PREDICTED BY IDOCK:  -11.15 KCAL/MOL
REMARK 923 INTER-LIGAND FREE ENERGY PREDICTED BY IDOCK:  -10.04 KCAL/MOL
REMARK 924 INTRA-LIGAND FREE ENERGY PREDICTED BY IDOCK:   -1.11 KCAL/MOL
REMARK 927      BINDING AFFINITY PREDICTED BY RF-SCORE:    0.00 PKD
ROOT
HETATM    1  C   UNL     1     -13.174  13.611  72.767  1.00  0.00    -0.431 C  
HETATM    2  C   UNL     1     -13.017  14.981  72.079  1.00  0.00    -0.427 C  
HETATM    3  C   UNL     1     -14.403  15.466  71.638  1.00  0.00    -0.615 C  
HETATM    4  C   UNL     1     -12.420  15.967  73.095  1.00  0.00    -0.633 C  
ENDROOT
BRANCH   2   5
HETATM    5  C   UNL     1     -12.057  14.829  70.888  1.00  0.00    -0.324 C  
HETATM    6  O   UNL     1     -11.777  13.746  70.383  1.00  0.00    -0.264 OA 
BRANCH   5   7
HETATM    7  O   UNL     1     -11.474  16.004  70.520  1.00  0.00    -0.354 OA 
BRANCH   7   8
HETATM    8  C   UNL     1     -11.472  16.247  69.101  1.00  0.00    -0.257 C  
BRANCH   8   9
HETATM    9  O   UNL     1     -10.255  16.807  68.616  1.00  0.00    -0.260 OA 
HETATM   10  P   UNL     1      -9.064  15.733  68.337  1.00  0.00    -0.203 P  
HETATM   11  C   UNL     1      -9.698  14.665  67.023  1.00  0.00    -0.243 C  
HETATM   12  O   UNL     1      -8.585  15.031  69.567  1.00  0.00    -0.172 OA 
HETATM   13  O   UNL     1      -7.942  16.523  67.495  1.00  0.00    -0.151 OA 
BRANCH  13  14
HETATM   14  C   UNL     1      -7.047  17.433  68.065  1.00  0.00    -0.184 C  
BRANCH  14  15
HETATM   15  O   UNL     1      -7.537  18.780  67.862  1.00  0.00    -0.243 OA 
BRANCH  15  16
HETATM   16  C   UNL     1      -7.641  19.183  66.564  1.00  0.00    -0.251 C  
HETATM   17  O   UNL     1      -8.626  18.985  65.862  1.00  0.00    -0.461 OA 
BRANCH  16  18
HETATM   18  C   UNL     1      -6.372  19.912  66.072  1.00  0.00    -0.208 C  
HETATM   19  C   UNL     1      -5.795  20.772  67.215  1.00  0.00    -0.273 C  
HETATM   20  C   UNL     1      -6.711  20.838  64.897  1.00  0.00    -0.160 C  
HETATM   21  C   UNL     1      -5.294  18.904  65.646  1.00  0.00    -0.189 C  
ENDBRANCH  16  18
ENDBRANCH  15  16
ENDBRANCH  14  15
ENDBRANCH  13  14
BRANCH  11  22
HETATM   22  O   UNL     1     -10.001  15.562  65.951  1.00  0.00    -0.296 OA 
BRANCH  22  23
HETATM   23  C   UNL     1     -10.915  15.022  65.020  1.00  0.00    -0.423 C  
BRANCH  23  24
HETATM   24  C   UNL     1     -11.542  13.776  65.628  1.00  0.00    -0.330 C  
BRANCH  24  25
HETATM   25  N   UNL     1     -11.062  12.598  64.954  1.00  0.00    -0.287 NA 
HETATM   26  C   UNL     1     -10.585  11.484  65.576  1.00  0.00    -0.281 A  
HETATM   27  N   UNL     1     -10.634  11.191  66.886  1.00  0.00    -0.246 NA 
HETATM   28  H2  UNL     1      -7.915   9.383  63.611  1.00  0.00     0.000 HD 
HETATM   29  H1  UNL     1      -8.110   7.937  64.368  1.00  0.00     0.000 HD 
HETATM   30  C   UNL     1     -10.794  12.485  63.616  1.00  0.00    -0.441 A  
HETATM   31  N   UNL     1     -10.133  11.379  63.347  1.00  0.00    -0.371 NA 
HETATM   32  C   UNL     1      -9.972  10.757  64.573  1.00  0.00    -0.333 A  
HETATM   33  C   UNL     1      -9.304   9.588  64.965  1.00  0.00    -0.229 A  
HETATM   34  N   UNL     1      -8.596   8.787  64.083  1.00  0.00    -0.119 NA 
HETATM   35  N   UNL     1      -9.351   9.225  66.270  1.00  0.00    -0.182 NA 
HETATM   36  C   UNL     1     -10.001  10.030  67.140  1.00  0.00    -0.201 A  
ENDBRANCH  24  25
ENDBRANCH  23  24
ENDBRANCH  22  23
ENDBRANCH  11  22
ENDBRANCH   8   9
ENDBRANCH   7   8
ENDBRANCH   5   7
ENDBRANCH   2   5
TORSDOF 12
ENDMDL
MODEL       57
REMARK 921   NORMALIZED FREE ENERGY PREDICTED BY IDOCK:   -5.59 KCAL/MOL
REMARK 922        TOTAL FREE ENERGY PREDICTED BY IDOCK:  -11.11 KCAL/MOL
REMARK 923 INTER-LIGAND FREE ENERGY PREDICTED BY IDOCK:   -9.55 KCAL/MOL
REMARK 924 INTRA-LIGAND FREE ENERGY PREDICTED BY IDOCK:   -1.55 KCAL/MOL
REMARK 927      BINDING AFFINITY PREDICTED BY RF-SCORE:    0.00 PKD
ROOT
HETATM    1  C   UNL     1      -8.025   6.235  68.131  1.00  0.00    -0.108 C  
HETATM    2  C   UNL     1      -9.294   5.444  67.757  1.00  0.00    -0.124 C  
HETATM    3  C   UNL     1     -10.105   6.271  66.753  1.00  0.00    -0.237 C  
HETATM    4  C   UNL     1      -8.863   4.117  67.111  1.00  0.00    -0.124 C  
ENDROOT
BRANCH   2   5
HETATM    5  C   UNL     1     -10.091   5.153  69.039  1.00  0.00    -0.187 C  
HETATM    6  O   UNL     1      -9.862   4.195  69.771  1.00  0.00    -0.215 OA 
BRANCH   5   7
HETATM    7  O   UNL     1     -11.137   6.007  69.222  1.00  0.00    -0.364 OA 
BRANCH   7   8
HETATM    8  C   UNL     1     -11.178   6.626  70.521  1.00  0.00    -0.334 C  
BRANCH   8   9
HETATM    9  O   UNL     1     -11.691   7.955  70.508  1.00  0.00    -0.213 OA 
HETATM   10  P   UNL     1     -10.717   9.077  71.174  1.00  0.00    -0.347 P  
HETATM   11  C   UNL     1      -9.239   9.087  70.131  1.00  0.00    -0.192 C  
HETATM   12  O   UNL     1     -10.476   8.878  72.635  1.00  0.00    -0.055 OA 
HETATM   13  O   UNL     1     -11.329  10.504  70.748  1.00  0.00    -0.327 OA 
BRANCH  13  14
HETATM   14  C   UNL     1     -12.460  11.068  71.347  1.00  0.00    -0.331 C  
BRANCH  14  15
HETATM   15  O   UNL     1     -12.448  12.501  71.140  1.00  0.00    -0.345 OA 
BRANCH  15  16
HETATM   16  C   UNL     1     -13.306  13.220  71.919  1.00  0.00    -0.451 C  
HETATM   17  O   UNL     1     -14.188  12.719  72.607  1.00  0.00    -0.420 OA 
BRANCH  16  18
HETATM   18  C   UNL     1     -13.047  14.739  71.829  1.00  0.00    -0.421 C  
HETATM   19  C   UNL     1     -12.524  15.091  70.421  1.00  0.00    -0.407 C  
HETATM   20  C   UNL     1     -11.989  15.161  72.855  1.00  0.00    -0.470 C  
HETATM   21  C   UNL     1     -14.344  15.529  72.064  1.00  0.00    -0.600 C  
ENDBRANCH  16  18
ENDBRANCH  15  16
ENDBRANCH  14  15
ENDBRANCH  13  14
BRANCH  11  22
HETATM   22  O   UNL     1      -9.731   9.377  68.820  1.00  0.00    -0.152 OA 
BRANCH  22  23
HETATM   23  C   UNL     1      -8.735   9.881  67.955  1.00  0.00    -0.125 C  
BRANCH  23  24
HETATM   24  C   UNL     1      -9.418  10.602  66.802  1.00  0.00    -0.162 C  
BRANCH  24  25
HETATM   25  N   UNL     1      -9.361  12.026  67.002  1.00  0.00    -0.186 NA 
HETATM   26  C   UNL     1      -9.898  12.953  66.161  1.00  0.00    -0.270 A  
HETATM   27  N   UNL     1     -10.715  12.739  65.116  1.00  0.00    -0.287 NA 
HETATM   28  H2  UNL     1      -8.145  16.463  66.069  1.00  0.00     0.000 HD 
HETATM   29  H1  UNL     1      -9.394  17.366  65.497  1.00  0.00     0.000 HD 
HETATM   30  C   UNL     1      -8.585  12.683  67.918  1.00  0.00    -0.181 A  
HETATM   31  N   UNL     1      -8.557  13.978  67.690  1.00  0.00    -0.175 NA 
HETATM   32  C   UNL     1      -9.356  14.156  66.573  1.00  0.00    -0.265 A  
HETATM   33  C   UNL     1      -9.675  15.284  65.803  1.00  0.00    -0.350 A  
HETATM   34  N   UNL     1      -9.161  16.546  66.057  1.00  0.00    -0.448 NA 
HETATM   35  N   UNL     1     -10.525  15.132  64.758  1.00  0.00    -0.307 NA 
HETATM   36  C   UNL     1     -10.989  13.893  64.479  1.00  0.00    -0.369 A  
ENDBRANCH  24  25
ENDBRANCH  23  24
ENDBRANCH  22  23
ENDBRANCH  11  22
ENDBRANCH   8   9
ENDBRANCH   7   8
ENDBRANCH   5   7
ENDBRANCH   2   5
TORSDOF 12
ENDMDL
MODEL       58
REMARK 921   NORMALIZED FREE ENERGY PREDICTED BY IDOCK:   -5.59 KCAL/MOL
REMARK 922        TOTAL FREE ENERGY PREDICTED BY IDOCK:  -11.10 KCAL/MOL
REMARK 923 INTER-LIGAND FREE ENERGY PREDICTED BY IDOCK:  -10.77 KCAL/MOL
REMARK 924 INTRA-LIGAND FREE ENERGY PREDICTED BY IDOCK:   -0.33 KCAL/MOL
REMARK 927      BINDING AFFINITY PREDICTED BY RF-SCORE:    0.00 PKD
ROOT
HETATM    1  C   UNL     1     -11.824  15.103  72.520  1.00  0.00    -0.485 C  
HETATM    2  C   UNL     1     -12.740  14.894  71.298  1.00  0.00    -0.412 C  
HETATM    3  C   UNL     1     -14.196  15.064  71.747  1.00  0.00    -0.649 C  
HETATM    4  C   UNL     1     -12.392  15.959  70.246  1.00  0.00    -0.224 C  
ENDROOT
BRANCH   2   5
HETATM    5  C   UNL     1     -12.478  13.496  70.717  1.00  0.00    -0.353 C  
HETATM    6  O   UNL     1     -12.479  12.473  71.396  1.00  0.00    -0.251 OA 
BRANCH   5   7
HETATM    7  O   UNL     1     -12.148  13.522  69.395  1.00  0.00    -0.316 OA 
BRANCH   7   8
HETATM    8  C   UNL     1     -10.739  13.671  69.138  1.00  0.00    -0.104 C  
BRANCH   8   9
HETATM    9  O   UNL     1     -10.186  12.627  68.342  1.00  0.00    -0.230 OA 
HETATM   10  P   UNL     1     -11.261  11.811  67.430  1.00  0.00    -0.304 P  
HETATM   11  C   UNL     1     -11.921  13.040  66.279  1.00  0.00    -0.414 C  
HETATM   12  O   UNL     1     -12.278  11.058  68.225  1.00  0.00    -0.582 OA 
HETATM   13  O   UNL     1     -10.392  10.941  66.391  1.00  0.00    -0.237 OA 
BRANCH  13  14
HETATM   14  C   UNL     1      -9.727   9.761  66.740  1.00  0.00    -0.194 C  
BRANCH  14  15
HETATM   15  O   UNL     1     -10.674   8.831  67.318  1.00  0.00    -0.276 OA 
BRANCH  15  16
HETATM   16  C   UNL     1     -10.288   8.239  68.484  1.00  0.00    -0.199 C  
HETATM   17  O   UNL     1      -9.930   8.858  69.480  1.00  0.00    -0.182 OA 
BRANCH  16  18
HETATM   18  C   UNL     1     -10.341   6.698  68.406  1.00  0.00    -0.220 C  
HETATM   19  C   UNL     1     -10.957   6.270  67.059  1.00  0.00    -0.442 C  
HETATM   20  C   UNL     1     -11.215   6.138  69.535  1.00  0.00    -0.482 C  
HETATM   21  C   UNL     1      -8.930   6.098  68.494  1.00  0.00    -0.115 C  
ENDBRANCH  16  18
ENDBRANCH  15  16
ENDBRANCH  14  15
ENDBRANCH  13  14
BRANCH  11  22
HETATM   22  O   UNL     1     -10.769  13.543  65.597  1.00  0.00    -0.274 OA 
BRANCH  22  23
HETATM   23  C   UNL     1     -10.939  14.863  65.123  1.00  0.00    -0.399 C  
BRANCH  23  24
HETATM   24  C   UNL     1     -11.048  15.795  66.322  1.00  0.00    -0.073 C  
BRANCH  24  25
HETATM   25  N   UNL     1      -9.861  16.603  66.432  1.00  0.00    -0.276 NA 
HETATM   26  C   UNL     1      -9.847  17.925  66.758  1.00  0.00    -0.333 A  
HETATM   27  N   UNL     1     -10.870  18.671  67.207  1.00  0.00    -0.394 NA 
HETATM   28  H2  UNL     1      -6.880  20.055  65.321  1.00  0.00     0.000 HD 
HETATM   29  H1  UNL     1      -6.896  21.292  66.404  1.00  0.00     0.000 HD 
HETATM   30  C   UNL     1      -8.605  16.254  66.016  1.00  0.00    -0.211 A  
HETATM   31  N   UNL     1      -7.791  17.288  66.017  1.00  0.00    -0.500 NA 
HETATM   32  C   UNL     1      -8.566  18.347  66.455  1.00  0.00    -0.247 A  
HETATM   33  C   UNL     1      -8.304  19.716  66.611  1.00  0.00    -0.321 A  
HETATM   34  N   UNL     1      -7.087  20.296  66.291  1.00  0.00    -0.271 NA 
HETATM   35  N   UNL     1      -9.290  20.511  67.094  1.00  0.00    -0.395 NA 
HETATM   36  C   UNL     1     -10.493  19.955  67.361  1.00  0.00    -0.404 A  
ENDBRANCH  24  25
ENDBRANCH  23  24
ENDBRANCH  22  23
ENDBRANCH  11  22
ENDBRANCH   8   9
ENDBRANCH   7   8
ENDBRANCH   5   7
ENDBRANCH   2   5
TORSDOF 12
ENDMDL
MODEL       59
REMARK 921   NORMALIZED FREE ENERGY PREDICTED BY IDOCK:   -5.59 KCAL/MOL
REMARK 922        TOTAL FREE ENERGY PREDICTED BY IDOCK:  -11.10 KCAL/MOL
REMARK 923 INTER-LIGAND FREE ENERGY PREDICTED BY IDOCK:   -9.47 KCAL/MOL
REMARK 924 INTRA-LIGAND FREE ENERGY PREDICTED BY IDOCK:   -1.63 KCAL/MOL
REMARK 927      BINDING AFFINITY PREDICTED BY RF-SCORE:    0.00 PKD
ROOT
HETATM    1  C   UNL     1      -8.355   7.985  65.378  1.00  0.00    -0.161 C  
HETATM    2  C   UNL     1      -8.185   9.366  64.714  1.00  0.00    -0.145 C  
HETATM    3  C   UNL     1      -6.719   9.794  64.851  1.00  0.00    -0.112 C  
HETATM    4  C   UNL     1      -8.553   9.236  63.228  1.00  0.00    -0.207 C  
ENDROOT
BRANCH   2   5
HETATM    5  C   UNL     1      -9.139  10.361  65.392  1.00  0.00    -0.189 C  
HETATM    6  O   UNL     1     -10.321  10.116  65.616  1.00  0.00    -0.240 OA 
BRANCH   5   7
HETATM    7  O   UNL     1      -8.565  11.575  65.626  1.00  0.00    -0.047 OA 
BRANCH   7   8
HETATM    8  C   UNL     1      -9.156  12.311  66.714  1.00  0.00    -0.211 C  
BRANCH   8   9
HETATM    9  O   UNL     1      -9.585  13.622  66.354  1.00  0.00    -0.277 OA 
HETATM   10  P   UNL     1     -11.048  13.699  65.646  1.00  0.00    -0.306 P  
HETATM   11  C   UNL     1     -12.206  13.107  66.904  1.00  0.00    -0.222 C  
HETATM   12  O   UNL     1     -11.118  13.003  64.326  1.00  0.00    -0.347 OA 
HETATM   13  O   UNL     1     -11.459  15.256  65.646  1.00  0.00    -0.260 OA 
BRANCH  13  14
HETATM   14  C   UNL     1     -10.930  16.193  64.753  1.00  0.00    -0.313 C  
BRANCH  14  15
HETATM   15  O   UNL     1      -9.748  16.794  65.334  1.00  0.00    -0.510 OA 
BRANCH  15  16
HETATM   16  C   UNL     1      -9.937  17.991  65.958  1.00  0.00    -0.216 C  
HETATM   17  O   UNL     1     -10.537  18.936  65.459  1.00  0.00    -0.572 OA 
BRANCH  16  18
HETATM   18  C   UNL     1      -9.299  18.027  67.364  1.00  0.00    -0.254 C  
HETATM   19  C   UNL     1     -10.401  17.884  68.434  1.00  0.00    -0.380 C  
HETATM   20  C   UNL     1      -8.580  19.363  67.588  1.00  0.00    -0.343 C  
HETATM   21  C   UNL     1      -8.309  16.867  67.544  1.00  0.00    -0.201 C  
ENDBRANCH  16  18
ENDBRANCH  15  16
ENDBRANCH  14  15
ENDBRANCH  13  14
BRANCH  11  22
HETATM   22  O   UNL     1     -11.997  13.980  68.017  1.00  0.00    -0.361 OA 
BRANCH  22  23
HETATM   23  C   UNL     1     -11.933  13.296  69.252  1.00  0.00    -0.303 C  
BRANCH  23  24
HETATM   24  C   UNL     1     -11.901  11.799  68.972  1.00  0.00    -0.317 C  
BRANCH  24  25
HETATM   25  N   UNL     1     -11.813  11.065  70.206  1.00  0.00    -0.339 NA 
HETATM   26  C   UNL     1     -10.804  10.209  70.532  1.00  0.00    -0.273 A  
HETATM   27  N   UNL     1      -9.643  10.023  69.884  1.00  0.00    -0.220 NA 
HETATM   28  H2  UNL     1     -11.719   7.265  72.961  1.00  0.00     0.000 HD 
HETATM   29  H1  UNL     1     -10.219   6.930  73.546  1.00  0.00     0.000 HD 
HETATM   30  C   UNL     1     -12.807  10.924  71.136  1.00  0.00    -0.409 A  
HETATM   31  N   UNL     1     -12.514   9.995  72.021  1.00  0.00    -0.309 NA 
HETATM   32  C   UNL     1     -11.272   9.520  71.636  1.00  0.00    -0.308 A  
HETATM   33  C   UNL     1     -10.454   8.493  72.127  1.00  0.00    -0.342 A  
HETATM   34  N   UNL     1     -10.814   7.678  73.189  1.00  0.00    -0.399 NA 
HETATM   35  N   UNL     1      -9.254   8.284  71.532  1.00  0.00    -0.160 NA 
HETATM   36  C   UNL     1      -8.921   9.046  70.466  1.00  0.00    -0.213 A  
ENDBRANCH  24  25
ENDBRANCH  23  24
ENDBRANCH  22  23
ENDBRANCH  11  22
ENDBRANCH   8   9
ENDBRANCH   7   8
ENDBRANCH   5   7
ENDBRANCH   2   5
TORSDOF 12
ENDMDL
MODEL       60
REMARK 921   NORMALIZED FREE ENERGY PREDICTED BY IDOCK:   -5.58 KCAL/MOL
REMARK 922        TOTAL FREE ENERGY PREDICTED BY IDOCK:  -11.10 KCAL/MOL
REMARK 923 INTER-LIGAND FREE ENERGY PREDICTED BY IDOCK:   -9.77 KCAL/MOL
REMARK 924 INTRA-LIGAND FREE ENERGY PREDICTED BY IDOCK:   -1.33 KCAL/MOL
REMARK 927      BINDING AFFINITY PREDICTED BY RF-SCORE:    0.00 PKD
ROOT
HETATM    1  C   UNL     1      -8.302  17.081  66.315  1.00  0.00    -0.308 C  
HETATM    2  C   UNL     1      -9.038  17.128  67.668  1.00  0.00    -0.227 C  
HETATM    3  C   UNL     1      -8.485  18.303  68.483  1.00  0.00    -0.325 C  
HETATM    4  C   UNL     1     -10.535  17.342  67.397  1.00  0.00    -0.338 C  
ENDROOT
BRANCH   2   5
HETATM    5  C   UNL     1      -8.836  15.785  68.387  1.00  0.00    -0.185 C  
HETATM    6  O   UNL     1      -8.823  15.671  69.609  1.00  0.00    -0.252 OA 
BRANCH   5   7
HETATM    7  O   UNL     1      -8.572  14.757  67.533  1.00  0.00    -0.166 OA 
BRANCH   7   8
HETATM    8  C   UNL     1      -9.714  13.934  67.224  1.00  0.00    -0.245 C  
BRANCH   8   9
HETATM    9  O   UNL     1     -10.295  13.309  68.365  1.00  0.00    -0.242 OA 
HETATM   10  P   UNL     1     -10.737  11.757  68.151  1.00  0.00    -0.242 P  
HETATM   11  C   UNL     1      -9.194  10.875  67.812  1.00  0.00    -0.153 C  
HETATM   12  O   UNL     1     -11.822  11.572  67.139  1.00  0.00    -0.595 OA 
HETATM   13  O   UNL     1     -11.038  11.174  69.621  1.00  0.00    -0.251 OA 
BRANCH  13  14
HETATM   14  C   UNL     1     -12.206  11.453  70.338  1.00  0.00    -0.362 C  
BRANCH  14  15
HETATM   15  O   UNL     1     -12.227  12.856  70.693  1.00  0.00    -0.372 OA 
BRANCH  15  16
HETATM   16  C   UNL     1     -12.983  13.182  71.779  1.00  0.00    -0.338 C  
HETATM   17  O   UNL     1     -13.604  12.365  72.450  1.00  0.00    -0.478 OA 
BRANCH  16  18
HETATM   18  C   UNL     1     -12.978  14.699  72.065  1.00  0.00    -0.411 C  
HETATM   19  C   UNL     1     -14.364  15.291  71.737  1.00  0.00    -0.678 C  
HETATM   20  C   UNL     1     -11.934  15.402  71.188  1.00  0.00    -0.414 C  
HETATM   21  C   UNL     1     -12.682  14.975  73.546  1.00  0.00    -0.667 C  
ENDBRANCH  16  18
ENDBRANCH  15  16
ENDBRANCH  14  15
ENDBRANCH  13  14
BRANCH  11  22
HETATM   22  O   UNL     1      -8.374  11.146  68.952  1.00  0.00    -0.150 OA 
BRANCH  22  23
HETATM   23  C   UNL     1      -7.735   9.993  69.459  1.00  0.00    -0.146 C  
BRANCH  23  24
HETATM   24  C   UNL     1      -8.537   8.771  69.032  1.00  0.00    -0.132 C  
BRANCH  24  25
HETATM   25  N   UNL     1      -8.677   7.858  70.136  1.00  0.00    -0.135 NA 
HETATM   26  C   UNL     1      -9.865   7.413  70.632  1.00  0.00    -0.179 A  
HETATM   27  N   UNL     1     -11.089   7.576  70.103  1.00  0.00    -0.255 NA 
HETATM   28  H2  UNL     1      -9.930   6.460  74.439  1.00  0.00     0.000 HD 
HETATM   29  H1  UNL     1     -11.228   5.451  74.436  1.00  0.00     0.000 HD 
HETATM   30  C   UNL     1      -7.686   7.473  70.998  1.00  0.00    -0.089 A  
HETATM   31  N   UNL     1      -8.173   6.840  72.044  1.00  0.00    -0.105 NA 
HETATM   32  C   UNL     1      -9.542   6.820  71.839  1.00  0.00    -0.148 A  
HETATM   33  C   UNL     1     -10.612   6.353  72.615  1.00  0.00    -0.224 A  
HETATM   34  N   UNL     1     -10.449   5.790  73.871  1.00  0.00    -0.267 NA 
HETATM   35  N   UNL     1     -11.867   6.460  72.114  1.00  0.00    -0.324 NA 
HETATM   36  C   UNL     1     -12.032   7.053  70.910  1.00  0.00    -0.364 A  
ENDBRANCH  24  25
ENDBRANCH  23  24
ENDBRANCH  22  23
ENDBRANCH  11  22
ENDBRANCH   8   9
ENDBRANCH   7   8
ENDBRANCH   5   7
ENDBRANCH   2   5
TORSDOF 12
ENDMDL
MODEL       61
REMARK 921   NORMALIZED FREE ENERGY PREDICTED BY IDOCK:   -5.57 KCAL/MOL
REMARK 922        TOTAL FREE ENERGY PREDICTED BY IDOCK:  -11.08 KCAL/MOL
REMARK 923 INTER-LIGAND FREE ENERGY PREDICTED BY IDOCK:   -9.67 KCAL/MOL
REMARK 924 INTRA-LIGAND FREE ENERGY PREDICTED BY IDOCK:   -1.41 KCAL/MOL
REMARK 927      BINDING AFFINITY PREDICTED BY RF-SCORE:    0.00 PKD
ROOT
HETATM    1  C   UNL     1     -11.755  14.158  64.055  1.00  0.00    -0.234 C  
HETATM    2  C   UNL     1     -11.616  12.625  64.139  1.00  0.00    -0.458 C  
HETATM    3  C   UNL     1     -12.840  11.988  63.471  1.00  0.00    -0.472 C  
HETATM    4  C   UNL     1     -10.340  12.214  63.388  1.00  0.00    -0.438 C  
ENDROOT
BRANCH   2   5
HETATM    5  C   UNL     1     -11.492  12.220  65.616  1.00  0.00    -0.368 C  
HETATM    6  O   UNL     1     -12.309  12.543  66.474  1.00  0.00    -0.507 OA 
BRANCH   5   7
HETATM    7  O   UNL     1     -10.335  11.555  65.892  1.00  0.00    -0.232 OA 
BRANCH   7   8
HETATM    8  C   UNL     1      -9.394  12.303  66.686  1.00  0.00    -0.228 C  
BRANCH   8   9
HETATM    9  O   UNL     1      -9.083  11.691  67.934  1.00  0.00    -0.159 OA 
HETATM   10  P   UNL     1      -7.560  11.130  68.067  1.00  0.00    -0.112 P  
HETATM   11  C   UNL     1      -6.511  12.598  67.938  1.00  0.00    -0.113 C  
HETATM   12  O   UNL     1      -7.240  10.022  67.117  1.00  0.00    -0.088 OA 
HETATM   13  O   UNL     1      -7.341  10.806  69.629  1.00  0.00    -0.145 OA 
BRANCH  13  14
HETATM   14  C   UNL     1      -7.860   9.672  70.261  1.00  0.00    -0.178 C  
BRANCH  14  15
HETATM   15  O   UNL     1      -9.303   9.679  70.150  1.00  0.00    -0.230 OA 
BRANCH  15  16
HETATM   16  C   UNL     1      -9.898   8.455  70.074  1.00  0.00    -0.182 C  
HETATM   17  O   UNL     1      -9.629   7.615  69.223  1.00  0.00    -0.158 OA 
BRANCH  16  18
HETATM   18  C   UNL     1     -10.959   8.248  71.176  1.00  0.00    -0.286 C  
HETATM   19  C   UNL     1     -11.879   7.071  70.792  1.00  0.00    -0.401 C  
HETATM   20  C   UNL     1     -11.823   9.506  71.326  1.00  0.00    -0.450 C  
HETATM   21  C   UNL     1     -10.293   7.911  72.519  1.00  0.00    -0.349 C  
ENDBRANCH  16  18
ENDBRANCH  15  16
ENDBRANCH  14  15
ENDBRANCH  13  14
BRANCH  11  22
HETATM   22  O   UNL     1      -6.962  13.451  68.993  1.00  0.00    -0.110 OA 
BRANCH  22  23
HETATM   23  C   UNL     1      -6.983  14.816  68.629  1.00  0.00    -0.110 C  
BRANCH  23  24
HETATM   24  C   UNL     1      -8.402  15.339  68.802  1.00  0.00    -0.179 C  
BRANCH  24  25
HETATM   25  N   UNL     1      -8.754  16.194  67.699  1.00  0.00    -0.176 NA 
HETATM   26  C   UNL     1      -9.282  17.444  67.820  1.00  0.00    -0.248 A  
HETATM   27  N   UNL     1      -9.404  18.179  68.937  1.00  0.00    -0.228 NA 
HETATM   28  H2  UNL     1     -11.601  18.659  64.896  1.00  0.00     0.000 HD 
HETATM   29  H1  UNL     1     -11.473  20.283  65.117  1.00  0.00     0.000 HD 
HETATM   30  C   UNL     1      -8.835  15.824  66.383  1.00  0.00    -0.336 A  
HETATM   31  N   UNL     1      -9.423  16.749  65.656  1.00  0.00    -0.505 NA 
HETATM   32  C   UNL     1      -9.733  17.759  66.551  1.00  0.00    -0.320 A  
HETATM   33  C   UNL     1     -10.416  18.975  66.413  1.00  0.00    -0.446 A  
HETATM   34  N   UNL     1     -10.976  19.398  65.217  1.00  0.00    -0.368 NA 
HETATM   35  N   UNL     1     -10.538  19.774  67.501  1.00  0.00    -0.430 NA 
HETATM   36  C   UNL     1     -10.034  19.341  68.678  1.00  0.00    -0.431 A  
ENDBRANCH  24  25
ENDBRANCH  23  24
ENDBRANCH  22  23
ENDBRANCH  11  22
ENDBRANCH   8   9
ENDBRANCH   7   8
ENDBRANCH   5   7
ENDBRANCH   2   5
TORSDOF 12
ENDMDL
MODEL       62
REMARK 921   NORMALIZED FREE ENERGY PREDICTED BY IDOCK:   -5.57 KCAL/MOL
REMARK 922        TOTAL FREE ENERGY PREDICTED BY IDOCK:  -11.07 KCAL/MOL
REMARK 923 INTER-LIGAND FREE ENERGY PREDICTED BY IDOCK:   -9.78 KCAL/MOL
REMARK 924 INTRA-LIGAND FREE ENERGY PREDICTED BY IDOCK:   -1.29 KCAL/MOL
REMARK 927      BINDING AFFINITY PREDICTED BY RF-SCORE:    0.00 PKD
ROOT
HETATM    1  C   UNL     1     -11.701  15.218  72.159  1.00  0.00    -0.537 C  
HETATM    2  C   UNL     1     -12.598  14.820  70.970  1.00  0.00    -0.401 C  
HETATM    3  C   UNL     1     -14.059  15.081  71.354  1.00  0.00    -0.576 C  
HETATM    4  C   UNL     1     -12.213  15.690  69.763  1.00  0.00    -0.293 C  
ENDROOT
BRANCH   2   5
HETATM    5  C   UNL     1     -12.348  13.341  70.636  1.00  0.00    -0.339 C  
HETATM    6  O   UNL     1     -12.788  12.414  71.310  1.00  0.00    -0.353 OA 
BRANCH   5   7
HETATM    7  O   UNL     1     -11.507  13.169  69.577  1.00  0.00    -0.264 OA 
BRANCH   7   8
HETATM    8  C   UNL     1     -12.095  12.475  68.460  1.00  0.00    -0.080 C  
BRANCH   8   9
HETATM    9  O   UNL     1     -11.182  12.227  67.394  1.00  0.00    -0.265 OA 
HETATM   10  P   UNL     1     -11.625  12.835  65.950  1.00  0.00    -0.422 P  
HETATM   11  C   UNL     1     -11.658  14.628  66.191  1.00  0.00    -0.332 C  
HETATM   12  O   UNL     1     -12.878  12.234  65.400  1.00  0.00    -0.384 OA 
HETATM   13  O   UNL     1     -10.323  12.737  65.009  1.00  0.00    -0.293 OA 
BRANCH  13  14
HETATM   14  C   UNL     1      -9.884  11.546  64.421  1.00  0.00    -0.241 C  
BRANCH  14  15
HETATM   15  O   UNL     1      -8.770  11.019  65.179  1.00  0.00    -0.161 OA 
BRANCH  15  16
HETATM   16  C   UNL     1      -9.026   9.894  65.906  1.00  0.00    -0.152 C  
HETATM   17  O   UNL     1     -10.118   9.338  65.945  1.00  0.00    -0.293 OA 
BRANCH  16  18
HETATM   18  C   UNL     1      -7.786   9.404  66.685  1.00  0.00    -0.104 C  
HETATM   19  C   UNL     1      -7.500   7.931  66.326  1.00  0.00    -0.079 C  
HETATM   20  C   UNL     1      -8.038   9.490  68.196  1.00  0.00    -0.102 C  
HETATM   21  C   UNL     1      -6.547  10.232  66.316  1.00  0.00    -0.100 C  
ENDBRANCH  16  18
ENDBRANCH  15  16
ENDBRANCH  14  15
ENDBRANCH  13  14
BRANCH  11  22
HETATM   22  O   UNL     1     -10.338  14.951  66.633  1.00  0.00    -0.273 OA 
BRANCH  22  23
HETATM   23  C   UNL     1      -9.646  15.795  65.737  1.00  0.00    -0.320 C  
BRANCH  23  24
HETATM   24  C   UNL     1     -10.323  17.159  65.740  1.00  0.00    -0.240 C  
BRANCH  24  25
HETATM   25  N   UNL     1      -9.792  17.975  66.800  1.00  0.00    -0.318 NA 
HETATM   26  C   UNL     1      -8.558  18.552  66.795  1.00  0.00    -0.284 A  
HETATM   27  N   UNL     1      -7.692  18.631  65.770  1.00  0.00    -0.501 NA 
HETATM   28  H2  UNL     1      -6.883  19.142  70.294  1.00  0.00     0.000 HD 
HETATM   29  H1  UNL     1      -5.831  20.338  69.884  1.00  0.00     0.000 HD 
HETATM   30  C   UNL     1     -10.322  18.118  68.053  1.00  0.00    -0.391 A  
HETATM   31  N   UNL     1      -9.482  18.718  68.869  1.00  0.00    -0.319 NA 
HETATM   32  C   UNL     1      -8.361  18.971  68.097  1.00  0.00    -0.312 A  
HETATM   33  C   UNL     1      -7.107  19.524  68.395  1.00  0.00    -0.314 A  
HETATM   34  N   UNL     1      -6.743  19.935  69.668  1.00  0.00    -0.338 NA 
HETATM   35  N   UNL     1      -6.208  19.661  67.391  1.00  0.00    -0.186 NA 
HETATM   36  C   UNL     1      -6.544  19.217  66.159  1.00  0.00    -0.209 A  
ENDBRANCH  24  25
ENDBRANCH  23  24
ENDBRANCH  22  23
ENDBRANCH  11  22
ENDBRANCH   8   9
ENDBRANCH   7   8
ENDBRANCH   5   7
ENDBRANCH   2   5
TORSDOF 12
ENDMDL
MODEL       63
REMARK 921   NORMALIZED FREE ENERGY PREDICTED BY IDOCK:   -5.56 KCAL/MOL
REMARK 922        TOTAL FREE ENERGY PREDICTED BY IDOCK:  -11.06 KCAL/MOL
REMARK 923 INTER-LIGAND FREE ENERGY PREDICTED BY IDOCK:   -9.56 KCAL/MOL
REMARK 924 INTRA-LIGAND FREE ENERGY PREDICTED BY IDOCK:   -1.50 KCAL/MOL
REMARK 927      BINDING AFFINITY PREDICTED BY RF-SCORE:    0.00 PKD
ROOT
HETATM    1  C   UNL     1      -9.917   7.245  73.755  1.00  0.00    -0.368 C  
HETATM    2  C   UNL     1     -10.570   6.346  72.687  1.00  0.00    -0.250 C  
HETATM    3  C   UNL     1      -9.474   5.830  71.747  1.00  0.00    -0.167 C  
HETATM    4  C   UNL     1     -11.246   5.164  73.399  1.00  0.00    -0.358 C  
ENDROOT
BRANCH   2   5
HETATM    5  C   UNL     1     -11.632   7.164  71.935  1.00  0.00    -0.278 C  
HETATM    6  O   UNL     1     -12.490   6.657  71.218  1.00  0.00    -0.340 OA 
BRANCH   5   7
HETATM    7  O   UNL     1     -11.461   8.510  72.068  1.00  0.00    -0.312 OA 
BRANCH   7   8
HETATM    8  C   UNL     1     -11.169   9.195  70.835  1.00  0.00    -0.295 C  
BRANCH   8   9
HETATM    9  O   UNL     1      -9.907   8.849  70.272  1.00  0.00    -0.169 OA 
HETATM   10  P   UNL     1      -9.954   8.363  68.719  1.00  0.00    -0.194 P  
HETATM   11  C   UNL     1     -10.551   9.802  67.799  1.00  0.00    -0.266 C  
HETATM   12  O   UNL     1     -10.720   7.097  68.506  1.00  0.00    -0.201 OA 
HETATM   13  O   UNL     1      -8.428   8.359  68.208  1.00  0.00    -0.133 OA 
BRANCH  13  14
HETATM   14  C   UNL     1      -7.507   7.359  68.538  1.00  0.00    -0.105 C  
BRANCH  14  15
HETATM   15  O   UNL     1      -8.149   6.065  68.443  1.00  0.00    -0.105 OA 
BRANCH  15  16
HETATM   16  C   UNL     1      -7.920   5.372  67.292  1.00  0.00    -0.101 C  
HETATM   17  O   UNL     1      -7.056   5.669  66.475  1.00  0.00    -0.069 OA 
BRANCH  16  18
HETATM   18  C   UNL     1      -8.880   4.174  67.126  1.00  0.00    -0.124 C  
HETATM   19  C   UNL     1     -10.056   4.578  66.214  1.00  0.00    -0.280 C  
HETATM   20  C   UNL     1      -9.449   3.756  68.488  1.00  0.00    -0.211 C  
HETATM   21  C   UNL     1      -8.161   2.984  66.475  1.00  0.00    -0.085 C  
ENDBRANCH  16  18
ENDBRANCH  15  16
ENDBRANCH  14  15
ENDBRANCH  13  14
BRANCH  11  22
HETATM   22  O   UNL     1      -9.611  10.835  68.108  1.00  0.00    -0.153 OA 
BRANCH  22  23
HETATM   23  C   UNL     1     -10.204  11.949  68.742  1.00  0.00    -0.143 C  
BRANCH  23  24
HETATM   24  C   UNL     1     -11.616  12.117  68.199  1.00  0.00    -0.337 C  
BRANCH  24  25
HETATM   25  N   UNL     1     -11.718  13.342  67.449  1.00  0.00    -0.355 NA 
HETATM   26  C   UNL     1     -12.071  13.423  66.136  1.00  0.00    -0.429 A  
HETATM   27  N   UNL     1     -12.557  12.445  65.354  1.00  0.00    -0.557 NA 
HETATM   28  H2  UNL     1     -10.616  16.455  64.113  1.00  0.00     0.000 HD 
HETATM   29  H1  UNL     1     -11.724  16.519  62.900  1.00  0.00     0.000 HD 
HETATM   30  C   UNL     1     -11.269  14.572  67.846  1.00  0.00    -0.295 A  
HETATM   31  N   UNL     1     -11.273  15.433  66.850  1.00  0.00    -0.269 NA 
HETATM   32  C   UNL     1     -11.749  14.716  65.766  1.00  0.00    -0.302 A  
HETATM   33  C   UNL     1     -11.928  15.044  64.414  1.00  0.00    -0.353 A  
HETATM   34  N   UNL     1     -11.594  16.280  63.883  1.00  0.00    -0.988 NA 
HETATM   35  N   UNL     1     -12.448  14.105  63.586  1.00  0.00    -0.797 NA 
HETATM   36  C   UNL     1     -12.729  12.883  64.092  1.00  0.00    -0.171 A  
ENDBRANCH  24  25
ENDBRANCH  23  24
ENDBRANCH  22  23
ENDBRANCH  11  22
ENDBRANCH   8   9
ENDBRANCH   7   8
ENDBRANCH   5   7
ENDBRANCH   2   5
TORSDOF 12
ENDMDL
MODEL       64
REMARK 921   NORMALIZED FREE ENERGY PREDICTED BY IDOCK:   -5.56 KCAL/MOL
REMARK 922        TOTAL FREE ENERGY PREDICTED BY IDOCK:  -11.05 KCAL/MOL
REMARK 923 INTER-LIGAND FREE ENERGY PREDICTED BY IDOCK:   -9.48 KCAL/MOL
REMARK 924 INTRA-LIGAND FREE ENERGY PREDICTED BY IDOCK:   -1.57 KCAL/MOL
REMARK 927      BINDING AFFINITY PREDICTED BY RF-SCORE:    0.00 PKD
ROOT
HETATM    1  C   UNL     1      -9.276   8.672  71.859  1.00  0.00    -0.345 C  
HETATM    2  C   UNL     1      -9.072   9.089  70.390  1.00  0.00    -0.242 C  
HETATM    3  C   UNL     1      -9.096   7.828  69.517  1.00  0.00    -0.146 C  
HETATM    4  C   UNL     1     -10.225  10.022  69.988  1.00  0.00    -0.306 C  
ENDROOT
BRANCH   2   5
HETATM    5  C   UNL     1      -7.738   9.844  70.271  1.00  0.00    -0.142 C  
HETATM    6  O   UNL     1      -6.854   9.786  71.120  1.00  0.00    -0.314 OA 
BRANCH   5   7
HETATM    7  O   UNL     1      -7.682  10.658  69.180  1.00  0.00    -0.117 OA 
BRANCH   7   8
HETATM    8  C   UNL     1      -6.574  11.578  69.183  1.00  0.00    -0.102 C  
BRANCH   8   9
HETATM    9  O   UNL     1      -6.963  12.945  69.294  1.00  0.00    -0.066 OA 
HETATM   10  P   UNL     1      -7.078  13.747  67.882  1.00  0.00    -0.190 P  
HETATM   11  C   UNL     1      -8.400  12.908  66.977  1.00  0.00    -0.107 C  
HETATM   12  O   UNL     1      -5.779  13.877  67.155  1.00  0.00    -0.218 OA 
HETATM   13  O   UNL     1      -7.841  15.124  68.215  1.00  0.00    -0.118 OA 
BRANCH  13  14
HETATM   14  C   UNL     1      -7.227  16.217  68.835  1.00  0.00    -0.178 C  
BRANCH  14  15
HETATM   15  O   UNL     1      -7.097  17.299  67.882  1.00  0.00    -0.162 OA 
BRANCH  15  16
HETATM   16  C   UNL     1      -7.509  18.524  68.315  1.00  0.00    -0.281 C  
HETATM   17  O   UNL     1      -6.905  19.197  69.142  1.00  0.00    -0.309 OA 
BRANCH  16  18
HETATM   18  C   UNL     1      -8.832  18.965  67.654  1.00  0.00    -0.312 C  
HETATM   19  C   UNL     1      -8.654  20.363  67.027  1.00  0.00    -0.370 C  
HETATM   20  C   UNL     1      -9.950  19.047  68.701  1.00  0.00    -0.482 C  
HETATM   21  C   UNL     1      -9.236  17.992  66.536  1.00  0.00    -0.286 C  
ENDBRANCH  16  18
ENDBRANCH  15  16
ENDBRANCH  14  15
ENDBRANCH  13  14
BRANCH  11  22
HETATM   22  O   UNL     1      -9.533  12.993  67.844  1.00  0.00    -0.203 OA 
BRANCH  22  23
HETATM   23  C   UNL     1     -10.689  13.484  67.197  1.00  0.00    -0.279 C  
BRANCH  23  24
HETATM   24  C   UNL     1     -11.901  13.152  68.057  1.00  0.00    -0.358 C  
BRANCH  24  25
HETATM   25  N   UNL     1     -11.925  13.992  69.226  1.00  0.00    -0.337 NA 
HETATM   26  C   UNL     1     -12.411  13.618  70.443  1.00  0.00    -0.345 A  
HETATM   27  N   UNL     1     -12.777  12.388  70.838  1.00  0.00    -0.246 NA 
HETATM   28  H2  UNL     1     -13.863  16.477  72.705  1.00  0.00     0.000 HD 
HETATM   29  H1  UNL     1     -13.723  15.749  74.172  1.00  0.00     0.000 HD 
HETATM   30  C   UNL     1     -11.689  15.339  69.258  1.00  0.00    -0.338 A  
HETATM   31  N   UNL     1     -12.033  15.864  70.415  1.00  0.00    -0.348 NA 
HETATM   32  C   UNL     1     -12.513  14.797  71.156  1.00  0.00    -0.329 A  
HETATM   33  C   UNL     1     -13.085  14.709  72.434  1.00  0.00    -0.387 A  
HETATM   34  N   UNL     1     -13.307  15.813  73.243  1.00  0.00    -0.568 NA 
HETATM   35  N   UNL     1     -13.441  13.487  72.898  1.00  0.00    -0.569 NA 
HETATM   36  C   UNL     1     -13.270  12.416  72.091  1.00  0.00    -0.385 A  
ENDBRANCH  24  25
ENDBRANCH  23  24
ENDBRANCH  22  23
ENDBRANCH  11  22
ENDBRANCH   8   9
ENDBRANCH   7   8
ENDBRANCH   5   7
ENDBRANCH   2   5
TORSDOF 12
ENDMDL
MODEL       65
REMARK 921   NORMALIZED FREE ENERGY PREDICTED BY IDOCK:   -5.53 KCAL/MOL
REMARK 922        TOTAL FREE ENERGY PREDICTED BY IDOCK:  -11.00 KCAL/MOL
REMARK 923 INTER-LIGAND FREE ENERGY PREDICTED BY IDOCK:   -9.11 KCAL/MOL
REMARK 924 INTRA-LIGAND FREE ENERGY PREDICTED BY IDOCK:   -1.89 KCAL/MOL
REMARK 927      BINDING AFFINITY PREDICTED BY RF-SCORE:    0.00 PKD
ROOT
HETATM    1  C   UNL     1     -10.818  17.136  68.408  1.00  0.00    -0.309 C  
HETATM    2  C   UNL     1      -9.942  17.947  67.433  1.00  0.00    -0.325 C  
HETATM    3  C   UNL     1     -10.714  19.204  67.015  1.00  0.00    -0.542 C  
HETATM    4  C   UNL     1      -8.651  18.348  68.163  1.00  0.00    -0.301 C  
ENDROOT
BRANCH   2   5
HETATM    5  C   UNL     1      -9.593  17.061  66.227  1.00  0.00    -0.267 C  
HETATM    6  O   UNL     1      -8.453  16.681  65.978  1.00  0.00    -0.409 OA 
BRANCH   5   7
HETATM    7  O   UNL     1     -10.660  16.825  65.412  1.00  0.00    -0.563 OA 
BRANCH   7   8
HETATM    8  C   UNL     1     -10.664  15.520  64.803  1.00  0.00    -0.304 C  
BRANCH   8   9
HETATM    9  O   UNL     1     -10.793  14.451  65.736  1.00  0.00    -0.292 OA 
HETATM   10  P   UNL     1     -11.960  13.370  65.389  1.00  0.00    -0.445 P  
HETATM   11  C   UNL     1     -11.453  12.624  63.821  1.00  0.00    -0.470 C  
HETATM   12  O   UNL     1     -13.340  13.942  65.416  1.00  0.00    -0.710 OA 
HETATM   13  O   UNL     1     -11.699  12.110  66.357  1.00  0.00    -0.489 OA 
BRANCH  13  14
HETATM   14  C   UNL     1     -12.032  12.099  67.715  1.00  0.00    -0.128 C  
BRANCH  14  15
HETATM   15  O   UNL     1     -11.866  10.760  68.239  1.00  0.00    -0.504 OA 
BRANCH  15  16
HETATM   16  C   UNL     1     -10.729  10.542  68.960  1.00  0.00    -0.225 C  
HETATM   17  O   UNL     1      -9.696  11.186  68.820  1.00  0.00    -0.197 OA 
BRANCH  16  18
HETATM   18  C   UNL     1     -10.887   9.384  69.969  1.00  0.00    -0.271 C  
HETATM   19  C   UNL     1      -9.635   9.308  70.867  1.00  0.00    -0.339 C  
HETATM   20  C   UNL     1     -11.029   8.048  69.228  1.00  0.00     0.023 C  
HETATM   21  C   UNL     1     -12.107   9.609  70.873  1.00  0.00    -0.383 C  
ENDBRANCH  16  18
ENDBRANCH  15  16
ENDBRANCH  14  15
ENDBRANCH  13  14
BRANCH  11  22
HETATM   22  O   UNL     1     -10.155  12.087  64.087  1.00  0.00    -0.301 OA 
BRANCH  22  23
HETATM   23  C   UNL     1      -9.941  10.831  63.477  1.00  0.00    -0.344 C  
BRANCH  23  24
HETATM   24  C   UNL     1      -8.527  10.372  63.804  1.00  0.00    -0.162 C  
BRANCH  24  25
HETATM   25  N   UNL     1      -8.499   9.725  65.090  1.00  0.00    -0.140 NA 
HETATM   26  C   UNL     1      -7.633  10.029  66.096  1.00  0.00    -0.109 A  
HETATM   27  N   UNL     1      -6.788  11.071  66.165  1.00  0.00    -0.100 NA 
HETATM   28  H2  UNL     1      -6.719   7.118  68.565  1.00  0.00     0.000 HD 
HETATM   29  H1  UNL     1      -6.240   8.012  69.859  1.00  0.00     0.000 HD 
HETATM   30  C   UNL     1      -9.160   8.576  65.431  1.00  0.00    -0.043 A  
HETATM   31  N   UNL     1      -8.739   8.099  66.583  1.00  0.00    -0.133 NA 
HETATM   32  C   UNL     1      -7.761   8.988  66.996  1.00  0.00    -0.098 A  
HETATM   33  C   UNL     1      -6.897   9.004  68.101  1.00  0.00    -0.069 A  
HETATM   34  N   UNL     1      -6.868   8.000  69.056  1.00  0.00    -0.055 NA 
HETATM   35  N   UNL     1      -6.048  10.051  68.240  1.00  0.00    -0.045 NA 
HETATM   36  C   UNL     1      -6.041  11.007  67.284  1.00  0.00    -0.066 A  
ENDBRANCH  24  25
ENDBRANCH  23  24
ENDBRANCH  22  23
ENDBRANCH  11  22
ENDBRANCH   8   9
ENDBRANCH   7   8
ENDBRANCH   5   7
ENDBRANCH   2   5
TORSDOF 12
ENDMDL
MODEL       66
REMARK 921   NORMALIZED FREE ENERGY PREDICTED BY IDOCK:   -5.51 KCAL/MOL
REMARK 922        TOTAL FREE ENERGY PREDICTED BY IDOCK:  -10.97 KCAL/MOL
REMARK 923 INTER-LIGAND FREE ENERGY PREDICTED BY IDOCK:   -9.94 KCAL/MOL
REMARK 924 INTRA-LIGAND FREE ENERGY PREDICTED BY IDOCK:   -1.03 KCAL/MOL
REMARK 927      BINDING AFFINITY PREDICTED BY RF-SCORE:    0.00 PKD
ROOT
HETATM    1  C   UNL     1     -12.526  14.879  73.451  1.00  0.00    -0.565 C  
HETATM    2  C   UNL     1     -13.006  14.680  72.001  1.00  0.00    -0.411 C  
HETATM    3  C   UNL     1     -14.403  15.296  71.861  1.00  0.00    -0.691 C  
HETATM    4  C   UNL     1     -12.023  15.399  71.064  1.00  0.00    -0.409 C  
ENDROOT
BRANCH   2   5
HETATM    5  C   UNL     1     -13.008  13.176  71.683  1.00  0.00    -0.335 C  
HETATM    6  O   UNL     1     -13.572  12.341  72.382  1.00  0.00    -0.431 OA 
BRANCH   5   7
HETATM    7  O   UNL     1     -12.237  12.858  70.604  1.00  0.00    -0.372 OA 
BRANCH   7   8
HETATM    8  C   UNL     1     -12.036  11.445  70.415  1.00  0.00    -0.384 C  
BRANCH   8   9
HETATM    9  O   UNL     1     -11.796  11.077  69.059  1.00  0.00    -0.310 OA 
HETATM   10  P   UNL     1     -10.227  10.926  68.653  1.00  0.00    -0.204 P  
HETATM   11  C   UNL     1      -9.611   9.565  69.673  1.00  0.00    -0.202 C  
HETATM   12  O   UNL     1      -9.454  12.202  68.744  1.00  0.00    -0.090 OA 
HETATM   13  O   UNL     1     -10.207  10.190  67.221  1.00  0.00    -0.197 OA 
BRANCH  13  14
HETATM   14  C   UNL     1     -10.502  10.838  66.017  1.00  0.00    -0.208 C  
BRANCH  14  15
HETATM   15  O   UNL     1     -10.088  12.222  66.104  1.00  0.00    -0.234 OA 
BRANCH  15  16
HETATM   16  C   UNL     1     -10.460  13.019  65.062  1.00  0.00    -0.328 C  
HETATM   17  O   UNL     1     -10.251  12.747  63.884  1.00  0.00    -0.402 OA 
BRANCH  16  18
HETATM   18  C   UNL     1     -11.165  14.309  65.531  1.00  0.00    -0.320 C  
HETATM   19  C   UNL     1     -10.154  15.475  65.542  1.00  0.00    -0.406 C  
HETATM   20  C   UNL     1     -11.709  14.131  66.954  1.00  0.00    -0.437 C  
HETATM   21  C   UNL     1     -12.310  14.683  64.579  1.00  0.00    -0.416 C  
ENDBRANCH  16  18
ENDBRANCH  15  16
ENDBRANCH  14  15
ENDBRANCH  13  14
BRANCH  11  22
HETATM   22  O   UNL     1     -10.457   8.461  69.340  1.00  0.00    -0.217 OA 
BRANCH  22  23
HETATM   23  C   UNL     1     -10.727   7.621  70.443  1.00  0.00    -0.236 C  
BRANCH  23  24
HETATM   24  C   UNL     1     -11.461   6.386  69.938  1.00  0.00    -0.415 C  
BRANCH  24  25
HETATM   25  N   UNL     1     -10.523   5.431  69.409  1.00  0.00    -0.274 NA 
HETATM   26  C   UNL     1     -10.366   5.145  68.086  1.00  0.00    -0.071 A  
HETATM   27  N   UNL     1     -10.896   5.795  67.037  1.00  0.00    -0.285 NA 
HETATM   28  H2  UNL     1      -9.127   1.525  67.211  1.00  0.00     0.000 HD 
HETATM   29  H1  UNL     1      -8.503   1.815  65.718  1.00  0.00     0.000 HD 
HETATM   30  C   UNL     1      -9.814   4.510  70.130  1.00  0.00    -0.226 A  
HETATM   31  N   UNL     1      -9.241   3.620  69.348  1.00  0.00    -0.141 NA 
HETATM   32  C   UNL     1      -9.604   3.992  68.065  1.00  0.00    -0.136 A  
HETATM   33  C   UNL     1      -9.370   3.418  66.807  1.00  0.00    -0.167 A  
HETATM   34  N   UNL     1      -8.673   2.232  66.633  1.00  0.00    -0.115 NA 
HETATM   35  N   UNL     1      -9.851   4.051  65.710  1.00  0.00    -0.193 NA 
HETATM   36  C   UNL     1     -10.571   5.182  65.882  1.00  0.00    -0.112 A  
ENDBRANCH  24  25
ENDBRANCH  23  24
ENDBRANCH  22  23
ENDBRANCH  11  22
ENDBRANCH   8   9
ENDBRANCH   7   8
ENDBRANCH   5   7
ENDBRANCH   2   5
TORSDOF 12
ENDMDL
MODEL       67
REMARK 921   NORMALIZED FREE ENERGY PREDICTED BY IDOCK:   -5.50 KCAL/MOL
REMARK 922        TOTAL FREE ENERGY PREDICTED BY IDOCK:  -10.96 KCAL/MOL
REMARK 923 INTER-LIGAND FREE ENERGY PREDICTED BY IDOCK:  -10.11 KCAL/MOL
REMARK 924 INTRA-LIGAND FREE ENERGY PREDICTED BY IDOCK:   -0.85 KCAL/MOL
REMARK 927      BINDING AFFINITY PREDICTED BY RF-SCORE:    0.00 PKD
ROOT
HETATM    1  C   UNL     1      -7.284  10.301  64.863  1.00  0.00    -0.100 C  
HETATM    2  C   UNL     1      -8.507   9.411  64.568  1.00  0.00    -0.189 C  
HETATM    3  C   UNL     1      -9.127   9.860  63.240  1.00  0.00    -0.294 C  
HETATM    4  C   UNL     1      -8.028   7.955  64.454  1.00  0.00    -0.132 C  
ENDROOT
BRANCH   2   5
HETATM    5  C   UNL     1      -9.500   9.532  65.735  1.00  0.00    -0.250 C  
HETATM    6  O   UNL     1     -10.190   8.598  66.132  1.00  0.00    -0.210 OA 
BRANCH   5   7
HETATM    7  O   UNL     1      -9.607  10.804  66.214  1.00  0.00    -0.184 OA 
BRANCH   7   8
HETATM    8  C   UNL     1     -10.932  11.361  66.126  1.00  0.00    -0.236 C  
BRANCH   8   9
HETATM    9  O   UNL     1     -11.685  11.245  67.330  1.00  0.00    -0.580 OA 
HETATM   10  P   UNL     1     -10.864  11.586  68.693  1.00  0.00    -0.242 P  
HETATM   11  C   UNL     1     -10.408  13.330  68.539  1.00  0.00    -0.239 C  
HETATM   12  O   UNL     1      -9.735  10.645  68.970  1.00  0.00    -0.194 OA 
HETATM   13  O   UNL     1     -11.969  11.722  69.856  1.00  0.00    -0.312 OA 
BRANCH  13  14
HETATM   14  C   UNL     1     -12.596  10.625  70.456  1.00  0.00    -0.348 C  
BRANCH  14  15
HETATM   15  O   UNL     1     -11.726  10.074  71.474  1.00  0.00    -0.365 OA 
BRANCH  15  16
HETATM   16  C   UNL     1     -12.062   8.835  71.933  1.00  0.00    -0.363 C  
HETATM   17  O   UNL     1     -13.192   8.520  72.289  1.00  0.00    -0.348 OA 
BRANCH  16  18
HETATM   18  C   UNL     1     -10.854   7.873  71.965  1.00  0.00    -0.312 C  
HETATM   19  C   UNL     1      -9.549   8.678  71.796  1.00  0.00    -0.360 C  
HETATM   20  C   UNL     1     -10.948   6.862  70.815  1.00  0.00    -0.297 C  
HETATM   21  C   UNL     1     -10.783   7.130  73.307  1.00  0.00    -0.403 C  
ENDBRANCH  16  18
ENDBRANCH  15  16
ENDBRANCH  14  15
ENDBRANCH  13  14
BRANCH  11  22
HETATM   22  O   UNL     1     -11.655  14.008  68.367  1.00  0.00    -0.290 OA 
BRANCH  22  23
HETATM   23  C   UNL     1     -11.503  15.394  68.141  1.00  0.00    -0.343 C  
BRANCH  23  24
HETATM   24  C   UNL     1     -11.124  15.606  66.682  1.00  0.00    -0.147 C  
BRANCH  24  25
HETATM   25  N   UNL     1      -9.950  16.434  66.588  1.00  0.00    -0.260 NA 
HETATM   26  C   UNL     1      -9.923  17.775  66.825  1.00  0.00    -0.333 A  
HETATM   27  N   UNL     1     -10.896  18.536  67.351  1.00  0.00    -0.379 NA 
HETATM   28  H2  UNL     1      -7.207  19.842  64.887  1.00  0.00     0.000 HD 
HETATM   29  H1  UNL     1      -7.111  21.148  65.881  1.00  0.00     0.000 HD 
HETATM   30  C   UNL     1      -8.750  16.074  66.039  1.00  0.00    -0.232 A  
HETATM   31  N   UNL     1      -7.963  17.116  65.869  1.00  0.00    -0.486 NA 
HETATM   32  C   UNL     1      -8.700  18.192  66.334  1.00  0.00    -0.231 A  
HETATM   33  C   UNL     1      -8.449  19.572  66.366  1.00  0.00    -0.352 A  
HETATM   34  N   UNL     1      -7.294  20.145  65.857  1.00  0.00    -0.293 NA 
HETATM   35  N   UNL     1      -9.382  20.384  66.920  1.00  0.00    -0.363 NA 
HETATM   36  C   UNL     1     -10.530  19.832  67.373  1.00  0.00    -0.442 A  
ENDBRANCH  24  25
ENDBRANCH  23  24
ENDBRANCH  22  23
ENDBRANCH  11  22
ENDBRANCH   8   9
ENDBRANCH   7   8
ENDBRANCH   5   7
ENDBRANCH   2   5
TORSDOF 12
ENDMDL
MODEL       68
REMARK 921   NORMALIZED FREE ENERGY PREDICTED BY IDOCK:   -5.50 KCAL/MOL
REMARK 922        TOTAL FREE ENERGY PREDICTED BY IDOCK:  -10.95 KCAL/MOL
REMARK 923 INTER-LIGAND FREE ENERGY PREDICTED BY IDOCK:   -9.07 KCAL/MOL
REMARK 924 INTRA-LIGAND FREE ENERGY PREDICTED BY IDOCK:   -1.88 KCAL/MOL
REMARK 927      BINDING AFFINITY PREDICTED BY RF-SCORE:    0.00 PKD
ROOT
HETATM    1  C   UNL     1     -11.591  14.035  64.103  1.00  0.00    -0.289 C  
HETATM    2  C   UNL     1     -11.736  12.558  64.520  1.00  0.00    -0.423 C  
HETATM    3  C   UNL     1     -12.140  12.507  65.998  1.00  0.00    -0.390 C  
HETATM    4  C   UNL     1     -12.835  11.918  63.657  1.00  0.00    -0.429 C  
ENDROOT
BRANCH   2   5
HETATM    5  C   UNL     1     -10.402  11.840  64.264  1.00  0.00    -0.314 C  
HETATM    6  O   UNL     1      -9.872  11.776  63.159  1.00  0.00    -0.409 OA 
BRANCH   5   7
HETATM    7  O   UNL     1      -9.922  11.198  65.367  1.00  0.00    -0.232 OA 
BRANCH   7   8
HETATM    8  C   UNL     1      -9.690   9.789  65.180  1.00  0.00    -0.268 C  
BRANCH   8   9
HETATM    9  O   UNL     1     -10.211   8.978  66.229  1.00  0.00    -0.284 OA 
HETATM   10  P   UNL     1      -9.156   7.916  66.869  1.00  0.00    -0.159 P  
HETATM   11  C   UNL     1      -7.858   8.937  67.606  1.00  0.00    -0.101 C  
HETATM   12  O   UNL     1      -8.690   6.873  65.906  1.00  0.00    -0.152 OA 
HETATM   13  O   UNL     1      -9.840   7.372  68.222  1.00  0.00    -0.153 OA 
BRANCH  13  14
HETATM   14  C   UNL     1     -10.869   6.426  68.239  1.00  0.00    -0.309 C  
BRANCH  14  15
HETATM   15  O   UNL     1     -11.766   6.713  69.338  1.00  0.00    -0.228 OA 
BRANCH  15  16
HETATM   16  C   UNL     1     -11.218   6.646  70.584  1.00  0.00    -0.317 C  
HETATM   17  O   UNL     1     -10.510   5.724  70.972  1.00  0.00    -0.221 OA 
BRANCH  16  18
HETATM   18  C   UNL     1     -11.599   7.860  71.459  1.00  0.00    -0.306 C  
HETATM   19  C   UNL     1     -13.133   8.018  71.482  1.00  0.00    -0.322 C  
HETATM   20  C   UNL     1     -10.991   9.144  70.881  1.00  0.00    -0.349 C  
HETATM   21  C   UNL     1     -11.120   7.662  72.905  1.00  0.00    -0.448 C  
ENDBRANCH  16  18
ENDBRANCH  15  16
ENDBRANCH  14  15
ENDBRANCH  13  14
BRANCH  11  22
HETATM   22  O   UNL     1      -8.550   9.776  68.534  1.00  0.00    -0.116 OA 
BRANCH  22  23
HETATM   23  C   UNL     1      -8.228  11.144  68.390  1.00  0.00    -0.144 C  
BRANCH  23  24
HETATM   24  C   UNL     1      -9.507  11.958  68.527  1.00  0.00    -0.148 C  
BRANCH  24  25
HETATM   25  N   UNL     1      -9.305  13.290  68.022  1.00  0.00    -0.212 NA 
HETATM   26  C   UNL     1     -10.080  14.366  68.333  1.00  0.00    -0.244 A  
HETATM   27  N   UNL     1     -11.034  14.447  69.275  1.00  0.00    -0.258 NA 
HETATM   28  H2  UNL     1     -10.334  17.188  65.616  1.00  0.00     0.000 HD 
HETATM   29  H1  UNL     1     -10.767  18.445  66.583  1.00  0.00     0.000 HD 
HETATM   30  C   UNL     1      -8.472  13.648  66.997  1.00  0.00    -0.125 A  
HETATM   31  N   UNL     1      -8.695  14.883  66.601  1.00  0.00    -0.255 NA 
HETATM   32  C   UNL     1      -9.720  15.335  67.414  1.00  0.00    -0.208 A  
HETATM   33  C   UNL     1     -10.446  16.534  67.451  1.00  0.00    -0.310 A  
HETATM   34  N   UNL     1     -10.239  17.573  66.556  1.00  0.00    -0.334 NA 
HETATM   35  N   UNL     1     -11.397  16.684  68.405  1.00  0.00    -0.248 NA 
HETATM   36  C   UNL     1     -11.632  15.653  69.247  1.00  0.00    -0.366 A  
ENDBRANCH  24  25
ENDBRANCH  23  24
ENDBRANCH  22  23
ENDBRANCH  11  22
ENDBRANCH   8   9
ENDBRANCH   7   8
ENDBRANCH   5   7
ENDBRANCH   2   5
TORSDOF 12
ENDMDL
MODEL       69
REMARK 921   NORMALIZED FREE ENERGY PREDICTED BY IDOCK:   -5.49 KCAL/MOL
REMARK 922        TOTAL FREE ENERGY PREDICTED BY IDOCK:  -10.94 KCAL/MOL
REMARK 923 INTER-LIGAND FREE ENERGY PREDICTED BY IDOCK:   -8.91 KCAL/MOL
REMARK 924 INTRA-LIGAND FREE ENERGY PREDICTED BY IDOCK:   -2.03 KCAL/MOL
REMARK 927      BINDING AFFINITY PREDICTED BY RF-SCORE:    0.00 PKD
ROOT
HETATM    1  C   UNL     1     -13.320   8.273  71.918  1.00  0.00    -0.364 C  
HETATM    2  C   UNL     1     -11.826   8.017  71.641  1.00  0.00    -0.329 C  
HETATM    3  C   UNL     1     -11.159   7.560  72.944  1.00  0.00    -0.426 C  
HETATM    4  C   UNL     1     -11.715   6.908  70.582  1.00  0.00    -0.417 C  
ENDROOT
BRANCH   2   5
HETATM    5  C   UNL     1     -11.196   9.308  71.095  1.00  0.00    -0.343 C  
HETATM    6  O   UNL     1     -11.813  10.126  70.419  1.00  0.00    -0.267 OA 
BRANCH   5   7
HETATM    7  O   UNL     1      -9.861   9.401  71.355  1.00  0.00    -0.260 OA 
BRANCH   7   8
HETATM    8  C   UNL     1      -9.021   9.301  70.189  1.00  0.00    -0.214 C  
BRANCH   8   9
HETATM    9  O   UNL     1      -8.714  10.558  69.593  1.00  0.00    -0.105 OA 
HETATM   10  P   UNL     1      -7.129  10.837  69.349  1.00  0.00    -0.113 P  
HETATM   11  C   UNL     1      -6.610   9.569  68.168  1.00  0.00    -0.062 C  
HETATM   12  O   UNL     1      -6.328  10.914  70.608  1.00  0.00    -0.321 OA 
HETATM   13  O   UNL     1      -7.048  12.122  68.382  1.00  0.00    -0.076 OA 
BRANCH  13  14
HETATM   14  C   UNL     1      -7.255  13.433  68.823  1.00  0.00    -0.092 C  
BRANCH  14  15
HETATM   15  O   UNL     1      -8.010  14.161  67.826  1.00  0.00    -0.140 OA 
BRANCH  15  16
HETATM   16  C   UNL     1      -9.254  14.572  68.206  1.00  0.00    -0.201 C  
HETATM   17  O   UNL     1     -10.068  13.852  68.773  1.00  0.00    -0.221 OA 
BRANCH  16  18
HETATM   18  C   UNL     1      -9.526  16.044  67.831  1.00  0.00    -0.210 C  
HETATM   19  C   UNL     1      -8.523  16.958  68.565  1.00  0.00    -0.258 C  
HETATM   20  C   UNL     1     -10.944  16.448  68.255  1.00  0.00    -0.355 C  
HETATM   21  C   UNL     1      -9.352  16.265  66.321  1.00  0.00    -0.360 C  
ENDBRANCH  16  18
ENDBRANCH  15  16
ENDBRANCH  14  15
ENDBRANCH  13  14
BRANCH  11  22
HETATM   22  O   UNL     1      -7.466   9.764  67.039  1.00  0.00    -0.091 OA 
BRANCH  22  23
HETATM   23  C   UNL     1      -8.255   8.630  66.742  1.00  0.00    -0.108 C  
BRANCH  23  24
HETATM   24  C   UNL     1      -9.115   8.947  65.526  1.00  0.00    -0.190 C  
BRANCH  24  25
HETATM   25  N   UNL     1     -10.136   9.900  65.874  1.00  0.00    -0.268 NA 
HETATM   26  C   UNL     1     -10.473  10.988  65.127  1.00  0.00    -0.262 A  
HETATM   27  N   UNL     1     -10.074  11.282  63.878  1.00  0.00    -0.305 NA 
HETATM   28  H2  UNL     1     -11.896  14.083  67.076  1.00  0.00     0.000 HD 
HETATM   29  H1  UNL     1     -12.707  14.816  65.848  1.00  0.00     0.000 HD 
HETATM   30  C   UNL     1     -10.763  10.006  67.086  1.00  0.00    -0.212 A  
HETATM   31  N   UNL     1     -11.453  11.122  67.178  1.00  0.00    -0.473 NA 
HETATM   32  C   UNL     1     -11.257  11.759  65.964  1.00  0.00    -0.296 A  
HETATM   33  C   UNL     1     -11.668  13.004  65.467  1.00  0.00    -0.368 A  
HETATM   34  N   UNL     1     -12.408  13.911  66.210  1.00  0.00    -0.460 NA 
HETATM   35  N   UNL     1     -11.324  13.338  64.199  1.00  0.00    -0.386 NA 
HETATM   36  C   UNL     1     -10.562  12.476  63.489  1.00  0.00    -0.355 A  
ENDBRANCH  24  25
ENDBRANCH  23  24
ENDBRANCH  22  23
ENDBRANCH  11  22
ENDBRANCH   8   9
ENDBRANCH   7   8
ENDBRANCH   5   7
ENDBRANCH   2   5
TORSDOF 12
ENDMDL
MODEL       70
REMARK 921   NORMALIZED FREE ENERGY PREDICTED BY IDOCK:   -5.49 KCAL/MOL
REMARK 922        TOTAL FREE ENERGY PREDICTED BY IDOCK:  -10.94 KCAL/MOL
REMARK 923 INTER-LIGAND FREE ENERGY PREDICTED BY IDOCK:   -9.33 KCAL/MOL
REMARK 924 INTRA-LIGAND FREE ENERGY PREDICTED BY IDOCK:   -1.61 KCAL/MOL
REMARK 927      BINDING AFFINITY PREDICTED BY RF-SCORE:    0.00 PKD
ROOT
HETATM    1  C   UNL     1     -13.139   7.032  71.360  1.00  0.00    -0.375 C  
HETATM    2  C   UNL     1     -11.607   6.917  71.240  1.00  0.00    -0.352 C  
HETATM    3  C   UNL     1     -11.076   6.180  72.475  1.00  0.00    -0.313 C  
HETATM    4  C   UNL     1     -11.281   6.111  69.973  1.00  0.00    -0.471 C  
ENDROOT
BRANCH   2   5
HETATM    5  C   UNL     1     -11.014   8.329  71.114  1.00  0.00    -0.245 C  
HETATM    6  O   UNL     1     -11.554   9.330  71.576  1.00  0.00    -0.329 OA 
BRANCH   5   7
HETATM    7  O   UNL     1      -9.883   8.367  70.354  1.00  0.00    -0.178 OA 
BRANCH   7   8
HETATM    8  C   UNL     1      -9.686   9.605  69.645  1.00  0.00    -0.213 C  
BRANCH   8   9
HETATM    9  O   UNL     1      -8.979   9.457  68.417  1.00  0.00    -0.128 OA 
HETATM   10  P   UNL     1      -9.916   9.334  67.092  1.00  0.00    -0.257 P  
HETATM   11  C   UNL     1     -10.792  10.914  66.993  1.00  0.00    -0.266 C  
HETATM   12  O   UNL     1     -10.780   8.114  67.073  1.00  0.00    -0.321 OA 
HETATM   13  O   UNL     1      -8.930   9.519  65.832  1.00  0.00    -0.153 OA 
BRANCH  13  14
HETATM   14  C   UNL     1      -8.072   8.516  65.371  1.00  0.00    -0.127 C  
BRANCH  14  15
HETATM   15  O   UNL     1      -8.043   7.431  66.329  1.00  0.00    -0.108 OA 
BRANCH  15  16
HETATM   16  C   UNL     1      -8.207   6.180  65.813  1.00  0.00    -0.138 C  
HETATM   17  O   UNL     1      -8.208   5.929  64.613  1.00  0.00    -0.133 OA 
BRANCH  16  18
HETATM   18  C   UNL     1      -8.403   5.113  66.911  1.00  0.00    -0.107 C  
HETATM   19  C   UNL     1      -8.151   5.745  68.296  1.00  0.00    -0.108 C  
HETATM   20  C   UNL     1      -7.408   3.961  66.719  1.00  0.00    -0.072 C  
HETATM   21  C   UNL     1      -9.839   4.568  66.893  1.00  0.00    -0.238 C  
ENDBRANCH  16  18
ENDBRANCH  15  16
ENDBRANCH  14  15
ENDBRANCH  13  14
BRANCH  11  22
HETATM   22  O   UNL     1      -9.751  11.893  66.941  1.00  0.00    -0.195 OA 
BRANCH  22  23
HETATM   23  C   UNL     1     -10.082  13.087  67.619  1.00  0.00    -0.217 C  
BRANCH  23  24
HETATM   24  C   UNL     1     -11.546  13.018  68.031  1.00  0.00    -0.343 C  
BRANCH  24  25
HETATM   25  N   UNL     1     -11.804  13.935  69.110  1.00  0.00    -0.337 NA 
HETATM   26  C   UNL     1     -12.361  13.594  70.305  1.00  0.00    -0.322 A  
HETATM   27  N   UNL     1     -12.602  12.359  70.777  1.00  0.00    -0.266 NA 
HETATM   28  H2  UNL     1     -14.406  16.390  72.149  1.00  0.00     0.000 HD 
HETATM   29  H1  UNL     1     -14.326  15.807  73.683  1.00  0.00     0.000 HD 
HETATM   30  C   UNL     1     -11.752  15.300  69.039  1.00  0.00    -0.347 A  
HETATM   31  N   UNL     1     -12.282  15.861  70.105  1.00  0.00    -0.300 NA 
HETATM   32  C   UNL     1     -12.692  14.800  70.894  1.00  0.00    -0.342 A  
HETATM   33  C   UNL     1     -13.378  14.733  72.115  1.00  0.00    -0.374 A  
HETATM   34  N   UNL     1     -13.827  15.855  72.795  1.00  0.00    -0.552 NA 
HETATM   35  N   UNL     1     -13.617  13.513  72.655  1.00  0.00    -0.692 NA 
HETATM   36  C   UNL     1     -13.222  12.416  71.970  1.00  0.00    -0.409 A  
ENDBRANCH  24  25
ENDBRANCH  23  24
ENDBRANCH  22  23
ENDBRANCH  11  22
ENDBRANCH   8   9
ENDBRANCH   7   8
ENDBRANCH   5   7
ENDBRANCH   2   5
TORSDOF 12
ENDMDL
MODEL       71
REMARK 921   NORMALIZED FREE ENERGY PREDICTED BY IDOCK:   -5.49 KCAL/MOL
REMARK 922        TOTAL FREE ENERGY PREDICTED BY IDOCK:  -10.93 KCAL/MOL
REMARK 923 INTER-LIGAND FREE ENERGY PREDICTED BY IDOCK:   -9.20 KCAL/MOL
REMARK 924 INTRA-LIGAND FREE ENERGY PREDICTED BY IDOCK:   -1.73 KCAL/MOL
REMARK 927      BINDING AFFINITY PREDICTED BY RF-SCORE:    0.00 PKD
ROOT
HETATM    1  C   UNL     1     -12.290   9.332  71.955  1.00  0.00    -0.454 C  
HETATM    2  C   UNL     1     -11.383   8.110  71.710  1.00  0.00    -0.333 C  
HETATM    3  C   UNL     1     -10.850   7.621  73.062  1.00  0.00    -0.457 C  
HETATM    4  C   UNL     1     -12.227   7.007  71.053  1.00  0.00    -0.419 C  
ENDROOT
BRANCH   2   5
HETATM    5  C   UNL     1     -10.247   8.520  70.759  1.00  0.00    -0.198 C  
HETATM    6  O   UNL     1      -9.326   7.771  70.449  1.00  0.00    -0.159 OA 
BRANCH   5   7
HETATM    7  O   UNL     1     -10.316   9.827  70.379  1.00  0.00    -0.266 OA 
BRANCH   7   8
HETATM    8  C   UNL     1     -10.376  10.028  68.954  1.00  0.00    -0.202 C  
BRANCH   8   9
HETATM    9  O   UNL     1      -9.243  10.708  68.422  1.00  0.00    -0.146 OA 
HETATM   10  P   UNL     1      -8.791  10.234  66.931  1.00  0.00    -0.132 P  
HETATM   11  C   UNL     1     -10.190  10.655  65.865  1.00  0.00    -0.251 C  
HETATM   12  O   UNL     1      -8.330   8.814  66.863  1.00  0.00    -0.107 OA 
HETATM   13  O   UNL     1      -7.743  11.341  66.413  1.00  0.00    -0.148 OA 
BRANCH  13  14
HETATM   14  C   UNL     1      -6.414  11.406  66.842  1.00  0.00    -0.138 C  
BRANCH  14  15
HETATM   15  O   UNL     1      -6.064  12.784  67.114  1.00  0.00    -0.289 OA 
BRANCH  15  16
HETATM   16  C   UNL     1      -6.449  13.266  68.330  1.00  0.00    -0.099 C  
HETATM   17  O   UNL     1      -6.469  12.595  69.356  1.00  0.00    -0.111 OA 
BRANCH  16  18
HETATM   18  C   UNL     1      -6.867  14.750  68.268  1.00  0.00    -0.115 C  
HETATM   19  C   UNL     1      -7.649  15.013  66.965  1.00  0.00    -0.077 C  
HETATM   20  C   UNL     1      -5.628  15.654  68.276  1.00  0.00    -0.115 C  
HETATM   21  C   UNL     1      -7.780  15.110  69.450  1.00  0.00    -0.213 C  
ENDBRANCH  16  18
ENDBRANCH  15  16
ENDBRANCH  14  15
ENDBRANCH  13  14
BRANCH  11  22
HETATM   22  O   UNL     1     -10.368  12.062  66.053  1.00  0.00    -0.226 OA 
BRANCH  22  23
HETATM   23  C   UNL     1     -11.603  12.533  65.555  1.00  0.00    -0.386 C  
BRANCH  23  24
HETATM   24  C   UNL     1     -12.053  13.706  66.415  1.00  0.00    -0.433 C  
BRANCH  24  25
HETATM   25  N   UNL     1     -11.422  14.920  65.969  1.00  0.00    -0.318 NA 
HETATM   26  C   UNL     1     -11.015  15.932  66.785  1.00  0.00    -0.151 A  
HETATM   27  N   UNL     1     -10.950  15.929  68.127  1.00  0.00    -0.322 NA 
HETATM   28  H2  UNL     1     -10.998  19.538  65.235  1.00  0.00     0.000 HD 
HETATM   29  H1  UNL     1      -9.917  20.254  66.246  1.00  0.00     0.000 HD 
HETATM   30  C   UNL     1     -11.335  15.357  64.674  1.00  0.00    -0.355 A  
HETATM   31  N   UNL     1     -10.933  16.609  64.612  1.00  0.00    -0.836 NA 
HETATM   32  C   UNL     1     -10.756  16.989  65.932  1.00  0.00    -0.139 A  
HETATM   33  C   UNL     1     -10.405  18.207  66.531  1.00  0.00    -0.386 A  
HETATM   34  N   UNL     1     -10.173  19.368  65.810  1.00  0.00    -0.482 NA 
HETATM   35  N   UNL     1     -10.289  18.252  67.881  1.00  0.00    -0.385 NA 
HETATM   36  C   UNL     1     -10.562  17.133  68.589  1.00  0.00    -0.352 A  
ENDBRANCH  24  25
ENDBRANCH  23  24
ENDBRANCH  22  23
ENDBRANCH  11  22
ENDBRANCH   8   9
ENDBRANCH   7   8
ENDBRANCH   5   7
ENDBRANCH   2   5
TORSDOF 12
ENDMDL
MODEL       72
REMARK 921   NORMALIZED FREE ENERGY PREDICTED BY IDOCK:   -5.47 KCAL/MOL
REMARK 922        TOTAL FREE ENERGY PREDICTED BY IDOCK:  -10.90 KCAL/MOL
REMARK 923 INTER-LIGAND FREE ENERGY PREDICTED BY IDOCK:   -9.50 KCAL/MOL
REMARK 924 INTRA-LIGAND FREE ENERGY PREDICTED BY IDOCK:   -1.40 KCAL/MOL
REMARK 927      BINDING AFFINITY PREDICTED BY RF-SCORE:    0.00 PKD
ROOT
HETATM    1  C   UNL     1      -8.517   9.909  65.203  1.00  0.00    -0.158 C  
HETATM    2  C   UNL     1      -7.637   8.660  65.406  1.00  0.00    -0.087 C  
HETATM    3  C   UNL     1      -7.387   8.013  64.039  1.00  0.00    -0.097 C  
HETATM    4  C   UNL     1      -6.303   9.105  66.025  1.00  0.00    -0.064 C  
ENDROOT
BRANCH   2   5
HETATM    5  C   UNL     1      -8.354   7.702  66.371  1.00  0.00    -0.129 C  
HETATM    6  O   UNL     1      -8.096   6.504  66.446  1.00  0.00    -0.107 OA 
BRANCH   5   7
HETATM    7  O   UNL     1      -9.369   8.298  67.058  1.00  0.00    -0.145 OA 
BRANCH   7   8
HETATM    8  C   UNL     1      -9.156   8.380  68.479  1.00  0.00    -0.136 C  
BRANCH   8   9
HETATM    9  O   UNL     1     -10.321   8.105  69.252  1.00  0.00    -0.211 OA 
HETATM   10  P   UNL     1     -10.503   9.027  70.580  1.00  0.00    -0.278 P  
HETATM   11  C   UNL     1     -10.689  10.714  69.954  1.00  0.00    -0.204 C  
HETATM   12  O   UNL     1      -9.429   8.833  71.602  1.00  0.00    -0.244 OA 
HETATM   13  O   UNL     1     -12.011   8.784  71.087  1.00  0.00    -0.290 OA 
BRANCH  13  14
HETATM   14  C   UNL     1     -12.418   7.637  71.776  1.00  0.00    -0.329 C  
BRANCH  14  15
HETATM   15  O   UNL     1     -11.792   6.474  71.183  1.00  0.00    -0.333 OA 
BRANCH  15  16
HETATM   16  C   UNL     1     -11.169   5.627  72.051  1.00  0.00    -0.207 C  
HETATM   17  O   UNL     1     -11.480   5.506  73.230  1.00  0.00    -0.230 OA 
BRANCH  16  18
HETATM   18  C   UNL     1     -10.018   4.844  71.383  1.00  0.00    -0.266 C  
HETATM   19  C   UNL     1     -10.233   4.813  69.856  1.00  0.00    -0.238 C  
HETATM   20  C   UNL     1      -9.991   3.399  71.895  1.00  0.00    -0.210 C  
HETATM   21  C   UNL     1      -8.666   5.519  71.658  1.00  0.00    -0.137 C  
ENDBRANCH  16  18
ENDBRANCH  15  16
ENDBRANCH  14  15
ENDBRANCH  13  14
BRANCH  11  22
HETATM   22  O   UNL     1     -11.816  10.643  69.076  1.00  0.00    -0.270 OA 
BRANCH  22  23
HETATM   23  C   UNL     1     -11.908  11.751  68.204  1.00  0.00    -0.254 C  
BRANCH  23  24
HETATM   24  C   UNL     1     -11.131  11.430  66.935  1.00  0.00    -0.295 C  
BRANCH  24  25
HETATM   25  N   UNL     1     -11.361  12.446  65.941  1.00  0.00    -0.339 NA 
HETATM   26  C   UNL     1     -10.678  13.622  65.857  1.00  0.00    -0.281 A  
HETATM   27  N   UNL     1      -9.574  13.980  66.534  1.00  0.00    -0.286 NA 
HETATM   28  H2  UNL     1     -12.606  16.665  64.301  1.00  0.00     0.000 HD 
HETATM   29  H1  UNL     1     -11.322  17.577  63.830  1.00  0.00     0.000 HD 
HETATM   30  C   UNL     1     -12.424  12.510  65.082  1.00  0.00    -0.379 A  
HETATM   31  N   UNL     1     -12.488  13.678  64.478  1.00  0.00    -0.618 NA 
HETATM   32  C   UNL     1     -11.413  14.393  64.977  1.00  0.00    -0.372 A  
HETATM   33  C   UNL     1     -10.974  15.710  64.780  1.00  0.00    -0.400 A  
HETATM   34  N   UNL     1     -11.642  16.619  63.973  1.00  0.00    -1.119 NA 
HETATM   35  N   UNL     1      -9.845  16.115  65.410  1.00  0.00    -0.472 NA 
HETATM   36  C   UNL     1      -9.220  15.245  66.235  1.00  0.00    -0.315 A  
ENDBRANCH  24  25
ENDBRANCH  23  24
ENDBRANCH  22  23
ENDBRANCH  11  22
ENDBRANCH   8   9
ENDBRANCH   7   8
ENDBRANCH   5   7
ENDBRANCH   2   5
TORSDOF 12
ENDMDL
MODEL       73
REMARK 921   NORMALIZED FREE ENERGY PREDICTED BY IDOCK:   -5.46 KCAL/MOL
REMARK 922        TOTAL FREE ENERGY PREDICTED BY IDOCK:  -10.89 KCAL/MOL
REMARK 923 INTER-LIGAND FREE ENERGY PREDICTED BY IDOCK:   -9.17 KCAL/MOL
REMARK 924 INTRA-LIGAND FREE ENERGY PREDICTED BY IDOCK:   -1.71 KCAL/MOL
REMARK 927      BINDING AFFINITY PREDICTED BY RF-SCORE:    0.00 PKD
ROOT
HETATM    1  C   UNL     1     -13.231   8.518  72.666  1.00  0.00    -0.198 C  
HETATM    2  C   UNL     1     -11.957   8.527  71.798  1.00  0.00    -0.393 C  
HETATM    3  C   UNL     1     -10.751   8.240  72.700  1.00  0.00    -0.384 C  
HETATM    4  C   UNL     1     -12.088   7.424  70.737  1.00  0.00    -0.233 C  
ENDROOT
BRANCH   2   5
HETATM    5  C   UNL     1     -11.843   9.894  71.104  1.00  0.00    -0.386 C  
HETATM    6  O   UNL     1     -12.805  10.627  70.897  1.00  0.00    -0.363 OA 
BRANCH   5   7
HETATM    7  O   UNL     1     -10.584  10.159  70.654  1.00  0.00    -0.272 OA 
BRANCH   7   8
HETATM    8  C   UNL     1     -10.416  10.002  69.232  1.00  0.00    -0.225 C  
BRANCH   8   9
HETATM    9  O   UNL     1      -9.462   9.007  68.873  1.00  0.00    -0.149 OA 
HETATM   10  P   UNL     1      -9.695   8.320  67.416  1.00  0.00    -0.210 P  
HETATM   11  C   UNL     1      -9.501   9.671  66.229  1.00  0.00    -0.199 C  
HETATM   12  O   UNL     1     -10.969   7.546  67.311  1.00  0.00    -0.264 OA 
HETATM   13  O   UNL     1      -8.346   7.507  67.087  1.00  0.00    -0.119 OA 
BRANCH  13  14
HETATM   14  C   UNL     1      -8.028   6.274  67.666  1.00  0.00    -0.113 C  
BRANCH  14  15
HETATM   15  O   UNL     1      -8.374   6.300  69.071  1.00  0.00    -0.115 OA 
BRANCH  15  16
HETATM   16  C   UNL     1      -9.157   5.273  69.508  1.00  0.00    -0.112 C  
HETATM   17  O   UNL     1     -10.067   4.778  68.852  1.00  0.00    -0.158 OA 
BRANCH  16  18
HETATM   18  C   UNL     1      -8.776   4.809  70.931  1.00  0.00    -0.135 C  
HETATM   19  C   UNL     1      -7.852   5.855  71.585  1.00  0.00    -0.106 C  
HETATM   20  C   UNL     1      -8.025   3.473  70.871  1.00  0.00    -0.058 C  
HETATM   21  C   UNL     1     -10.026   4.664  71.811  1.00  0.00    -0.260 C  
ENDBRANCH  16  18
ENDBRANCH  15  16
ENDBRANCH  14  15
ENDBRANCH  13  14
BRANCH  11  22
HETATM   22  O   UNL     1      -8.189  10.181  66.482  1.00  0.00    -0.121 OA 
BRANCH  22  23
HETATM   23  C   UNL     1      -8.077  11.567  66.233  1.00  0.00    -0.014 C  
BRANCH  23  24
HETATM   24  C   UNL     1      -8.874  12.313  67.295  1.00  0.00    -0.190 C  
BRANCH  24  25
HETATM   25  N   UNL     1      -9.378  13.550  66.760  1.00  0.00    -0.255 NA 
HETATM   26  C   UNL     1     -10.544  13.683  66.068  1.00  0.00    -0.290 A  
HETATM   27  N   UNL     1     -11.513  12.766  65.910  1.00  0.00    -0.338 NA 
HETATM   28  H2  UNL     1     -10.700  16.584  63.430  1.00  0.00     0.000 HD 
HETATM   29  H1  UNL     1     -12.331  16.770  63.340  1.00  0.00     0.000 HD 
HETATM   30  C   UNL     1      -8.685  14.726  66.654  1.00  0.00    -0.194 A  
HETATM   31  N   UNL     1      -9.321  15.596  65.898  1.00  0.00    -0.340 NA 
HETATM   32  C   UNL     1     -10.475  14.942  65.503  1.00  0.00    -0.360 A  
HETATM   33  C   UNL     1     -11.526  15.303  64.647  1.00  0.00    -0.354 A  
HETATM   34  N   UNL     1     -11.567  16.508  63.962  1.00  0.00    -1.124 NA 
HETATM   35  N   UNL     1     -12.549  14.430  64.479  1.00  0.00    -0.673 NA 
HETATM   36  C   UNL     1     -12.488  13.235  65.108  1.00  0.00    -0.470 A  
ENDBRANCH  24  25
ENDBRANCH  23  24
ENDBRANCH  22  23
ENDBRANCH  11  22
ENDBRANCH   8   9
ENDBRANCH   7   8
ENDBRANCH   5   7
ENDBRANCH   2   5
TORSDOF 12
ENDMDL
MODEL       74
REMARK 921   NORMALIZED FREE ENERGY PREDICTED BY IDOCK:   -5.45 KCAL/MOL
REMARK 922        TOTAL FREE ENERGY PREDICTED BY IDOCK:  -10.87 KCAL/MOL
REMARK 923 INTER-LIGAND FREE ENERGY PREDICTED BY IDOCK:   -9.45 KCAL/MOL
REMARK 924 INTRA-LIGAND FREE ENERGY PREDICTED BY IDOCK:   -1.42 KCAL/MOL
REMARK 927      BINDING AFFINITY PREDICTED BY RF-SCORE:    0.00 PKD
ROOT
HETATM    1  C   UNL     1     -10.610   5.226  66.539  1.00  0.00    -0.348 C  
HETATM    2  C   UNL     1      -9.130   5.562  66.269  1.00  0.00    -0.149 C  
HETATM    3  C   UNL     1      -8.262   4.748  67.236  1.00  0.00    -0.106 C  
HETATM    4  C   UNL     1      -8.803   5.171  64.819  1.00  0.00    -0.100 C  
ENDROOT
BRANCH   2   5
HETATM    5  C   UNL     1      -8.926   7.074  66.449  1.00  0.00    -0.154 C  
HETATM    6  O   UNL     1      -7.892   7.566  66.893  1.00  0.00    -0.107 OA 
BRANCH   5   7
HETATM    7  O   UNL     1     -10.042   7.801  66.161  1.00  0.00    -0.015 OA 
BRANCH   7   8
HETATM    8  C   UNL     1      -9.948   9.196  66.509  1.00  0.00    -0.288 C  
BRANCH   8   9
HETATM    9  O   UNL     1     -10.783   9.572  67.601  1.00  0.00    -0.274 OA 
HETATM   10  P   UNL     1     -10.016  10.300  68.838  1.00  0.00    -0.225 P  
HETATM   11  C   UNL     1      -9.359  11.834  68.141  1.00  0.00    -0.190 C  
HETATM   12  O   UNL     1      -9.019   9.425  69.528  1.00  0.00    -0.143 OA 
HETATM   13  O   UNL     1     -11.169  10.926  69.770  1.00  0.00    -0.252 OA 
BRANCH  13  14
HETATM   14  C   UNL     1     -11.951  10.166  70.645  1.00  0.00    -0.332 C  
BRANCH  14  15
HETATM   15  O   UNL     1     -11.089   9.460  71.569  1.00  0.00    -0.355 OA 
BRANCH  15  16
HETATM   16  C   UNL     1     -11.413   8.157  71.807  1.00  0.00    -0.284 C  
HETATM   17  O   UNL     1     -12.511   7.670  71.562  1.00  0.00    -0.314 OA 
BRANCH  16  18
HETATM   18  C   UNL     1     -10.244   7.365  72.430  1.00  0.00    -0.240 C  
HETATM   19  C   UNL     1      -9.034   8.302  72.630  1.00  0.00    -0.316 C  
HETATM   20  C   UNL     1      -9.819   6.223  71.499  1.00  0.00    -0.193 C  
HETATM   21  C   UNL     1     -10.638   6.799  73.802  1.00  0.00    -0.323 C  
ENDBRANCH  16  18
ENDBRANCH  15  16
ENDBRANCH  14  15
ENDBRANCH  13  14
BRANCH  11  22
HETATM   22  O   UNL     1     -10.509  12.511  67.627  1.00  0.00    -0.213 OA 
BRANCH  22  23
HETATM   23  C   UNL     1     -10.450  13.911  67.803  1.00  0.00    -0.243 C  
BRANCH  23  24
HETATM   24  C   UNL     1     -11.814  14.394  68.278  1.00  0.00    -0.326 C  
BRANCH  24  25
HETATM   25  N   UNL     1     -11.700  15.009  69.574  1.00  0.00    -0.303 NA 
HETATM   26  C   UNL     1     -12.342  14.583  70.697  1.00  0.00    -0.339 A  
HETATM   27  N   UNL     1     -13.035  13.445  70.865  1.00  0.00    -0.182 NA 
HETATM   28  H2  UNL     1     -13.162  17.316  73.392  1.00  0.00     0.000 HD 
HETATM   29  H1  UNL     1     -13.307  16.347  74.713  1.00  0.00     0.000 HD 
HETATM   30  C   UNL     1     -11.130  16.224  69.845  1.00  0.00    -0.347 A  
HETATM   31  N   UNL     1     -11.404  16.625  71.068  1.00  0.00    -0.073 NA 
HETATM   32  C   UNL     1     -12.187  15.616  71.603  1.00  0.00    -0.426 A  
HETATM   33  C   UNL     1     -12.844  15.474  72.833  1.00  0.00    -0.457 A  
HETATM   34  N   UNL     1     -12.829  16.451  73.818  1.00  0.00    -0.630 NA 
HETATM   35  N   UNL     1     -13.529  14.329  73.071  1.00  0.00    -0.635 NA 
HETATM   36  C   UNL     1     -13.585  13.397  72.094  1.00  0.00    -0.567 A  
ENDBRANCH  24  25
ENDBRANCH  23  24
ENDBRANCH  22  23
ENDBRANCH  11  22
ENDBRANCH   8   9
ENDBRANCH   7   8
ENDBRANCH   5   7
ENDBRANCH   2   5
TORSDOF 12
ENDMDL
MODEL       75
REMARK 921   NORMALIZED FREE ENERGY PREDICTED BY IDOCK:   -5.44 KCAL/MOL
REMARK 922        TOTAL FREE ENERGY PREDICTED BY IDOCK:  -10.86 KCAL/MOL
REMARK 923 INTER-LIGAND FREE ENERGY PREDICTED BY IDOCK:   -9.22 KCAL/MOL
REMARK 924 INTRA-LIGAND FREE ENERGY PREDICTED BY IDOCK:   -1.64 KCAL/MOL
REMARK 927      BINDING AFFINITY PREDICTED BY RF-SCORE:    0.00 PKD
ROOT
HETATM    1  C   UNL     1      -9.638   4.104  65.645  1.00  0.00    -0.188 C  
HETATM    2  C   UNL     1      -8.756   4.758  66.727  1.00  0.00    -0.107 C  
HETATM    3  C   UNL     1      -9.126   4.154  68.087  1.00  0.00    -0.175 C  
HETATM    4  C   UNL     1      -7.286   4.450  66.403  1.00  0.00    -0.081 C  
ENDROOT
BRANCH   2   5
HETATM    5  C   UNL     1      -8.979   6.278  66.695  1.00  0.00    -0.135 C  
HETATM    6  O   UNL     1     -10.087   6.794  66.575  1.00  0.00    -0.156 OA 
BRANCH   5   7
HETATM    7  O   UNL     1      -7.816   6.988  66.711  1.00  0.00    -0.103 OA 
BRANCH   7   8
HETATM    8  C   UNL     1      -7.927   8.295  67.307  1.00  0.00    -0.105 C  
BRANCH   8   9
HETATM    9  O   UNL     1      -8.363   8.272  68.663  1.00  0.00    -0.122 OA 
HETATM   10  P   UNL     1      -7.645   9.360  69.637  1.00  0.00    -0.123 P  
HETATM   11  C   UNL     1      -8.126  10.971  68.970  1.00  0.00    -0.104 C  
HETATM   12  O   UNL     1      -6.176   9.143  69.806  1.00  0.00    -0.037 OA 
HETATM   13  O   UNL     1      -8.515   9.385  70.992  1.00  0.00    -0.285 OA 
BRANCH  13  14
HETATM   14  C   UNL     1      -8.441   8.392  71.974  1.00  0.00    -0.183 C  
BRANCH  14  15
HETATM   15  O   UNL     1      -9.382   7.338  71.662  1.00  0.00    -0.151 OA 
BRANCH  15  16
HETATM   16  C   UNL     1     -10.601   7.433  72.265  1.00  0.00    -0.232 C  
HETATM   17  O   UNL     1     -10.766   7.429  73.480  1.00  0.00    -0.385 OA 
BRANCH  16  18
HETATM   18  C   UNL     1     -11.755   7.536  71.244  1.00  0.00    -0.312 C  
HETATM   19  C   UNL     1     -11.391   6.742  69.973  1.00  0.00    -0.396 C  
HETATM   20  C   UNL     1     -11.986   9.000  70.848  1.00  0.00    -0.274 C  
HETATM   21  C   UNL     1     -13.049   6.943  71.821  1.00  0.00    -0.302 C  
ENDBRANCH  16  18
ENDBRANCH  15  16
ENDBRANCH  14  15
ENDBRANCH  13  14
BRANCH  11  22
HETATM   22  O   UNL     1      -9.555  10.952  68.991  1.00  0.00    -0.200 OA 
BRANCH  22  23
HETATM   23  C   UNL     1     -10.129  11.088  67.708  1.00  0.00    -0.177 C  
BRANCH  23  24
HETATM   24  C   UNL     1     -11.575  11.536  67.872  1.00  0.00    -0.282 C  
BRANCH  24  25
HETATM   25  N   UNL     1     -11.778  12.807  67.228  1.00  0.00    -0.369 NA 
HETATM   26  C   UNL     1     -11.996  12.978  65.894  1.00  0.00    -0.435 A  
HETATM   27  N   UNL     1     -12.242  12.030  64.974  1.00  0.00    -0.358 NA 
HETATM   28  H2  UNL     1     -10.803  16.380  64.344  1.00  0.00     0.000 HD 
HETATM   29  H1  UNL     1     -11.771  16.417  63.015  1.00  0.00     0.000 HD 
HETATM   30  C   UNL     1     -11.564  14.038  67.785  1.00  0.00    -0.345 A  
HETATM   31  N   UNL     1     -11.591  14.991  66.878  1.00  0.00    -0.282 NA 
HETATM   32  C   UNL     1     -11.834  14.334  65.683  1.00  0.00    -0.373 A  
HETATM   33  C   UNL     1     -11.912  14.776  64.355  1.00  0.00    -0.417 A  
HETATM   34  N   UNL     1     -11.713  16.096  63.982  1.00  0.00    -0.868 NA 
HETATM   35  N   UNL     1     -12.194  13.868  63.389  1.00  0.00    -0.650 NA 
HETATM   36  C   UNL     1     -12.341  12.572  63.745  1.00  0.00    -0.502 A  
ENDBRANCH  24  25
ENDBRANCH  23  24
ENDBRANCH  22  23
ENDBRANCH  11  22
ENDBRANCH   8   9
ENDBRANCH   7   8
ENDBRANCH   5   7
ENDBRANCH   2   5
TORSDOF 12
ENDMDL
MODEL       76
REMARK 921   NORMALIZED FREE ENERGY PREDICTED BY IDOCK:   -5.43 KCAL/MOL
REMARK 922        TOTAL FREE ENERGY PREDICTED BY IDOCK:  -10.84 KCAL/MOL
REMARK 923 INTER-LIGAND FREE ENERGY PREDICTED BY IDOCK:   -9.74 KCAL/MOL
REMARK 924 INTRA-LIGAND FREE ENERGY PREDICTED BY IDOCK:   -1.10 KCAL/MOL
REMARK 927      BINDING AFFINITY PREDICTED BY RF-SCORE:    0.00 PKD
ROOT
HETATM    1  C   UNL     1     -12.808  14.136  65.462  1.00  0.00    -0.404 C  
HETATM    2  C   UNL     1     -11.714  13.308  64.759  1.00  0.00    -0.390 C  
HETATM    3  C   UNL     1     -12.121  13.108  63.294  1.00  0.00    -0.460 C  
HETATM    4  C   UNL     1     -10.394  14.091  64.831  1.00  0.00    -0.434 C  
ENDROOT
BRANCH   2   5
HETATM    5  C   UNL     1     -11.556  11.970  65.498  1.00  0.00    -0.293 C  
HETATM    6  O   UNL     1     -11.919  11.794  66.658  1.00  0.00    -0.561 OA 
BRANCH   5   7
HETATM    7  O   UNL     1     -10.883  11.035  64.770  1.00  0.00    -0.276 OA 
BRANCH   7   8
HETATM    8  C   UNL     1      -9.601  10.669  65.314  1.00  0.00    -0.241 C  
BRANCH   8   9
HETATM    9  O   UNL     1      -9.680   9.981  66.559  1.00  0.00    -0.180 OA 
HETATM   10  P   UNL     1      -8.250   9.523  67.187  1.00  0.00    -0.112 P  
HETATM   11  C   UNL     1      -7.367  11.069  67.510  1.00  0.00    -0.101 C  
HETATM   12  O   UNL     1      -7.516   8.523  66.353  1.00  0.00    -0.085 OA 
HETATM   13  O   UNL     1      -8.551   9.089  68.708  1.00  0.00    -0.129 OA 
BRANCH  13  14
HETATM   14  C   UNL     1      -9.144   7.872  69.059  1.00  0.00    -0.144 C  
BRANCH  14  15
HETATM   15  O   UNL     1     -10.531   8.096  69.404  1.00  0.00    -0.220 OA 
BRANCH  15  16
HETATM   16  C   UNL     1     -11.068   7.223  70.302  1.00  0.00    -0.266 C  
HETATM   17  O   UNL     1     -10.944   6.005  70.232  1.00  0.00    -0.301 OA 
BRANCH  16  18
HETATM   18  C   UNL     1     -11.862   7.940  71.416  1.00  0.00    -0.328 C  
HETATM   19  C   UNL     1     -13.283   7.347  71.501  1.00  0.00    -0.426 C  
HETATM   20  C   UNL     1     -11.982   9.437  71.104  1.00  0.00    -0.413 C  
HETATM   21  C   UNL     1     -11.184   7.746  72.781  1.00  0.00    -0.456 C  
ENDBRANCH  16  18
ENDBRANCH  15  16
ENDBRANCH  14  15
ENDBRANCH  13  14
BRANCH  11  22
HETATM   22  O   UNL     1      -8.235  11.797  68.383  1.00  0.00    -0.146 OA 
BRANCH  22  23
HETATM   23  C   UNL     1      -8.823  12.923  67.764  1.00  0.00    -0.188 C  
BRANCH  23  24
HETATM   24  C   UNL     1      -8.686  14.114  68.702  1.00  0.00    -0.126 C  
BRANCH  24  25
HETATM   25  N   UNL     1      -9.518  15.199  68.252  1.00  0.00    -0.197 NA 
HETATM   26  C   UNL     1      -9.101  16.219  67.452  1.00  0.00    -0.195 A  
HETATM   27  N   UNL     1      -7.936  16.323  66.793  1.00  0.00    -0.242 NA 
HETATM   28  H2  UNL     1     -10.961  19.650  67.871  1.00  0.00     0.000 HD 
HETATM   29  H1  UNL     1     -10.626  20.311  66.403  1.00  0.00     0.000 HD 
HETATM   30  C   UNL     1     -10.765  15.510  68.723  1.00  0.00    -0.249 A  
HETATM   31  N   UNL     1     -11.160  16.693  68.303  1.00  0.00    -0.346 NA 
HETATM   32  C   UNL     1     -10.112  17.159  67.527  1.00  0.00    -0.301 A  
HETATM   33  C   UNL     1      -9.892  18.372  66.857  1.00  0.00    -0.338 A  
HETATM   34  N   UNL     1     -10.787  19.430  66.890  1.00  0.00    -0.449 NA 
HETATM   35  N   UNL     1      -8.747  18.517  66.146  1.00  0.00    -0.494 NA 
HETATM   36  C   UNL     1      -7.851  17.504  66.153  1.00  0.00    -0.246 A  
ENDBRANCH  24  25
ENDBRANCH  23  24
ENDBRANCH  22  23
ENDBRANCH  11  22
ENDBRANCH   8   9
ENDBRANCH   7   8
ENDBRANCH   5   7
ENDBRANCH   2   5
TORSDOF 12
ENDMDL
MODEL       77
REMARK 921   NORMALIZED FREE ENERGY PREDICTED BY IDOCK:   -5.40 KCAL/MOL
REMARK 922        TOTAL FREE ENERGY PREDICTED BY IDOCK:  -10.79 KCAL/MOL
REMARK 923 INTER-LIGAND FREE ENERGY PREDICTED BY IDOCK:   -9.08 KCAL/MOL
REMARK 924 INTRA-LIGAND FREE ENERGY PREDICTED BY IDOCK:   -1.71 KCAL/MOL
REMARK 927      BINDING AFFINITY PREDICTED BY RF-SCORE:    0.00 PKD
ROOT
HETATM    1  C   UNL     1      -8.593  17.776  66.376  1.00  0.00    -0.260 C  
HETATM    2  C   UNL     1     -10.126  17.813  66.534  1.00  0.00    -0.358 C  
HETATM    3  C   UNL     1     -10.469  17.621  68.016  1.00  0.00    -0.395 C  
HETATM    4  C   UNL     1     -10.627  19.186  66.057  1.00  0.00    -0.524 C  
ENDROOT
BRANCH   2   5
HETATM    5  C   UNL     1     -10.740  16.712  65.655  1.00  0.00    -0.214 C  
HETATM    6  O   UNL     1     -11.034  16.878  64.475  1.00  0.00    -0.989 OA 
BRANCH   5   7
HETATM    7  O   UNL     1     -11.015  15.570  66.346  1.00  0.00    -0.309 OA 
BRANCH   7   8
HETATM    8  C   UNL     1     -10.041  14.523  66.174  1.00  0.00    -0.305 C  
BRANCH   8   9
HETATM    9  O   UNL     1     -10.012  13.584  67.245  1.00  0.00    -0.230 OA 
HETATM   10  P   UNL     1     -10.811  12.194  66.967  1.00  0.00    -0.275 P  
HETATM   11  C   UNL     1      -9.936  11.423  65.585  1.00  0.00    -0.240 C  
HETATM   12  O   UNL     1     -12.284  12.370  66.781  1.00  0.00    -0.551 OA 
HETATM   13  O   UNL     1     -10.364  11.183  68.137  1.00  0.00    -0.176 OA 
BRANCH  13  14
HETATM   14  C   UNL     1     -10.854  11.252  69.445  1.00  0.00    -0.189 C  
BRANCH  14  15
HETATM   15  O   UNL     1     -11.353   9.952  69.840  1.00  0.00    -0.244 OA 
BRANCH  15  16
HETATM   16  C   UNL     1     -10.694   9.352  70.872  1.00  0.00    -0.323 C  
HETATM   17  O   UNL     1      -9.506   9.527  71.119  1.00  0.00    -0.200 OA 
BRANCH  16  18
HETATM   18  C   UNL     1     -11.610   8.416  71.689  1.00  0.00    -0.348 C  
HETATM   19  C   UNL     1     -12.818   9.212  72.222  1.00  0.00    -0.472 C  
HETATM   20  C   UNL     1     -10.847   7.838  72.887  1.00  0.00    -0.453 C  
HETATM   21  C   UNL     1     -12.145   7.273  70.812  1.00  0.00    -0.284 C  
ENDBRANCH  16  18
ENDBRANCH  15  16
ENDBRANCH  14  15
ENDBRANCH  13  14
BRANCH  11  22
HETATM   22  O   UNL     1      -8.588  11.294  66.046  1.00  0.00    -0.175 OA 
BRANCH  22  23
HETATM   23  C   UNL     1      -7.984  10.079  65.655  1.00  0.00    -0.140 C  
BRANCH  23  24
HETATM   24  C   UNL     1      -8.915   8.935  66.032  1.00  0.00    -0.193 C  
BRANCH  24  25
HETATM   25  N   UNL     1      -8.408   8.242  67.188  1.00  0.00    -0.122 NA 
HETATM   26  C   UNL     1      -8.944   7.105  67.711  1.00  0.00    -0.122 A  
HETATM   27  N   UNL     1      -9.898   6.324  67.176  1.00  0.00    -0.133 NA 
HETATM   28  H2  UNL     1      -8.465   6.552  71.567  1.00  0.00     0.000 HD 
HETATM   29  H1  UNL     1      -8.657   4.920  71.625  1.00  0.00     0.000 HD 
HETATM   30  C   UNL     1      -7.474   8.716  68.068  1.00  0.00    -0.097 A  
HETATM   31  N   UNL     1      -7.407   7.970  69.151  1.00  0.00    -0.084 NA 
HETATM   32  C   UNL     1      -8.344   6.971  68.949  1.00  0.00    -0.125 A  
HETATM   33  C   UNL     1      -8.794   5.914  69.753  1.00  0.00    -0.128 A  
HETATM   34  N   UNL     1      -8.330   5.689  71.040  1.00  0.00    -0.120 NA 
HETATM   35  N   UNL     1      -9.730   5.074  69.249  1.00  0.00    -0.162 NA 
HETATM   36  C   UNL     1     -10.219   5.320  68.013  1.00  0.00    -0.143 A  
ENDBRANCH  24  25
ENDBRANCH  23  24
ENDBRANCH  22  23
ENDBRANCH  11  22
ENDBRANCH   8   9
ENDBRANCH   7   8
ENDBRANCH   5   7
ENDBRANCH   2   5
TORSDOF 12
ENDMDL
MODEL       78
REMARK 921   NORMALIZED FREE ENERGY PREDICTED BY IDOCK:   -5.40 KCAL/MOL
REMARK 922        TOTAL FREE ENERGY PREDICTED BY IDOCK:  -10.79 KCAL/MOL
REMARK 923 INTER-LIGAND FREE ENERGY PREDICTED BY IDOCK:   -8.86 KCAL/MOL
REMARK 924 INTRA-LIGAND FREE ENERGY PREDICTED BY IDOCK:   -1.93 KCAL/MOL
REMARK 927      BINDING AFFINITY PREDICTED BY RF-SCORE:    0.00 PKD
ROOT
HETATM    1  C   UNL     1     -10.878   7.401  73.088  1.00  0.00    -0.435 C  
HETATM    2  C   UNL     1     -11.051   7.981  71.670  1.00  0.00    -0.300 C  
HETATM    3  C   UNL     1     -11.634   6.890  70.765  1.00  0.00    -0.397 C  
HETATM    4  C   UNL     1     -12.024   9.168  71.750  1.00  0.00    -0.449 C  
ENDROOT
BRANCH   2   5
HETATM    5  C   UNL     1      -9.684   8.474  71.168  1.00  0.00    -0.201 C  
HETATM    6  O   UNL     1      -8.632   7.883  71.391  1.00  0.00    -0.115 OA 
BRANCH   5   7
HETATM    7  O   UNL     1      -9.751   9.680  70.537  1.00  0.00    -0.259 OA 
BRANCH   7   8
HETATM    8  C   UNL     1      -8.933   9.779  69.357  1.00  0.00    -0.190 C  
BRANCH   8   9
HETATM    9  O   UNL     1      -8.402  11.083  69.134  1.00  0.00    -0.123 OA 
HETATM   10  P   UNL     1      -7.292  11.183  67.948  1.00  0.00    -0.100 P  
HETATM   11  C   UNL     1      -8.179  10.724  66.440  1.00  0.00    -0.155 C  
HETATM   12  O   UNL     1      -6.043  10.409  68.223  1.00  0.00    -0.044 OA 
HETATM   13  O   UNL     1      -7.098  12.753  67.652  1.00  0.00    -0.116 OA 
BRANCH  13  14
HETATM   14  C   UNL     1      -6.358  13.608  68.476  1.00  0.00    -0.092 C  
BRANCH  14  15
HETATM   15  O   UNL     1      -6.980  14.915  68.493  1.00  0.00    -0.099 OA 
BRANCH  15  16
HETATM   16  C   UNL     1      -6.560  15.784  67.530  1.00  0.00    -0.183 C  
HETATM   17  O   UNL     1      -5.401  15.866  67.140  1.00  0.00    -0.333 OA 
BRANCH  16  18
HETATM   18  C   UNL     1      -7.709  16.663  66.992  1.00  0.00    -0.235 C  
HETATM   19  C   UNL     1      -7.130  17.783  66.103  1.00  0.00    -0.347 C  
HETATM   20  C   UNL     1      -8.469  17.316  68.154  1.00  0.00    -0.238 C  
HETATM   21  C   UNL     1      -8.679  15.833  66.138  1.00  0.00    -0.293 C  
ENDBRANCH  16  18
ENDBRANCH  15  16
ENDBRANCH  14  15
ENDBRANCH  13  14
BRANCH  11  22
HETATM   22  O   UNL     1      -9.262  11.654  66.369  1.00  0.00    -0.201 OA 
BRANCH  22  23
HETATM   23  C   UNL     1     -10.521  11.027  66.239  1.00  0.00    -0.254 C  
BRANCH  23  24
HETATM   24  C   UNL     1     -11.601  12.099  66.289  1.00  0.00    -0.360 C  
BRANCH  24  25
HETATM   25  N   UNL     1     -11.877  12.463  67.654  1.00  0.00    -0.465 NA 
HETATM   26  C   UNL     1     -11.838  13.734  68.144  1.00  0.00    -0.376 A  
HETATM   27  N   UNL     1     -11.723  14.878  67.451  1.00  0.00    -0.339 NA 
HETATM   28  H2  UNL     1     -10.940  14.120  71.945  1.00  0.00     0.000 HD 
HETATM   29  H1  UNL     1     -11.602  15.599  72.223  1.00  0.00     0.000 HD 
HETATM   30  C   UNL     1     -11.995  11.603  68.712  1.00  0.00    -0.264 A  
HETATM   31  N   UNL     1     -11.992  12.245  69.860  1.00  0.00    -0.327 NA 
HETATM   32  C   UNL     1     -11.867  13.581  69.518  1.00  0.00    -0.334 A  
HETATM   33  C   UNL     1     -11.740  14.750  70.282  1.00  0.00    -0.298 A  
HETATM   34  N   UNL     1     -11.694  14.749  71.667  1.00  0.00    -0.326 NA 
HETATM   35  N   UNL     1     -11.657  15.937  69.634  1.00  0.00    -0.339 NA 
HETATM   36  C   UNL     1     -11.654  15.936  68.282  1.00  0.00    -0.272 A  
ENDBRANCH  24  25
ENDBRANCH  23  24
ENDBRANCH  22  23
ENDBRANCH  11  22
ENDBRANCH   8   9
ENDBRANCH   7   8
ENDBRANCH   5   7
ENDBRANCH   2   5
TORSDOF 12
ENDMDL
MODEL       79
REMARK 921   NORMALIZED FREE ENERGY PREDICTED BY IDOCK:   -5.39 KCAL/MOL
REMARK 922        TOTAL FREE ENERGY PREDICTED BY IDOCK:  -10.77 KCAL/MOL
REMARK 923 INTER-LIGAND FREE ENERGY PREDICTED BY IDOCK:   -9.24 KCAL/MOL
REMARK 924 INTRA-LIGAND FREE ENERGY PREDICTED BY IDOCK:   -1.53 KCAL/MOL
REMARK 927      BINDING AFFINITY PREDICTED BY RF-SCORE:    0.00 PKD
ROOT
HETATM    1  C   UNL     1      -8.617   4.530  69.100  1.00  0.00    -0.103 C  
HETATM    2  C   UNL     1      -9.457   5.522  69.928  1.00  0.00    -0.203 C  
HETATM    3  C   UNL     1     -10.818   5.697  69.244  1.00  0.00    -0.309 C  
HETATM    4  C   UNL     1      -9.651   4.934  71.334  1.00  0.00    -0.226 C  
ENDROOT
BRANCH   2   5
HETATM    5  C   UNL     1      -8.692   6.851  70.031  1.00  0.00    -0.142 C  
HETATM    6  O   UNL     1      -8.832   7.638  70.963  1.00  0.00    -0.139 OA 
BRANCH   5   7
HETATM    7  O   UNL     1      -7.921   7.110  68.937  1.00  0.00    -0.116 OA 
BRANCH   7   8
HETATM    8  C   UNL     1      -8.627   7.732  67.847  1.00  0.00    -0.122 C  
BRANCH   8   9
HETATM    9  O   UNL     1      -8.518   9.152  67.828  1.00  0.00    -0.116 OA 
HETATM   10  P   UNL     1      -9.879   9.944  67.414  1.00  0.00    -0.200 P  
HETATM   11  C   UNL     1     -11.068   9.538  68.716  1.00  0.00    -0.001 C  
HETATM   12  O   UNL     1     -10.333   9.674  66.017  1.00  0.00    -0.218 OA 
HETATM   13  O   UNL     1      -9.624  11.489  67.787  1.00  0.00    -0.168 OA 
BRANCH  13  14
HETATM   14  C   UNL     1      -8.837  12.349  67.014  1.00  0.00    -0.210 C  
BRANCH  14  15
HETATM   15  O   UNL     1      -9.676  13.375  66.432  1.00  0.00    -0.270 OA 
BRANCH  15  16
HETATM   16  C   UNL     1     -10.203  13.087  65.208  1.00  0.00    -0.279 C  
HETATM   17  O   UNL     1      -9.690  12.315  64.406  1.00  0.00    -0.141 OA 
BRANCH  16  18
HETATM   18  C   UNL     1     -11.518  13.851  64.940  1.00  0.00    -0.354 C  
HETATM   19  C   UNL     1     -12.156  13.337  63.633  1.00  0.00    -0.551 C  
HETATM   20  C   UNL     1     -11.238  15.351  64.781  1.00  0.00    -0.404 C  
HETATM   21  C   UNL     1     -12.523  13.627  66.079  1.00  0.00    -0.477 C  
ENDBRANCH  16  18
ENDBRANCH  15  16
ENDBRANCH  14  15
ENDBRANCH  13  14
BRANCH  11  22
HETATM   22  O   UNL     1     -10.432   9.965  69.923  1.00  0.00    -0.232 OA 
BRANCH  22  23
HETATM   23  C   UNL     1     -11.351  10.297  70.944  1.00  0.00    -0.295 C  
BRANCH  23  24
HETATM   24  C   UNL     1     -12.529  11.027  70.313  1.00  0.00    -0.285 C  
BRANCH  24  25
HETATM   25  N   UNL     1     -12.771  12.267  71.001  1.00  0.00    -0.293 NA 
HETATM   26  C   UNL     1     -12.179  13.456  70.695  1.00  0.00    -0.350 A  
HETATM   27  N   UNL     1     -11.424  13.745  69.622  1.00  0.00    -0.257 NA 
HETATM   28  H2  UNL     1     -11.726  16.001  73.648  1.00  0.00     0.000 HD 
HETATM   29  H1  UNL     1     -11.606  17.392  72.780  1.00  0.00     0.000 HD 
HETATM   30  C   UNL     1     -13.436  12.417  72.187  1.00  0.00    -0.378 A  
HETATM   31  N   UNL     1     -13.273  13.624  72.685  1.00  0.00    -0.487 NA 
HETATM   32  C   UNL     1     -12.463  14.276  71.771  1.00  0.00    -0.316 A  
HETATM   33  C   UNL     1     -11.883  15.552  71.756  1.00  0.00    -0.428 A  
HETATM   34  N   UNL     1     -12.029  16.464  72.791  1.00  0.00    -0.542 NA 
HETATM   35  N   UNL     1     -11.140  15.911  70.681  1.00  0.00    -0.350 NA 
HETATM   36  C   UNL     1     -10.957  15.006  69.693  1.00  0.00    -0.279 A  
ENDBRANCH  24  25
ENDBRANCH  23  24
ENDBRANCH  22  23
ENDBRANCH  11  22
ENDBRANCH   8   9
ENDBRANCH   7   8
ENDBRANCH   5   7
ENDBRANCH   2   5
TORSDOF 12
ENDMDL
MODEL       80
REMARK 921   NORMALIZED FREE ENERGY PREDICTED BY IDOCK:   -5.39 KCAL/MOL
REMARK 922        TOTAL FREE ENERGY PREDICTED BY IDOCK:  -10.76 KCAL/MOL
REMARK 923 INTER-LIGAND FREE ENERGY PREDICTED BY IDOCK:   -9.23 KCAL/MOL
REMARK 924 INTRA-LIGAND FREE ENERGY PREDICTED BY IDOCK:   -1.53 KCAL/MOL
REMARK 927      BINDING AFFINITY PREDICTED BY RF-SCORE:    0.00 PKD
ROOT
HETATM    1  C   UNL     1     -12.183  12.555  63.516  1.00  0.00    -0.652 C  
HETATM    2  C   UNL     1     -11.805  13.221  64.854  1.00  0.00    -0.398 C  
HETATM    3  C   UNL     1     -10.545  14.068  64.637  1.00  0.00    -0.416 C  
HETATM    4  C   UNL     1     -12.970  14.122  65.291  1.00  0.00    -0.268 C  
ENDROOT
BRANCH   2   5
HETATM    5  C   UNL     1     -11.584  12.124  65.907  1.00  0.00    -0.364 C  
HETATM    6  O   UNL     1     -11.974  12.216  67.067  1.00  0.00    -0.593 OA 
BRANCH   5   7
HETATM    7  O   UNL     1     -10.827  11.088  65.448  1.00  0.00    -0.206 OA 
BRANCH   7   8
HETATM    8  C   UNL     1      -9.499  11.031  66.003  1.00  0.00    -0.207 C  
BRANCH   8   9
HETATM    9  O   UNL     1      -9.453  10.511  67.328  1.00  0.00    -0.156 OA 
HETATM   10  P   UNL     1      -7.988   9.997  67.818  1.00  0.00    -0.105 P  
HETATM   11  C   UNL     1      -6.949  11.479  67.810  1.00  0.00    -0.078 C  
HETATM   12  O   UNL     1      -7.463   8.837  67.036  1.00  0.00    -0.089 OA 
HETATM   13  O   UNL     1      -8.101   9.783  69.409  1.00  0.00    -0.104 OA 
BRANCH  13  14
HETATM   14  C   UNL     1      -8.731   8.681  69.996  1.00  0.00    -0.141 C  
BRANCH  14  15
HETATM   15  O   UNL     1      -9.491   9.120  71.147  1.00  0.00    -0.261 OA 
BRANCH  15  16
HETATM   16  C   UNL     1     -10.826   9.302  70.943  1.00  0.00    -0.296 C  
HETATM   17  O   UNL     1     -11.295  10.171  70.217  1.00  0.00    -0.269 OA 
BRANCH  16  18
HETATM   18  C   UNL     1     -11.685   8.294  71.738  1.00  0.00    -0.357 C  
HETATM   19  C   UNL     1     -10.875   7.760  72.937  1.00  0.00    -0.453 C  
HETATM   20  C   UNL     1     -12.069   7.105  70.849  1.00  0.00    -0.368 C  
HETATM   21  C   UNL     1     -12.953   8.968  72.283  1.00  0.00    -0.490 C  
ENDBRANCH  16  18
ENDBRANCH  15  16
ENDBRANCH  14  15
ENDBRANCH  13  14
BRANCH  11  22
HETATM   22  O   UNL     1      -7.623  12.388  68.684  1.00  0.00    -0.116 OA 
BRANCH  22  23
HETATM   23  C   UNL     1      -6.871  13.553  68.955  1.00  0.00    -0.111 C  
BRANCH  23  24
HETATM   24  C   UNL     1      -7.022  14.508  67.779  1.00  0.00    -0.179 C  
BRANCH  24  25
HETATM   25  N   UNL     1      -7.506  15.785  68.234  1.00  0.00    -0.114 NA 
HETATM   26  C   UNL     1      -8.817  16.151  68.276  1.00  0.00    -0.188 A  
HETATM   27  N   UNL     1      -9.894  15.371  68.087  1.00  0.00    -0.212 NA 
HETATM   28  H2  UNL     1      -9.583  19.980  67.882  1.00  0.00     0.000 HD 
HETATM   29  H1  UNL     1     -11.064  20.027  68.594  1.00  0.00     0.000 HD 
HETATM   30  C   UNL     1      -6.746  16.897  68.476  1.00  0.00    -0.168 A  
HETATM   31  N   UNL     1      -7.493  17.969  68.631  1.00  0.00    -0.281 NA 
HETATM   32  C   UNL     1      -8.794  17.518  68.480  1.00  0.00    -0.282 A  
HETATM   33  C   UNL     1     -10.032  18.175  68.469  1.00  0.00    -0.395 A  
HETATM   34  N   UNL     1     -10.163  19.549  68.602  1.00  0.00    -0.426 NA 
HETATM   35  N   UNL     1     -11.155  17.432  68.319  1.00  0.00    -0.149 NA 
HETATM   36  C   UNL     1     -11.027  16.098  68.141  1.00  0.00    -0.341 A  
ENDBRANCH  24  25
ENDBRANCH  23  24
ENDBRANCH  22  23
ENDBRANCH  11  22
ENDBRANCH   8   9
ENDBRANCH   7   8
ENDBRANCH   5   7
ENDBRANCH   2   5
TORSDOF 12
ENDMDL
MODEL       81
REMARK 921   NORMALIZED FREE ENERGY PREDICTED BY IDOCK:   -5.38 KCAL/MOL
REMARK 922        TOTAL FREE ENERGY PREDICTED BY IDOCK:  -10.76 KCAL/MOL
REMARK 923 INTER-LIGAND FREE ENERGY PREDICTED BY IDOCK:   -8.95 KCAL/MOL
REMARK 924 INTRA-LIGAND FREE ENERGY PREDICTED BY IDOCK:   -1.80 KCAL/MOL
REMARK 927      BINDING AFFINITY PREDICTED BY RF-SCORE:    0.00 PKD
ROOT
HETATM    1  C   UNL     1      -5.446   8.368  64.132  1.00  0.00    -0.055 C  
HETATM    2  C   UNL     1      -6.527   9.336  64.652  1.00  0.00    -0.077 C  
HETATM    3  C   UNL     1      -5.835  10.483  65.397  1.00  0.00    -0.134 C  
HETATM    4  C   UNL     1      -7.300   9.890  63.445  1.00  0.00    -0.134 C  
ENDROOT
BRANCH   2   5
HETATM    5  C   UNL     1      -7.490   8.558  65.563  1.00  0.00    -0.085 C  
HETATM    6  O   UNL     1      -7.130   7.648  66.303  1.00  0.00    -0.067 OA 
BRANCH   5   7
HETATM    7  O   UNL     1      -8.794   8.915  65.388  1.00  0.00    -0.183 OA 
BRANCH   7   8
HETATM    8  C   UNL     1      -9.398   9.537  66.538  1.00  0.00    -0.171 C  
BRANCH   8   9
HETATM    9  O   UNL     1     -10.142   8.635  67.353  1.00  0.00    -0.191 OA 
HETATM   10  P   UNL     1      -9.754   8.653  68.934  1.00  0.00    -0.178 P  
HETATM   11  C   UNL     1     -10.174  10.320  69.497  1.00  0.00    -0.236 C  
HETATM   12  O   UNL     1      -8.356   8.208  69.218  1.00  0.00    -0.126 OA 
HETATM   13  O   UNL     1     -10.920   7.838  69.687  1.00  0.00    -0.220 OA 
BRANCH  13  14
HETATM   14  C   UNL     1     -11.013   6.442  69.681  1.00  0.00    -0.358 C  
BRANCH  14  15
HETATM   15  O   UNL     1     -10.298   5.910  70.821  1.00  0.00    -0.209 OA 
BRANCH  15  16
HETATM   16  C   UNL     1     -10.823   6.207  72.043  1.00  0.00    -0.247 C  
HETATM   17  O   UNL     1     -11.997   6.027  72.346  1.00  0.00    -0.302 OA 
BRANCH  16  18
HETATM   18  C   UNL     1      -9.774   6.809  73.003  1.00  0.00    -0.182 C  
HETATM   19  C   UNL     1     -10.087   6.373  74.449  1.00  0.00    -0.367 C  
HETATM   20  C   UNL     1      -9.813   8.341  72.943  1.00  0.00    -0.303 C  
HETATM   21  C   UNL     1      -8.364   6.311  72.652  1.00  0.00    -0.120 C  
ENDBRANCH  16  18
ENDBRANCH  15  16
ENDBRANCH  14  15
ENDBRANCH  13  14
BRANCH  11  22
HETATM   22  O   UNL     1     -11.563  10.461  69.187  1.00  0.00    -0.232 OA 
BRANCH  22  23
HETATM   23  C   UNL     1     -11.904  11.762  68.758  1.00  0.00    -0.320 C  
BRANCH  23  24
HETATM   24  C   UNL     1     -10.645  12.445  68.242  1.00  0.00    -0.222 C  
BRANCH  24  25
HETATM   25  N   UNL     1     -10.919  13.119  67.000  1.00  0.00    -0.265 NA 
HETATM   26  C   UNL     1     -10.437  14.346  66.657  1.00  0.00    -0.274 A  
HETATM   27  N   UNL     1      -9.500  15.068  67.294  1.00  0.00    -0.204 NA 
HETATM   28  H2  UNL     1     -12.643  16.476  64.207  1.00  0.00     0.000 HD 
HETATM   29  H1  UNL     1     -11.482  17.473  63.607  1.00  0.00     0.000 HD 
HETATM   30  C   UNL     1     -11.864  12.761  66.077  1.00  0.00    -0.439 A  
HETATM   31  N   UNL     1     -12.048  13.707  65.181  1.00  0.00    -0.381 NA 
HETATM   32  C   UNL     1     -11.178  14.717  65.551  1.00  0.00    -0.346 A  
HETATM   33  C   UNL     1     -10.945  16.004  65.043  1.00  0.00    -0.380 A  
HETATM   34  N   UNL     1     -11.651  16.537  63.976  1.00  0.00    -1.124 NA 
HETATM   35  N   UNL     1      -9.985  16.763  65.626  1.00  0.00    -0.575 NA 
HETATM   36  C   UNL     1      -9.329  16.263  66.697  1.00  0.00    -0.248 A  
ENDBRANCH  24  25
ENDBRANCH  23  24
ENDBRANCH  22  23
ENDBRANCH  11  22
ENDBRANCH   8   9
ENDBRANCH   7   8
ENDBRANCH   5   7
ENDBRANCH   2   5
TORSDOF 12
ENDMDL
MODEL       82
REMARK 921   NORMALIZED FREE ENERGY PREDICTED BY IDOCK:   -5.37 KCAL/MOL
REMARK 922        TOTAL FREE ENERGY PREDICTED BY IDOCK:  -10.74 KCAL/MOL
REMARK 923 INTER-LIGAND FREE ENERGY PREDICTED BY IDOCK:   -9.38 KCAL/MOL
REMARK 924 INTRA-LIGAND FREE ENERGY PREDICTED BY IDOCK:   -1.36 KCAL/MOL
REMARK 927      BINDING AFFINITY PREDICTED BY RF-SCORE:    0.00 PKD
ROOT
HETATM    1  C   UNL     1      -6.232   9.974  66.088  1.00  0.00    -0.076 C  
HETATM    2  C   UNL     1      -6.749   8.574  66.473  1.00  0.00    -0.067 C  
HETATM    3  C   UNL     1      -5.747   7.528  65.971  1.00  0.00    -0.036 C  
HETATM    4  C   UNL     1      -6.853   8.503  68.005  1.00  0.00    -0.070 C  
ENDROOT
BRANCH   2   5
HETATM    5  C   UNL     1      -8.143   8.376  65.857  1.00  0.00    -0.110 C  
HETATM    6  O   UNL     1      -8.322   8.064  64.683  1.00  0.00    -0.138 OA 
BRANCH   5   7
HETATM    7  O   UNL     1      -9.155   8.679  66.717  1.00  0.00    -0.136 OA 
BRANCH   7   8
HETATM    8  C   UNL     1     -10.154   9.561  66.172  1.00  0.00    -0.256 C  
BRANCH   8   9
HETATM    9  O   UNL     1     -10.939  10.221  67.161  1.00  0.00    -0.251 OA 
HETATM   10  P   UNL     1     -10.277  11.576  67.775  1.00  0.00    -0.193 P  
HETATM   11  C   UNL     1     -10.156  12.712  66.372  1.00  0.00    -0.253 C  
HETATM   12  O   UNL     1      -9.008  11.341  68.527  1.00  0.00    -0.161 OA 
HETATM   13  O   UNL     1     -11.453  12.315  68.589  1.00  0.00    -0.256 OA 
BRANCH  13  14
HETATM   14  C   UNL     1     -11.891  11.905  69.853  1.00  0.00    -0.343 C  
BRANCH  14  15
HETATM   15  O   UNL     1     -12.097  10.472  69.847  1.00  0.00    -0.283 OA 
BRANCH  15  16
HETATM   16  C   UNL     1     -12.189   9.881  71.073  1.00  0.00    -0.353 C  
HETATM   17  O   UNL     1     -12.826  10.347  72.011  1.00  0.00    -0.431 OA 
BRANCH  16  18
HETATM   18  C   UNL     1     -11.391   8.562  71.150  1.00  0.00    -0.319 C  
HETATM   19  C   UNL     1     -10.365   8.646  72.299  1.00  0.00    -0.376 C  
HETATM   20  C   UNL     1     -10.628   8.323  69.841  1.00  0.00    -0.232 C  
HETATM   21  C   UNL     1     -12.324   7.375  71.433  1.00  0.00    -0.394 C  
ENDBRANCH  16  18
ENDBRANCH  15  16
ENDBRANCH  14  15
ENDBRANCH  13  14
BRANCH  11  22
HETATM   22  O   UNL     1     -11.499  12.827  65.892  1.00  0.00    -0.322 OA 
BRANCH  22  23
HETATM   23  C   UNL     1     -11.928  14.167  65.767  1.00  0.00    -0.402 C  
BRANCH  23  24
HETATM   24  C   UNL     1     -10.701  15.068  65.775  1.00  0.00    -0.342 C  
BRANCH  24  25
HETATM   25  N   UNL     1     -10.805  16.041  66.831  1.00  0.00    -0.258 NA 
HETATM   26  C   UNL     1     -10.635  17.383  66.673  1.00  0.00    -0.182 A  
HETATM   27  N   UNL     1     -10.525  18.067  65.522  1.00  0.00    -0.608 NA 
HETATM   28  H2  UNL     1      -9.310  19.363  69.792  1.00  0.00     0.000 HD 
HETATM   29  H1  UNL     1      -9.845  20.866  69.396  1.00  0.00     0.000 HD 
HETATM   30  C   UNL     1     -10.861  15.775  68.172  1.00  0.00    -0.307 A  
HETATM   31  N   UNL     1     -10.695  16.865  68.889  1.00  0.00    -0.335 NA 
HETATM   32  C   UNL     1     -10.525  17.877  67.959  1.00  0.00    -0.382 A  
HETATM   33  C   UNL     1     -10.245  19.245  68.084  1.00  0.00    -0.418 A  
HETATM   34  N   UNL     1     -10.049  19.871  69.305  1.00  0.00    -0.308 NA 
HETATM   35  N   UNL     1     -10.159  19.991  66.956  1.00  0.00    -0.432 NA 
HETATM   36  C   UNL     1     -10.302  19.373  65.762  1.00  0.00    -0.349 A  
ENDBRANCH  24  25
ENDBRANCH  23  24
ENDBRANCH  22  23
ENDBRANCH  11  22
ENDBRANCH   8   9
ENDBRANCH   7   8
ENDBRANCH   5   7
ENDBRANCH   2   5
TORSDOF 12
ENDMDL
MODEL       83
REMARK 921   NORMALIZED FREE ENERGY PREDICTED BY IDOCK:   -5.37 KCAL/MOL
REMARK 922        TOTAL FREE ENERGY PREDICTED BY IDOCK:  -10.73 KCAL/MOL
REMARK 923 INTER-LIGAND FREE ENERGY PREDICTED BY IDOCK:   -9.19 KCAL/MOL
REMARK 924 INTRA-LIGAND FREE ENERGY PREDICTED BY IDOCK:   -1.54 KCAL/MOL
REMARK 927      BINDING AFFINITY PREDICTED BY RF-SCORE:    0.00 PKD
ROOT
HETATM    1  C   UNL     1      -5.777  12.242  67.276  1.00  0.00    -0.131 C  
HETATM    2  C   UNL     1      -6.780  11.923  68.402  1.00  0.00    -0.067 C  
HETATM    3  C   UNL     1      -6.100  12.188  69.750  1.00  0.00    -0.143 C  
HETATM    4  C   UNL     1      -7.996  12.849  68.241  1.00  0.00    -0.151 C  
ENDROOT
BRANCH   2   5
HETATM    5  C   UNL     1      -7.230  10.460  68.263  1.00  0.00    -0.083 C  
HETATM    6  O   UNL     1      -7.656   9.983  67.216  1.00  0.00    -0.094 OA 
BRANCH   5   7
HETATM    7  O   UNL     1      -7.202   9.779  69.444  1.00  0.00    -0.064 OA 
BRANCH   7   8
HETATM    8  C   UNL     1      -8.425   9.850  70.199  1.00  0.00    -0.111 C  
BRANCH   8   9
HETATM    9  O   UNL     1      -9.330   8.783  69.928  1.00  0.00    -0.155 OA 
HETATM   10  P   UNL     1     -10.425   8.492  71.096  1.00  0.00    -0.259 P  
HETATM   11  C   UNL     1     -11.421   9.999  71.187  1.00  0.00    -0.354 C  
HETATM   12  O   UNL     1      -9.824   8.036  72.387  1.00  0.00    -0.200 OA 
HETATM   13  O   UNL     1     -11.521   7.510  70.443  1.00  0.00    -0.269 OA 
BRANCH  13  14
HETATM   14  C   UNL     1     -11.309   6.143  70.241  1.00  0.00    -0.344 C  
BRANCH  14  15
HETATM   15  O   UNL     1     -11.033   5.902  68.841  1.00  0.00    -0.314 OA 
BRANCH  15  16
HETATM   16  C   UNL     1      -9.923   5.157  68.575  1.00  0.00    -0.154 C  
HETATM   17  O   UNL     1      -9.564   4.198  69.249  1.00  0.00    -0.176 OA 
BRANCH  16  18
HETATM   18  C   UNL     1      -9.160   5.664  67.332  1.00  0.00    -0.110 C  
HETATM   19  C   UNL     1      -9.329   4.656  66.176  1.00  0.00    -0.153 C  
HETATM   20  C   UNL     1      -7.663   5.793  67.642  1.00  0.00    -0.097 C  
HETATM   21  C   UNL     1      -9.714   7.018  66.866  1.00  0.00    -0.228 C  
ENDBRANCH  16  18
ENDBRANCH  15  16
ENDBRANCH  14  15
ENDBRANCH  13  14
BRANCH  11  22
HETATM   22  O   UNL     1     -11.939  10.162  69.864  1.00  0.00    -0.191 OA 
BRANCH  22  23
HETATM   23  C   UNL     1     -11.740  11.462  69.349  1.00  0.00    -0.338 C  
BRANCH  23  24
HETATM   24  C   UNL     1     -11.592  11.364  67.837  1.00  0.00    -0.266 C  
BRANCH  24  25
HETATM   25  N   UNL     1     -11.940  12.618  67.221  1.00  0.00    -0.467 NA 
HETATM   26  C   UNL     1     -12.141  12.800  65.886  1.00  0.00    -0.426 A  
HETATM   27  N   UNL     1     -12.237  11.858  64.934  1.00  0.00    -0.264 NA 
HETATM   28  H2  UNL     1     -11.355  16.373  64.466  1.00  0.00     0.000 HD 
HETATM   29  H1  UNL     1     -12.282  16.327  63.109  1.00  0.00     0.000 HD 
HETATM   30  C   UNL     1     -11.902  13.849  67.817  1.00  0.00    -0.380 A  
HETATM   31  N   UNL     1     -12.027  14.818  66.936  1.00  0.00    -0.280 NA 
HETATM   32  C   UNL     1     -12.150  14.172  65.717  1.00  0.00    -0.420 A  
HETATM   33  C   UNL     1     -12.248  14.640  64.399  1.00  0.00    -0.452 A  
HETATM   34  N   UNL     1     -12.210  15.986  64.068  1.00  0.00    -0.758 NA 
HETATM   35  N   UNL     1     -12.383  13.734  63.401  1.00  0.00    -0.765 NA 
HETATM   36  C   UNL     1     -12.371  12.420  63.717  1.00  0.00    -0.528 A  
ENDBRANCH  24  25
ENDBRANCH  23  24
ENDBRANCH  22  23
ENDBRANCH  11  22
ENDBRANCH   8   9
ENDBRANCH   7   8
ENDBRANCH   5   7
ENDBRANCH   2   5
TORSDOF 12
ENDMDL
MODEL       84
REMARK 921   NORMALIZED FREE ENERGY PREDICTED BY IDOCK:   -5.36 KCAL/MOL
REMARK 922        TOTAL FREE ENERGY PREDICTED BY IDOCK:  -10.72 KCAL/MOL
REMARK 923 INTER-LIGAND FREE ENERGY PREDICTED BY IDOCK:   -9.29 KCAL/MOL
REMARK 924 INTRA-LIGAND FREE ENERGY PREDICTED BY IDOCK:   -1.43 KCAL/MOL
REMARK 927      BINDING AFFINITY PREDICTED BY RF-SCORE:    0.00 PKD
ROOT
HETATM    1  C   UNL     1      -7.220  19.722  68.601  1.00  0.00    -0.358 C  
HETATM    2  C   UNL     1      -7.601  19.818  67.111  1.00  0.00    -0.289 C  
HETATM    3  C   UNL     1      -9.081  20.207  67.010  1.00  0.00    -0.481 C  
HETATM    4  C   UNL     1      -6.731  20.904  66.459  1.00  0.00    -0.307 C  
ENDROOT
BRANCH   2   5
HETATM    5  C   UNL     1      -7.316  18.465  66.441  1.00  0.00    -0.247 C  
HETATM    6  O   UNL     1      -7.051  18.347  65.248  1.00  0.00    -0.530 OA 
BRANCH   5   7
HETATM    7  O   UNL     1      -7.487  17.406  67.282  1.00  0.00    -0.178 OA 
BRANCH   7   8
HETATM    8  C   UNL     1      -6.305  16.606  67.477  1.00  0.00    -0.162 C  
BRANCH   8   9
HETATM    9  O   UNL     1      -6.474  15.237  67.121  1.00  0.00    -0.299 OA 
HETATM   10  P   UNL     1      -6.535  14.200  68.375  1.00  0.00    -0.135 P  
HETATM   11  C   UNL     1      -8.015  14.677  69.300  1.00  0.00    -0.055 C  
HETATM   12  O   UNL     1      -5.270  14.136  69.168  1.00  0.00    -0.078 OA 
HETATM   13  O   UNL     1      -7.061  12.804  67.771  1.00  0.00    -0.102 OA 
BRANCH  13  14
HETATM   14  C   UNL     1      -6.255  11.931  67.033  1.00  0.00    -0.145 C  
BRANCH  14  15
HETATM   15  O   UNL     1      -6.860  10.616  67.019  1.00  0.00    -0.082 OA 
BRANCH  15  16
HETATM   16  C   UNL     1      -8.218  10.588  66.904  1.00  0.00    -0.123 C  
HETATM   17  O   UNL     1      -8.846  11.215  66.059  1.00  0.00    -0.184 OA 
BRANCH  16  18
HETATM   18  C   UNL     1      -8.879   9.685  67.968  1.00  0.00    -0.119 C  
HETATM   19  C   UNL     1      -7.844   8.674  68.502  1.00  0.00    -0.108 C  
HETATM   20  C   UNL     1     -10.044   8.901  67.351  1.00  0.00    -0.288 C  
HETATM   21  C   UNL     1      -9.384  10.519  69.154  1.00  0.00    -0.200 C  
ENDBRANCH  16  18
ENDBRANCH  15  16
ENDBRANCH  14  15
ENDBRANCH  13  14
BRANCH  11  22
HETATM   22  O   UNL     1      -9.076  14.577  68.347  1.00  0.00    -0.180 OA 
BRANCH  22  23
HETATM   23  C   UNL     1     -10.056  15.583  68.504  1.00  0.00    -0.211 C  
BRANCH  23  24
HETATM   24  C   UNL     1     -11.419  14.915  68.611  1.00  0.00    -0.306 C  
BRANCH  24  25
HETATM   25  N   UNL     1     -11.573  13.929  67.574  1.00  0.00    -0.339 NA 
HETATM   26  C   UNL     1     -11.772  14.209  66.256  1.00  0.00    -0.390 A  
HETATM   27  N   UNL     1     -11.683  15.403  65.648  1.00  0.00     0.044 NA 
HETATM   28  H2  UNL     1     -13.781  11.551  64.182  1.00  0.00     0.000 HD 
HETATM   29  H1  UNL     1     -13.249  11.937  62.675  1.00  0.00     0.000 HD 
HETATM   30  C   UNL     1     -11.772  12.587  67.759  1.00  0.00    -0.359 A  
HETATM   31  N   UNL     1     -12.128  11.993  66.640  1.00  0.00    -0.540 NA 
HETATM   32  C   UNL     1     -12.158  13.005  65.696  1.00  0.00    -0.454 A  
HETATM   33  C   UNL     1     -12.521  13.032  64.343  1.00  0.00    -0.337 A  
HETATM   34  N   UNL     1     -12.985  11.918  63.660  1.00  0.00    -0.673 NA 
HETATM   35  N   UNL     1     -12.417  14.203  63.669  1.00  0.00    -0.797 NA 
HETATM   36  C   UNL     1     -12.011  15.301  64.346  1.00  0.00    -0.277 A  
ENDBRANCH  24  25
ENDBRANCH  23  24
ENDBRANCH  22  23
ENDBRANCH  11  22
ENDBRANCH   8   9
ENDBRANCH   7   8
ENDBRANCH   5   7
ENDBRANCH   2   5
TORSDOF 12
ENDMDL
MODEL       85
REMARK 921   NORMALIZED FREE ENERGY PREDICTED BY IDOCK:   -5.35 KCAL/MOL
REMARK 922        TOTAL FREE ENERGY PREDICTED BY IDOCK:  -10.70 KCAL/MOL
REMARK 923 INTER-LIGAND FREE ENERGY PREDICTED BY IDOCK:   -9.00 KCAL/MOL
REMARK 924 INTRA-LIGAND FREE ENERGY PREDICTED BY IDOCK:   -1.70 KCAL/MOL
REMARK 927      BINDING AFFINITY PREDICTED BY RF-SCORE:    0.00 PKD
ROOT
HETATM    1  C   UNL     1     -10.528   7.984  72.652  1.00  0.00    -0.408 C  
HETATM    2  C   UNL     1     -10.455   8.342  71.154  1.00  0.00    -0.263 C  
HETATM    3  C   UNL     1     -10.737   7.076  70.337  1.00  0.00    -0.259 C  
HETATM    4  C   UNL     1     -11.526   9.403  70.858  1.00  0.00    -0.382 C  
ENDROOT
BRANCH   2   5
HETATM    5  C   UNL     1      -9.064   8.922  70.853  1.00  0.00    -0.230 C  
HETATM    6  O   UNL     1      -8.175   9.014  71.694  1.00  0.00    -0.330 OA 
BRANCH   5   7
HETATM    7  O   UNL     1      -8.954   9.415  69.587  1.00  0.00    -0.148 OA 
BRANCH   7   8
HETATM    8  C   UNL     1      -8.123  10.585  69.474  1.00  0.00    -0.094 C  
BRANCH   8   9
HETATM    9  O   UNL     1      -8.694  11.621  68.681  1.00  0.00    -0.153 OA 
HETATM   10  P   UNL     1      -7.620  12.576  67.916  1.00  0.00    -0.165 P  
HETATM   11  C   UNL     1      -6.749  11.476  66.775  1.00  0.00    -0.121 C  
HETATM   12  O   UNL     1      -6.752  13.369  68.839  1.00  0.00    -0.100 OA 
HETATM   13  O   UNL     1      -8.467  13.426  66.842  1.00  0.00    -0.160 OA 
BRANCH  13  14
HETATM   14  C   UNL     1      -9.266  14.522  67.183  1.00  0.00    -0.223 C  
BRANCH  14  15
HETATM   15  O   UNL     1      -8.767  15.705  66.514  1.00  0.00    -0.260 OA 
BRANCH  15  16
HETATM   16  C   UNL     1      -9.713  16.535  65.991  1.00  0.00    -0.301 C  
HETATM   17  O   UNL     1     -10.424  16.245  65.035  1.00  0.00    -0.621 OA 
BRANCH  16  18
HETATM   18  C   UNL     1      -9.783  17.888  66.731  1.00  0.00    -0.314 C  
HETATM   19  C   UNL     1     -10.595  17.723  68.032  1.00  0.00    -0.372 C  
HETATM   20  C   UNL     1     -10.481  18.938  65.857  1.00  0.00    -0.450 C  
HETATM   21  C   UNL     1      -8.376  18.377  67.108  1.00  0.00    -0.248 C  
ENDBRANCH  16  18
ENDBRANCH  15  16
ENDBRANCH  14  15
ENDBRANCH  13  14
BRANCH  11  22
HETATM   22  O   UNL     1      -7.784  10.916  65.963  1.00  0.00    -0.153 OA 
BRANCH  22  23
HETATM   23  C   UNL     1      -8.006   9.545  66.220  1.00  0.00    -0.107 C  
BRANCH  23  24
HETATM   24  C   UNL     1      -9.283   9.121  65.507  1.00  0.00    -0.224 C  
BRANCH  24  25
HETATM   25  N   UNL     1     -10.350  10.037  65.814  1.00  0.00    -0.186 NA 
HETATM   26  C   UNL     1     -10.748  11.065  65.013  1.00  0.00    -0.194 A  
HETATM   27  N   UNL     1     -10.372  11.314  63.748  1.00  0.00    -0.361 NA 
HETATM   28  H2  UNL     1     -12.319  14.181  66.809  1.00  0.00     0.000 HD 
HETATM   29  H1  UNL     1     -13.174  14.806  65.552  1.00  0.00     0.000 HD 
HETATM   30  C   UNL     1     -10.975  10.175  67.023  1.00  0.00    -0.092 A  
HETATM   31  N   UNL     1     -11.722  11.257  67.062  1.00  0.00    -0.457 NA 
HETATM   32  C   UNL     1     -11.566  11.839  65.815  1.00  0.00    -0.125 A  
HETATM   33  C   UNL     1     -12.044  13.033  65.257  1.00  0.00    -0.441 A  
HETATM   34  N   UNL     1     -12.826  13.938  65.958  1.00  0.00    -0.372 NA 
HETATM   35  N   UNL     1     -11.725  13.316  63.971  1.00  0.00    -0.417 NA 
HETATM   36  C   UNL     1     -10.924  12.458  63.301  1.00  0.00    -0.267 A  
ENDBRANCH  24  25
ENDBRANCH  23  24
ENDBRANCH  22  23
ENDBRANCH  11  22
ENDBRANCH   8   9
ENDBRANCH   7   8
ENDBRANCH   5   7
ENDBRANCH   2   5
TORSDOF 12
ENDMDL
MODEL       86
REMARK 921   NORMALIZED FREE ENERGY PREDICTED BY IDOCK:   -5.35 KCAL/MOL
REMARK 922        TOTAL FREE ENERGY PREDICTED BY IDOCK:  -10.69 KCAL/MOL
REMARK 923 INTER-LIGAND FREE ENERGY PREDICTED BY IDOCK:   -9.10 KCAL/MOL
REMARK 924 INTRA-LIGAND FREE ENERGY PREDICTED BY IDOCK:   -1.59 KCAL/MOL
REMARK 927      BINDING AFFINITY PREDICTED BY RF-SCORE:    0.00 PKD
ROOT
HETATM    1  C   UNL     1     -12.644   7.911  71.526  1.00  0.00    -0.343 C  
HETATM    2  C   UNL     1     -11.590   8.852  70.912  1.00  0.00    -0.331 C  
HETATM    3  C   UNL     1     -10.393   8.933  71.867  1.00  0.00    -0.407 C  
HETATM    4  C   UNL     1     -11.143   8.262  69.565  1.00  0.00     0.039 C  
ENDROOT
BRANCH   2   5
HETATM    5  C   UNL     1     -12.232  10.229  70.679  1.00  0.00    -0.329 C  
HETATM    6  O   UNL     1     -12.463  11.026  71.583  1.00  0.00    -0.310 OA 
BRANCH   5   7
HETATM    7  O   UNL     1     -12.608  10.430  69.385  1.00  0.00    -0.116 OA 
BRANCH   7   8
HETATM    8  C   UNL     1     -11.993  11.571  68.758  1.00  0.00    -0.271 C  
BRANCH   8   9
HETATM    9  O   UNL     1     -11.183  11.242  67.633  1.00  0.00    -0.258 OA 
HETATM   10  P   UNL     1     -11.186  12.342  66.434  1.00  0.00    -0.355 P  
HETATM   11  C   UNL     1     -10.467  13.832  67.167  1.00  0.00    -0.272 C  
HETATM   12  O   UNL     1     -12.519  12.522  65.783  1.00  0.00    -0.626 OA 
HETATM   13  O   UNL     1      -9.973  11.938  65.457  1.00  0.00    -0.230 OA 
BRANCH  13  14
HETATM   14  C   UNL     1     -10.037  10.880  64.544  1.00  0.00    -0.341 C  
BRANCH  14  15
HETATM   15  O   UNL     1      -8.954   9.955  64.804  1.00  0.00    -0.183 OA 
BRANCH  15  16
HETATM   16  C   UNL     1      -9.103   9.160  65.901  1.00  0.00    -0.205 C  
HETATM   17  O   UNL     1     -10.099   8.479  66.122  1.00  0.00    -0.221 OA 
BRANCH  16  18
HETATM   18  C   UNL     1      -7.880   9.219  66.841  1.00  0.00    -0.098 C  
HETATM   19  C   UNL     1      -7.375   7.789  67.122  1.00  0.00    -0.091 C  
HETATM   20  C   UNL     1      -8.267   9.864  68.178  1.00  0.00    -0.109 C  
HETATM   21  C   UNL     1      -6.733  10.009  66.194  1.00  0.00    -0.100 C  
ENDBRANCH  16  18
ENDBRANCH  15  16
ENDBRANCH  14  15
ENDBRANCH  13  14
BRANCH  11  22
HETATM   22  O   UNL     1      -9.182  13.412  67.634  1.00  0.00    -0.194 OA 
BRANCH  22  23
HETATM   23  C   UNL     1      -8.423  14.468  68.185  1.00  0.00    -0.157 C  
BRANCH  23  24
HETATM   24  C   UNL     1      -9.378  15.565  68.634  1.00  0.00    -0.201 C  
BRANCH  24  25
HETATM   25  N   UNL     1      -8.716  16.843  68.603  1.00  0.00    -0.260 NA 
HETATM   26  C   UNL     1      -9.266  17.993  68.122  1.00  0.00    -0.279 A  
HETATM   27  N   UNL     1     -10.543  18.206  67.766  1.00  0.00    -0.407 NA 
HETATM   28  H2  UNL     1      -6.776  20.644  66.647  1.00  0.00     0.000 HD 
HETATM   29  H1  UNL     1      -7.708  21.991  66.795  1.00  0.00     0.000 HD 
HETATM   30  C   UNL     1      -7.385  17.070  68.828  1.00  0.00    -0.236 A  
HETATM   31  N   UNL     1      -7.037  18.290  68.480  1.00  0.00    -0.259 NA 
HETATM   32  C   UNL     1      -8.203  18.870  68.010  1.00  0.00    -0.293 A  
HETATM   33  C   UNL     1      -8.480  20.121  67.440  1.00  0.00    -0.339 A  
HETATM   34  N   UNL     1      -7.507  21.081  67.210  1.00  0.00    -0.378 NA 
HETATM   35  N   UNL     1      -9.760  20.403  67.095  1.00  0.00    -0.448 NA 
HETATM   36  C   UNL     1     -10.701  19.450  67.275  1.00  0.00    -0.490 A  
ENDBRANCH  24  25
ENDBRANCH  23  24
ENDBRANCH  22  23
ENDBRANCH  11  22
ENDBRANCH   8   9
ENDBRANCH   7   8
ENDBRANCH   5   7
ENDBRANCH   2   5
TORSDOF 12
ENDMDL
MODEL       87
REMARK 921   NORMALIZED FREE ENERGY PREDICTED BY IDOCK:   -5.33 KCAL/MOL
REMARK 922        TOTAL FREE ENERGY PREDICTED BY IDOCK:  -10.67 KCAL/MOL
REMARK 923 INTER-LIGAND FREE ENERGY PREDICTED BY IDOCK:   -9.28 KCAL/MOL
REMARK 924 INTRA-LIGAND FREE ENERGY PREDICTED BY IDOCK:   -1.39 KCAL/MOL
REMARK 927      BINDING AFFINITY PREDICTED BY RF-SCORE:    0.00 PKD
ROOT
HETATM    1  C   UNL     1      -8.337  18.437  66.402  1.00  0.00    -0.272 C  
HETATM    2  C   UNL     1      -9.867  18.596  66.505  1.00  0.00    -0.388 C  
HETATM    3  C   UNL     1     -10.243  18.745  67.984  1.00  0.00    -0.438 C  
HETATM    4  C   UNL     1     -10.274  19.861  65.733  1.00  0.00    -0.486 C  
ENDROOT
BRANCH   2   5
HETATM    5  C   UNL     1     -10.535  17.369  65.864  1.00  0.00    -0.252 C  
HETATM    6  O   UNL     1     -11.061  17.392  64.755  1.00  0.00    -0.973 OA 
BRANCH   5   7
HETATM    7  O   UNL     1     -10.572  16.288  66.692  1.00  0.00    -0.304 OA 
BRANCH   7   8
HETATM    8  C   UNL     1     -10.894  15.047  66.035  1.00  0.00    -0.334 C  
BRANCH   8   9
HETATM    9  O   UNL     1     -10.050  13.963  66.410  1.00  0.00    -0.279 OA 
HETATM   10  P   UNL     1      -9.337  14.113  67.865  1.00  0.00    -0.219 P  
HETATM   11  C   UNL     1     -10.702  14.135  69.052  1.00  0.00    -0.231 C  
HETATM   12  O   UNL     1      -8.385  15.262  67.955  1.00  0.00    -0.141 OA 
HETATM   13  O   UNL     1      -8.729  12.664  68.214  1.00  0.00    -0.183 OA 
BRANCH  13  14
HETATM   14  C   UNL     1      -7.555  12.162  67.644  1.00  0.00    -0.140 C  
BRANCH  14  15
HETATM   15  O   UNL     1      -7.884  11.423  66.443  1.00  0.00    -0.145 OA 
BRANCH  15  16
HETATM   16  C   UNL     1      -8.080  10.084  66.605  1.00  0.00    -0.118 C  
HETATM   17  O   UNL     1      -7.290   9.341  67.178  1.00  0.00    -0.089 OA 
BRANCH  16  18
HETATM   18  C   UNL     1      -9.405   9.604  65.976  1.00  0.00    -0.263 C  
HETATM   19  C   UNL     1      -9.616   8.109  66.294  1.00  0.00    -0.248 C  
HETATM   20  C   UNL     1      -9.362   9.770  64.452  1.00  0.00    -0.278 C  
HETATM   21  C   UNL     1     -10.597  10.384  66.551  1.00  0.00    -0.220 C  
ENDBRANCH  16  18
ENDBRANCH  15  16
ENDBRANCH  14  15
ENDBRANCH  13  14
BRANCH  11  22
HETATM   22  O   UNL     1     -11.398  12.909  68.815  1.00  0.00    -0.252 OA 
BRANCH  22  23
HETATM   23  C   UNL     1     -12.079  12.430  69.956  1.00  0.00    -0.263 C  
BRANCH  23  24
HETATM   24  C   UNL     1     -12.516  10.996  69.690  1.00  0.00    -0.140 C  
BRANCH  24  25
HETATM   25  N   UNL     1     -12.054  10.132  70.744  1.00  0.00    -0.318 NA 
HETATM   26  C   UNL     1     -10.820   9.556  70.795  1.00  0.00    -0.318 A  
HETATM   27  N   UNL     1      -9.762   9.810  70.008  1.00  0.00    -0.243 NA 
HETATM   28  H2  UNL     1     -10.561   6.131  72.694  1.00  0.00     0.000 HD 
HETATM   29  H1  UNL     1      -8.955   6.147  73.047  1.00  0.00     0.000 HD 
HETATM   30  C   UNL     1     -12.826   9.572  71.726  1.00  0.00    -0.406 A  
HETATM   31  N   UNL     1     -12.171   8.637  72.381  1.00  0.00    -0.372 NA 
HETATM   32  C   UNL     1     -10.921   8.599  71.788  1.00  0.00    -0.326 A  
HETATM   33  C   UNL     1      -9.799   7.781  71.986  1.00  0.00    -0.174 A  
HETATM   34  N   UNL     1      -9.771   6.742  72.903  1.00  0.00    -0.152 NA 
HETATM   35  N   UNL     1      -8.690   8.016  71.243  1.00  0.00    -0.131 NA 
HETATM   36  C   UNL     1      -8.732   8.998  70.315  1.00  0.00    -0.184 A  
ENDBRANCH  24  25
ENDBRANCH  23  24
ENDBRANCH  22  23
ENDBRANCH  11  22
ENDBRANCH   8   9
ENDBRANCH   7   8
ENDBRANCH   5   7
ENDBRANCH   2   5
TORSDOF 12
ENDMDL
MODEL       88
REMARK 921   NORMALIZED FREE ENERGY PREDICTED BY IDOCK:   -5.33 KCAL/MOL
REMARK 922        TOTAL FREE ENERGY PREDICTED BY IDOCK:  -10.67 KCAL/MOL
REMARK 923 INTER-LIGAND FREE ENERGY PREDICTED BY IDOCK:   -9.18 KCAL/MOL
REMARK 924 INTRA-LIGAND FREE ENERGY PREDICTED BY IDOCK:   -1.49 KCAL/MOL
REMARK 927      BINDING AFFINITY PREDICTED BY RF-SCORE:    0.00 PKD
ROOT
HETATM    1  C   UNL     1      -6.478   7.376  68.898  1.00  0.00    -0.040 C  
HETATM    2  C   UNL     1      -7.528   8.347  69.473  1.00  0.00    -0.088 C  
HETATM    3  C   UNL     1      -8.923   7.833  69.098  1.00  0.00    -0.145 C  
HETATM    4  C   UNL     1      -7.376   8.371  71.002  1.00  0.00    -0.069 C  
ENDROOT
BRANCH   2   5
HETATM    5  C   UNL     1      -7.263   9.752  68.911  1.00  0.00    -0.072 C  
HETATM    6  O   UNL     1      -7.445  10.781  69.556  1.00  0.00    -0.142 OA 
BRANCH   5   7
HETATM    7  O   UNL     1      -6.903   9.742  67.597  1.00  0.00    -0.082 OA 
BRANCH   7   8
HETATM    8  C   UNL     1      -7.956  10.118  66.690  1.00  0.00    -0.116 C  
BRANCH   8   9
HETATM    9  O   UNL     1      -8.328  11.490  66.779  1.00  0.00    -0.157 OA 
HETATM   10  P   UNL     1      -9.880  11.810  66.408  1.00  0.00    -0.226 P  
HETATM   11  C   UNL     1     -10.848  10.934  67.660  1.00  0.00    -0.266 C  
HETATM   12  O   UNL     1     -10.236  11.509  64.988  1.00  0.00    -0.252 OA 
HETATM   13  O   UNL     1     -10.152  13.319  66.898  1.00  0.00    -0.242 OA 
BRANCH  13  14
HETATM   14  C   UNL     1      -9.708  14.448  66.202  1.00  0.00    -0.312 C  
BRANCH  14  15
HETATM   15  O   UNL     1     -10.429  15.613  66.668  1.00  0.00    -0.290 OA 
BRANCH  15  16
HETATM   16  C   UNL     1     -10.312  16.732  65.897  1.00  0.00    -0.328 C  
HETATM   17  O   UNL     1     -10.747  16.824  64.755  1.00  0.00    -0.726 OA 
BRANCH  16  18
HETATM   18  C   UNL     1      -9.558  17.868  66.621  1.00  0.00    -0.311 C  
HETATM   19  C   UNL     1      -9.801  17.762  68.140  1.00  0.00    -0.326 C  
HETATM   20  C   UNL     1     -10.069  19.233  66.146  1.00  0.00    -0.517 C  
HETATM   21  C   UNL     1      -8.046  17.764  66.374  1.00  0.00    -0.296 C  
ENDBRANCH  16  18
ENDBRANCH  15  16
ENDBRANCH  14  15
ENDBRANCH  13  14
BRANCH  11  22
HETATM   22  O   UNL     1     -10.375  11.457  68.904  1.00  0.00    -0.206 OA 
BRANCH  22  23
HETATM   23  C   UNL     1     -11.083  10.956  70.019  1.00  0.00    -0.211 C  
BRANCH  23  24
HETATM   24  C   UNL     1     -12.549  11.341  69.872  1.00  0.00    -0.064 C  
BRANCH  24  25
HETATM   25  N   UNL     1     -12.898  12.348  70.839  1.00  0.00    -0.162 NA 
HETATM   26  C   UNL     1     -12.502  13.650  70.785  1.00  0.00    -0.359 A  
HETATM   27  N   UNL     1     -11.888  14.281  69.770  1.00  0.00    -0.304 NA 
HETATM   28  H2  UNL     1     -12.150  15.520  74.218  1.00  0.00     0.000 HD 
HETATM   29  H1  UNL     1     -12.295  17.070  73.689  1.00  0.00     0.000 HD 
HETATM   30  C   UNL     1     -13.474  12.129  72.061  1.00  0.00    -0.286 A  
HETATM   31  N   UNL     1     -13.435  13.207  72.815  1.00  0.00    -0.541 NA 
HETATM   32  C   UNL     1     -12.803  14.160  72.035  1.00  0.00    -0.338 A  
HETATM   33  C   UNL     1     -12.405  15.481  72.285  1.00  0.00    -0.395 A  
HETATM   34  N   UNL     1     -12.585  16.109  73.508  1.00  0.00    -0.538 NA 
HETATM   35  N   UNL     1     -11.813  16.177  71.283  1.00  0.00    -0.439 NA 
HETATM   36  C   UNL     1     -11.593  15.551  70.106  1.00  0.00    -0.337 A  
ENDBRANCH  24  25
ENDBRANCH  23  24
ENDBRANCH  22  23
ENDBRANCH  11  22
ENDBRANCH   8   9
ENDBRANCH   7   8
ENDBRANCH   5   7
ENDBRANCH   2   5
TORSDOF 12
ENDMDL
MODEL       89
REMARK 921   NORMALIZED FREE ENERGY PREDICTED BY IDOCK:   -5.32 KCAL/MOL
REMARK 922        TOTAL FREE ENERGY PREDICTED BY IDOCK:  -10.65 KCAL/MOL
REMARK 923 INTER-LIGAND FREE ENERGY PREDICTED BY IDOCK:   -9.74 KCAL/MOL
REMARK 924 INTRA-LIGAND FREE ENERGY PREDICTED BY IDOCK:   -0.91 KCAL/MOL
REMARK 927      BINDING AFFINITY PREDICTED BY RF-SCORE:    0.00 PKD
ROOT
HETATM    1  C   UNL     1     -12.115  15.075  72.896  1.00  0.00    -0.428 C  
HETATM    2  C   UNL     1     -13.175  14.589  71.889  1.00  0.00    -0.440 C  
HETATM    3  C   UNL     1     -13.598  13.167  72.275  1.00  0.00    -0.677 C  
HETATM    4  C   UNL     1     -14.385  15.533  71.968  1.00  0.00    -0.600 C  
ENDROOT
BRANCH   2   5
HETATM    5  C   UNL     1     -12.576  14.646  70.475  1.00  0.00    -0.350 C  
HETATM    6  O   UNL     1     -12.348  15.696  69.881  1.00  0.00    -0.354 OA 
BRANCH   5   7
HETATM    7  O   UNL     1     -12.418  13.414  69.913  1.00  0.00    -0.222 OA 
BRANCH   7   8
HETATM    8  C   UNL     1     -11.677  13.415  68.678  1.00  0.00    -0.349 C  
BRANCH   8   9
HETATM    9  O   UNL     1     -10.847  12.270  68.506  1.00  0.00    -0.219 OA 
HETATM   10  P   UNL     1     -10.509  11.889  66.960  1.00  0.00    -0.239 P  
HETATM   11  C   UNL     1      -9.574  13.302  66.326  1.00  0.00    -0.235 C  
HETATM   12  O   UNL     1     -11.708  11.496  66.159  1.00  0.00    -0.346 OA 
HETATM   13  O   UNL     1      -9.316  10.810  67.019  1.00  0.00    -0.155 OA 
BRANCH  13  14
HETATM   14  C   UNL     1      -9.507   9.466  67.353  1.00  0.00    -0.131 C  
BRANCH  14  15
HETATM   15  O   UNL     1      -9.610   9.340  68.792  1.00  0.00    -0.151 OA 
BRANCH  15  16
HETATM   16  C   UNL     1     -10.357   8.293  69.244  1.00  0.00    -0.218 C  
HETATM   17  O   UNL     1     -10.515   7.247  68.624  1.00  0.00    -0.193 OA 
BRANCH  16  18
HETATM   18  C   UNL     1     -10.993   8.576  70.622  1.00  0.00    -0.268 C  
HETATM   19  C   UNL     1      -9.882   8.721  71.682  1.00  0.00    -0.378 C  
HETATM   20  C   UNL     1     -11.905   7.415  71.037  1.00  0.00    -0.336 C  
HETATM   21  C   UNL     1     -11.796   9.885  70.595  1.00  0.00    -0.386 C  
ENDBRANCH  16  18
ENDBRANCH  15  16
ENDBRANCH  14  15
ENDBRANCH  13  14
BRANCH  11  22
HETATM   22  O   UNL     1      -8.454  13.411  67.207  1.00  0.00    -0.193 OA 
BRANCH  22  23
HETATM   23  C   UNL     1      -8.023  14.743  67.392  1.00  0.00    -0.197 C  
BRANCH  23  24
HETATM   24  C   UNL     1      -9.225  15.664  67.235  1.00  0.00    -0.204 C  
BRANCH  24  25
HETATM   25  N   UNL     1      -8.853  17.022  67.533  1.00  0.00    -0.209 NA 
HETATM   26  C   UNL     1      -7.670  17.600  67.185  1.00  0.00    -0.207 A  
HETATM   27  N   UNL     1      -6.725  17.108  66.367  1.00  0.00    -0.246 NA 
HETATM   28  H2  UNL     1      -6.363  20.470  69.521  1.00  0.00     0.000 HD 
HETATM   29  H1  UNL     1      -5.371  21.241  68.461  1.00  0.00     0.000 HD 
HETATM   30  C   UNL     1      -9.503  17.868  68.391  1.00  0.00    -0.303 A  
HETATM   31  N   UNL     1      -8.786  18.941  68.648  1.00  0.00    -0.348 NA 
HETATM   32  C   UNL     1      -7.622  18.771  67.917  1.00  0.00    -0.251 A  
HETATM   33  C   UNL     1      -6.445  19.526  67.816  1.00  0.00    -0.222 A  
HETATM   34  N   UNL     1      -6.227  20.692  68.535  1.00  0.00    -0.327 NA 
HETATM   35  N   UNL     1      -5.472  19.095  66.977  1.00  0.00    -0.163 NA 
HETATM   36  C   UNL     1      -5.663  17.933  66.312  1.00  0.00    -0.189 A  
ENDBRANCH  24  25
ENDBRANCH  23  24
ENDBRANCH  22  23
ENDBRANCH  11  22
ENDBRANCH   8   9
ENDBRANCH   7   8
ENDBRANCH   5   7
ENDBRANCH   2   5
TORSDOF 12
ENDMDL
MODEL       90
REMARK 921   NORMALIZED FREE ENERGY PREDICTED BY IDOCK:   -5.31 KCAL/MOL
REMARK 922        TOTAL FREE ENERGY PREDICTED BY IDOCK:  -10.64 KCAL/MOL
REMARK 923 INTER-LIGAND FREE ENERGY PREDICTED BY IDOCK:   -9.34 KCAL/MOL
REMARK 924 INTRA-LIGAND FREE ENERGY PREDICTED BY IDOCK:   -1.30 KCAL/MOL
REMARK 927      BINDING AFFINITY PREDICTED BY RF-SCORE:    0.00 PKD
ROOT
HETATM    1  C   UNL     1     -10.819  17.141  68.398  1.00  0.00    -0.309 C  
HETATM    2  C   UNL     1     -10.008  17.957  67.374  1.00  0.00    -0.325 C  
HETATM    3  C   UNL     1     -10.801  19.221  67.019  1.00  0.00    -0.515 C  
HETATM    4  C   UNL     1      -8.668  18.347  68.018  1.00  0.00    -0.302 C  
ENDROOT
BRANCH   2   5
HETATM    5  C   UNL     1      -9.744  17.080  66.140  1.00  0.00    -0.261 C  
HETATM    6  O   UNL     1      -8.622  16.718  65.797  1.00  0.00    -0.485 OA 
BRANCH   5   7
HETATM    7  O   UNL     1     -10.870  16.831  65.413  1.00  0.00    -0.413 OA 
BRANCH   7   8
HETATM    8  C   UNL     1     -10.915  15.519  64.819  1.00  0.00    -0.399 C  
BRANCH   8   9
HETATM    9  O   UNL     1     -10.927  14.459  65.770  1.00  0.00    -0.300 OA 
HETATM   10  P   UNL     1     -12.131  13.379  65.585  1.00  0.00    -0.480 P  
HETATM   11  C   UNL     1     -11.829  12.618  63.972  1.00  0.00    -0.431 C  
HETATM   12  O   UNL     1     -13.496  13.956  65.782  1.00  0.00    -0.464 OA 
HETATM   13  O   UNL     1     -11.753  12.127  66.523  1.00  0.00    -0.495 OA 
BRANCH  13  14
HETATM   14  C   UNL     1     -11.910  12.128  67.913  1.00  0.00    -0.269 C  
BRANCH  14  15
HETATM   15  O   UNL     1     -11.732  10.783  68.417  1.00  0.00    -0.428 OA 
BRANCH  15  16
HETATM   16  C   UNL     1     -10.586  10.560  69.120  1.00  0.00    -0.229 C  
HETATM   17  O   UNL     1      -9.536  11.164  68.927  1.00  0.00    -0.198 OA 
BRANCH  16  18
HETATM   18  C   UNL     1     -10.754   9.452  70.182  1.00  0.00    -0.282 C  
HETATM   19  C   UNL     1      -9.459   9.332  71.012  1.00  0.00    -0.313 C  
HETATM   20  C   UNL     1     -11.019   8.102  69.505  1.00  0.00    -0.056 C  
HETATM   21  C   UNL     1     -11.904   9.787  71.143  1.00  0.00    -0.466 C  
ENDBRANCH  16  18
ENDBRANCH  15  16
ENDBRANCH  14  15
ENDBRANCH  13  14
BRANCH  11  22
HETATM   22  O   UNL     1     -10.509  12.079  64.075  1.00  0.00    -0.307 OA 
BRANCH  22  23
HETATM   23  C   UNL     1     -10.294  10.977  63.218  1.00  0.00    -0.255 C  
BRANCH  23  24
HETATM   24  C   UNL     1      -8.793  10.766  63.073  1.00  0.00    -0.230 C  
BRANCH  24  25
HETATM   25  N   UNL     1      -8.335   9.786  64.023  1.00  0.00    -0.155 NA 
HETATM   26  C   UNL     1      -7.918   8.529  63.705  1.00  0.00    -0.161 A  
HETATM   27  N   UNL     1      -7.679   8.028  62.481  1.00  0.00    -0.120 NA 
HETATM   28  H2  UNL     1      -8.420   5.766  66.447  1.00  0.00     0.000 HD 
HETATM   29  H1  UNL     1      -7.285   4.688  65.945  1.00  0.00     0.000 HD 
HETATM   30  C   UNL     1      -8.455   9.862  65.384  1.00  0.00    -0.147 A  
HETATM   31  N   UNL     1      -8.177   8.712  65.960  1.00  0.00    -0.121 NA 
HETATM   32  C   UNL     1      -7.865   7.860  64.913  1.00  0.00    -0.126 A  
HETATM   33  C   UNL     1      -7.549   6.495  64.861  1.00  0.00    -0.097 A  
HETATM   34  N   UNL     1      -7.516   5.681  65.983  1.00  0.00    -0.081 NA 
HETATM   35  N   UNL     1      -7.264   5.944  63.656  1.00  0.00    -0.055 NA 
HETATM   36  C   UNL     1      -7.342   6.726  62.556  1.00  0.00    -0.065 A  
ENDBRANCH  24  25
ENDBRANCH  23  24
ENDBRANCH  22  23
ENDBRANCH  11  22
ENDBRANCH   8   9
ENDBRANCH   7   8
ENDBRANCH   5   7
ENDBRANCH   2   5
TORSDOF 12
ENDMDL
MODEL       91
REMARK 921   NORMALIZED FREE ENERGY PREDICTED BY IDOCK:   -5.30 KCAL/MOL
REMARK 922        TOTAL FREE ENERGY PREDICTED BY IDOCK:  -10.62 KCAL/MOL
REMARK 923 INTER-LIGAND FREE ENERGY PREDICTED BY IDOCK:   -9.04 KCAL/MOL
REMARK 924 INTRA-LIGAND FREE ENERGY PREDICTED BY IDOCK:   -1.57 KCAL/MOL
REMARK 927      BINDING AFFINITY PREDICTED BY RF-SCORE:    0.00 PKD
ROOT
HETATM    1  C   UNL     1      -9.195  10.019  64.961  1.00  0.00    -0.277 C  
HETATM    2  C   UNL     1      -8.093   9.082  64.428  1.00  0.00    -0.146 C  
HETATM    3  C   UNL     1      -8.326   8.859  62.929  1.00  0.00    -0.198 C  
HETATM    4  C   UNL     1      -6.733   9.761  64.649  1.00  0.00    -0.113 C  
ENDROOT
BRANCH   2   5
HETATM    5  C   UNL     1      -8.140   7.764  65.219  1.00  0.00    -0.133 C  
HETATM    6  O   UNL     1      -7.904   6.669  64.717  1.00  0.00    -0.104 OA 
BRANCH   5   7
HETATM    7  O   UNL     1      -8.567   7.927  66.503  1.00  0.00    -0.129 OA 
BRANCH   7   8
HETATM    8  C   UNL     1      -7.578   7.615  67.502  1.00  0.00    -0.109 C  
BRANCH   8   9
HETATM    9  O   UNL     1      -8.046   7.766  68.839  1.00  0.00    -0.122 OA 
HETATM   10  P   UNL     1      -7.514   9.097  69.610  1.00  0.00    -0.093 P  
HETATM   11  C   UNL     1      -8.196  10.483  68.669  1.00  0.00    -0.130 C  
HETATM   12  O   UNL     1      -6.035   9.123  69.820  1.00  0.00    -0.035 OA 
HETATM   13  O   UNL     1      -8.417   9.232  70.937  1.00  0.00    -0.197 OA 
BRANCH  13  14
HETATM   14  C   UNL     1      -8.233   8.445  72.078  1.00  0.00    -0.155 C  
BRANCH  14  15
HETATM   15  O   UNL     1      -9.015   7.233  71.956  1.00  0.00    -0.129 OA 
BRANCH  15  16
HETATM   16  C   UNL     1     -10.109   7.148  72.766  1.00  0.00    -0.196 C  
HETATM   17  O   UNL     1     -10.052   7.095  73.989  1.00  0.00    -0.329 OA 
BRANCH  16  18
HETATM   18  C   UNL     1     -11.430   7.115  71.967  1.00  0.00    -0.310 C  
HETATM   19  C   UNL     1     -11.119   7.075  70.457  1.00  0.00    -0.316 C  
HETATM   20  C   UNL     1     -12.257   8.374  72.255  1.00  0.00    -0.449 C  
HETATM   21  C   UNL     1     -12.248   5.863  72.317  1.00  0.00    -0.050 C  
ENDBRANCH  16  18
ENDBRANCH  15  16
ENDBRANCH  14  15
ENDBRANCH  13  14
BRANCH  11  22
HETATM   22  O   UNL     1      -9.609  10.265  68.689  1.00  0.00    -0.155 OA 
BRANCH  22  23
HETATM   23  C   UNL     1     -10.354  11.463  68.618  1.00  0.00    -0.203 C  
BRANCH  23  24
HETATM   24  C   UNL     1     -11.447  11.289  67.573  1.00  0.00    -0.246 C  
BRANCH  24  25
HETATM   25  N   UNL     1     -11.809  12.566  67.016  1.00  0.00    -0.503 NA 
HETATM   26  C   UNL     1     -12.053  12.800  65.696  1.00  0.00    -0.459 A  
HETATM   27  N   UNL     1     -12.184  11.894  64.713  1.00  0.00    -0.246 NA 
HETATM   28  H2  UNL     1     -11.300  16.422  64.387  1.00  0.00     0.000 HD 
HETATM   29  H1  UNL     1     -12.271  16.429  63.060  1.00  0.00     0.000 HD 
HETATM   30  C   UNL     1     -11.747  13.774  67.657  1.00  0.00    -0.367 A  
HETATM   31  N   UNL     1     -11.896  14.776  66.817  1.00  0.00    -0.314 NA 
HETATM   32  C   UNL     1     -12.062  14.177  65.579  1.00  0.00    -0.414 A  
HETATM   33  C   UNL     1     -12.201  14.695  64.284  1.00  0.00    -0.408 A  
HETATM   34  N   UNL     1     -12.169  16.052  64.003  1.00  0.00    -0.758 NA 
HETATM   35  N   UNL     1     -12.372  13.827  63.257  1.00  0.00    -0.727 NA 
HETATM   36  C   UNL     1     -12.356  12.502  63.523  1.00  0.00    -0.525 A  
ENDBRANCH  24  25
ENDBRANCH  23  24
ENDBRANCH  22  23
ENDBRANCH  11  22
ENDBRANCH   8   9
ENDBRANCH   7   8
ENDBRANCH   5   7
ENDBRANCH   2   5
TORSDOF 12
ENDMDL
MODEL       92
REMARK 921   NORMALIZED FREE ENERGY PREDICTED BY IDOCK:   -5.29 KCAL/MOL
REMARK 922        TOTAL FREE ENERGY PREDICTED BY IDOCK:  -10.59 KCAL/MOL
REMARK 923 INTER-LIGAND FREE ENERGY PREDICTED BY IDOCK:   -9.36 KCAL/MOL
REMARK 924 INTRA-LIGAND FREE ENERGY PREDICTED BY IDOCK:   -1.23 KCAL/MOL
REMARK 927      BINDING AFFINITY PREDICTED BY RF-SCORE:    0.00 PKD
ROOT
HETATM    1  C   UNL     1      -6.539   9.329  67.101  1.00  0.00    -0.068 C  
HETATM    2  C   UNL     1      -7.126   8.629  65.860  1.00  0.00    -0.076 C  
HETATM    3  C   UNL     1      -7.495   9.699  64.826  1.00  0.00    -0.122 C  
HETATM    4  C   UNL     1      -6.055   7.693  65.281  1.00  0.00    -0.038 C  
ENDROOT
BRANCH   2   5
HETATM    5  C   UNL     1      -8.348   7.802  66.291  1.00  0.00    -0.131 C  
HETATM    6  O   UNL     1      -8.678   6.753  65.746  1.00  0.00    -0.153 OA 
BRANCH   5   7
HETATM    7  O   UNL     1      -9.081   8.404  67.270  1.00  0.00    -0.134 OA 
BRANCH   7   8
HETATM    8  C   UNL     1     -10.277   9.054  66.802  1.00  0.00    -0.271 C  
BRANCH   8   9
HETATM    9  O   UNL     1     -11.149   9.474  67.847  1.00  0.00    -0.179 OA 
HETATM   10  P   UNL     1     -10.705  10.842  68.609  1.00  0.00    -0.242 P  
HETATM   11  C   UNL     1     -10.772  12.126  67.337  1.00  0.00    -0.234 C  
HETATM   12  O   UNL     1      -9.409  10.730  69.345  1.00  0.00    -0.131 OA 
HETATM   13  O   UNL     1     -11.977  11.296  69.485  1.00  0.00    -0.312 OA 
BRANCH  13  14
HETATM   14  C   UNL     1     -12.337  10.690  70.693  1.00  0.00    -0.369 C  
BRANCH  14  15
HETATM   15  O   UNL     1     -12.079   9.268  70.612  1.00  0.00    -0.224 OA 
BRANCH  15  16
HETATM   16  C   UNL     1     -12.136   8.586  71.791  1.00  0.00    -0.333 C  
HETATM   17  O   UNL     1     -12.934   8.835  72.687  1.00  0.00    -0.389 OA 
BRANCH  16  18
HETATM   18  C   UNL     1     -11.074   7.469  71.875  1.00  0.00    -0.277 C  
HETATM   19  C   UNL     1     -11.774   6.099  71.988  1.00  0.00    -0.354 C  
HETATM   20  C   UNL     1     -10.195   7.663  73.116  1.00  0.00    -0.401 C  
HETATM   21  C   UNL     1     -10.198   7.451  70.614  1.00  0.00    -0.202 C  
ENDBRANCH  16  18
ENDBRANCH  15  16
ENDBRANCH  14  15
ENDBRANCH  13  14
BRANCH  11  22
HETATM   22  O   UNL     1     -12.118  12.081  66.857  1.00  0.00    -0.608 OA 
BRANCH  22  23
HETATM   23  C   UNL     1     -12.270  12.660  65.578  1.00  0.00    -0.440 C  
BRANCH  23  24
HETATM   24  C   UNL     1     -10.905  13.135  65.100  1.00  0.00    -0.304 C  
BRANCH  24  25
HETATM   25  N   UNL     1     -10.936  14.549  64.833  1.00  0.00    -0.395 NA 
HETATM   26  C   UNL     1     -10.238  15.489  65.530  1.00  0.00    -0.386 A  
HETATM   27  N   UNL     1      -9.278  15.286  66.447  1.00  0.00    -0.287 NA 
HETATM   28  H2  UNL     1     -11.815  19.079  65.695  1.00  0.00     0.000 HD 
HETATM   29  H1  UNL     1     -10.458  19.948  66.019  1.00  0.00     0.000 HD 
HETATM   30  C   UNL     1     -11.818  15.197  64.012  1.00  0.00     0.007 A  
HETATM   31  N   UNL     1     -11.758  16.502  64.170  1.00  0.00    -1.013 NA 
HETATM   32  C   UNL     1     -10.789  16.695  65.140  1.00  0.00    -0.186 A  
HETATM   33  C   UNL     1     -10.310  17.842  65.789  1.00  0.00    -0.180 A  
HETATM   34  N   UNL     1     -10.807  19.114  65.547  1.00  0.00    -0.462 NA 
HETATM   35  N   UNL     1      -9.315  17.700  66.698  1.00  0.00    -0.270 NA 
HETATM   36  C   UNL     1      -8.863  16.456  66.970  1.00  0.00    -0.199 A  
ENDBRANCH  24  25
ENDBRANCH  23  24
ENDBRANCH  22  23
ENDBRANCH  11  22
ENDBRANCH   8   9
ENDBRANCH   7   8
ENDBRANCH   5   7
ENDBRANCH   2   5
TORSDOF 12
ENDMDL
MODEL       93
REMARK 921   NORMALIZED FREE ENERGY PREDICTED BY IDOCK:   -5.29 KCAL/MOL
REMARK 922        TOTAL FREE ENERGY PREDICTED BY IDOCK:  -10.59 KCAL/MOL
REMARK 923 INTER-LIGAND FREE ENERGY PREDICTED BY IDOCK:   -8.93 KCAL/MOL
REMARK 924 INTRA-LIGAND FREE ENERGY PREDICTED BY IDOCK:   -1.67 KCAL/MOL
REMARK 927      BINDING AFFINITY PREDICTED BY RF-SCORE:    0.00 PKD
ROOT
HETATM    1  C   UNL     1     -12.323   7.320  70.742  1.00  0.00    -0.223 C  
HETATM    2  C   UNL     1     -11.860   8.515  71.598  1.00  0.00    -0.370 C  
HETATM    3  C   UNL     1     -13.086   9.366  71.949  1.00  0.00    -0.505 C  
HETATM    4  C   UNL     1     -11.220   7.969  72.883  1.00  0.00    -0.389 C  
ENDROOT
BRANCH   2   5
HETATM    5  C   UNL     1     -10.814   9.314  70.805  1.00  0.00    -0.284 C  
HETATM    6  O   UNL     1      -9.605   9.211  70.992  1.00  0.00    -0.251 OA 
BRANCH   5   7
HETATM    7  O   UNL     1     -11.369  10.218  69.950  1.00  0.00    -0.254 OA 
BRANCH   7   8
HETATM    8  C   UNL     1     -10.441  10.797  69.013  1.00  0.00    -0.215 C  
BRANCH   8   9
HETATM    9  O   UNL     1     -11.018  11.792  68.172  1.00  0.00    -0.203 OA 
HETATM   10  P   UNL     1      -9.952  12.769  67.426  1.00  0.00    -0.219 P  
HETATM   11  C   UNL     1      -8.995  11.677  66.347  1.00  0.00    -0.198 C  
HETATM   12  O   UNL     1      -9.151  13.616  68.363  1.00  0.00    -0.193 OA 
HETATM   13  O   UNL     1     -10.787  13.560  66.300  1.00  0.00    -0.287 OA 
BRANCH  13  14
HETATM   14  C   UNL     1     -11.639  14.633  66.582  1.00  0.00    -0.350 C  
BRANCH  14  15
HETATM   15  O   UNL     1     -10.862  15.738  67.103  1.00  0.00    -0.321 OA 
BRANCH  15  16
HETATM   16  C   UNL     1     -10.477  16.674  66.190  1.00  0.00    -0.285 C  
HETATM   17  O   UNL     1     -10.694  16.588  64.987  1.00  0.00    -0.662 OA 
BRANCH  16  18
HETATM   18  C   UNL     1      -9.723  17.854  66.842  1.00  0.00    -0.309 C  
HETATM   19  C   UNL     1     -10.284  19.185  66.302  1.00  0.00    -0.527 C  
HETATM   20  C   UNL     1      -8.230  17.786  66.499  1.00  0.00    -0.300 C  
HETATM   21  C   UNL     1      -9.908  17.845  68.366  1.00  0.00    -0.355 C  
ENDBRANCH  16  18
ENDBRANCH  15  16
ENDBRANCH  14  15
ENDBRANCH  13  14
BRANCH  11  22
HETATM   22  O   UNL     1      -9.975  11.058  65.510  1.00  0.00    -0.230 OA 
BRANCH  22  23
HETATM   23  C   UNL     1      -9.657   9.721  65.183  1.00  0.00    -0.287 C  
BRANCH  23  24
HETATM   24  C   UNL     1      -8.659   9.199  66.207  1.00  0.00    -0.126 C  
BRANCH  24  25
HETATM   25  N   UNL     1      -9.299   8.259  67.090  1.00  0.00    -0.145 NA 
HETATM   26  C   UNL     1      -8.694   7.647  68.146  1.00  0.00    -0.122 A  
HETATM   27  N   UNL     1      -7.489   7.920  68.673  1.00  0.00    -0.097 NA 
HETATM   28  H2  UNL     1     -10.061   4.105  69.139  1.00  0.00     0.000 HD 
HETATM   29  H1  UNL     1      -9.551   4.054  70.701  1.00  0.00     0.000 HD 
HETATM   30  C   UNL     1     -10.513   7.660  66.890  1.00  0.00    -0.318 A  
HETATM   31  N   UNL     1     -10.709   6.669  67.733  1.00  0.00    -0.252 NA 
HETATM   32  C   UNL     1      -9.562   6.634  68.508  1.00  0.00    -0.125 A  
HETATM   33  C   UNL     1      -9.131   5.774  69.529  1.00  0.00    -0.130 A  
HETATM   34  N   UNL     1      -9.865   4.679  69.959  1.00  0.00    -0.211 NA 
HETATM   35  N   UNL     1      -7.938   6.024  70.121  1.00  0.00    -0.104 NA 
HETATM   36  C   UNL     1      -7.199   7.062  69.670  1.00  0.00    -0.080 A  
ENDBRANCH  24  25
ENDBRANCH  23  24
ENDBRANCH  22  23
ENDBRANCH  11  22
ENDBRANCH   8   9
ENDBRANCH   7   8
ENDBRANCH   5   7
ENDBRANCH   2   5
TORSDOF 12
ENDMDL
MODEL       94
REMARK 921   NORMALIZED FREE ENERGY PREDICTED BY IDOCK:   -5.28 KCAL/MOL
REMARK 922        TOTAL FREE ENERGY PREDICTED BY IDOCK:  -10.58 KCAL/MOL
REMARK 923 INTER-LIGAND FREE ENERGY PREDICTED BY IDOCK:   -9.06 KCAL/MOL
REMARK 924 INTRA-LIGAND FREE ENERGY PREDICTED BY IDOCK:   -1.52 KCAL/MOL
REMARK 927      BINDING AFFINITY PREDICTED BY RF-SCORE:    0.00 PKD
ROOT
HETATM    1  C   UNL     1     -10.425  12.987  64.153  1.00  0.00    -0.395 C  
HETATM    2  C   UNL     1     -11.898  13.205  64.552  1.00  0.00    -0.427 C  
HETATM    3  C   UNL     1     -12.309  14.624  64.139  1.00  0.00    -0.294 C  
HETATM    4  C   UNL     1     -12.758  12.175  63.804  1.00  0.00    -0.525 C  
ENDROOT
BRANCH   2   5
HETATM    5  C   UNL     1     -12.037  12.985  66.066  1.00  0.00    -0.432 C  
HETATM    6  O   UNL     1     -12.017  13.900  66.885  1.00  0.00    -0.396 OA 
BRANCH   5   7
HETATM    7  O   UNL     1     -12.085  11.667  66.412  1.00  0.00    -0.371 OA 
BRANCH   7   8
HETATM    8  C   UNL     1     -10.861  11.155  66.970  1.00  0.00    -0.284 C  
BRANCH   8   9
HETATM    9  O   UNL     1     -10.923  10.924  68.375  1.00  0.00    -0.200 OA 
HETATM   10  P   UNL     1     -10.066   9.645  68.903  1.00  0.00    -0.207 P  
HETATM   11  C   UNL     1      -8.344  10.050  68.525  1.00  0.00    -0.113 C  
HETATM   12  O   UNL     1     -10.552   8.333  68.375  1.00  0.00    -0.186 OA 
HETATM   13  O   UNL     1     -10.006   9.781  70.506  1.00  0.00    -0.265 OA 
BRANCH  13  14
HETATM   14  C   UNL     1     -11.078   9.465  71.347  1.00  0.00    -0.380 C  
BRANCH  14  15
HETATM   15  O   UNL     1     -10.754   8.280  72.112  1.00  0.00    -0.269 OA 
BRANCH  15  16
HETATM   16  C   UNL     1     -11.298   7.115  71.659  1.00  0.00    -0.251 C  
HETATM   17  O   UNL     1     -12.334   7.051  71.006  1.00  0.00    -0.370 OA 
BRANCH  16  18
HETATM   18  C   UNL     1     -10.468   5.880  72.071  1.00  0.00    -0.259 C  
HETATM   19  C   UNL     1      -9.178   6.338  72.780  1.00  0.00    -0.137 C  
HETATM   20  C   UNL     1     -10.073   5.067  70.832  1.00  0.00    -0.302 C  
HETATM   21  C   UNL     1     -11.256   4.992  73.045  1.00  0.00    -0.383 C  
ENDBRANCH  16  18
ENDBRANCH  15  16
ENDBRANCH  14  15
ENDBRANCH  13  14
BRANCH  11  22
HETATM   22  O   UNL     1      -8.114  11.287  69.204  1.00  0.00    -0.093 OA 
BRANCH  22  23
HETATM   23  C   UNL     1      -7.110  12.073  68.596  1.00  0.00    -0.103 C  
BRANCH  23  24
HETATM   24  C   UNL     1      -7.775  13.032  67.619  1.00  0.00    -0.161 C  
BRANCH  24  25
HETATM   25  N   UNL     1      -7.971  14.316  68.238  1.00  0.00    -0.131 NA 
HETATM   26  C   UNL     1      -8.586  15.379  67.648  1.00  0.00    -0.167 A  
HETATM   27  N   UNL     1      -9.271  15.395  66.493  1.00  0.00    -0.268 NA 
HETATM   28  H2  UNL     1      -7.437  18.943  68.824  1.00  0.00     0.000 HD 
HETATM   29  H1  UNL     1      -8.769  19.805  68.392  1.00  0.00     0.000 HD 
HETATM   30  C   UNL     1      -7.389  14.751  69.398  1.00  0.00    -0.162 A  
HETATM   31  N   UNL     1      -7.559  16.045  69.569  1.00  0.00    -0.178 NA 
HETATM   32  C   UNL     1      -8.285  16.454  68.463  1.00  0.00    -0.201 A  
HETATM   33  C   UNL     1      -8.725  17.713  68.028  1.00  0.00    -0.253 A  
HETATM   34  N   UNL     1      -8.449  18.889  68.708  1.00  0.00    -0.335 NA 
HETATM   35  N   UNL     1      -9.452  17.783  66.887  1.00  0.00    -0.262 NA 
HETATM   36  C   UNL     1      -9.680  16.643  66.197  1.00  0.00    -0.303 A  
ENDBRANCH  24  25
ENDBRANCH  23  24
ENDBRANCH  22  23
ENDBRANCH  11  22
ENDBRANCH   8   9
ENDBRANCH   7   8
ENDBRANCH   5   7
ENDBRANCH   2   5
TORSDOF 12
ENDMDL
MODEL       95
REMARK 921   NORMALIZED FREE ENERGY PREDICTED BY IDOCK:   -5.27 KCAL/MOL
REMARK 922        TOTAL FREE ENERGY PREDICTED BY IDOCK:  -10.57 KCAL/MOL
REMARK 923 INTER-LIGAND FREE ENERGY PREDICTED BY IDOCK:   -9.16 KCAL/MOL
REMARK 924 INTRA-LIGAND FREE ENERGY PREDICTED BY IDOCK:   -1.41 KCAL/MOL
REMARK 927      BINDING AFFINITY PREDICTED BY RF-SCORE:    0.00 PKD
ROOT
HETATM    1  C   UNL     1      -7.449   7.738  67.077  1.00  0.00    -0.095 C  
HETATM    2  C   UNL     1      -8.460   8.594  66.290  1.00  0.00    -0.131 C  
HETATM    3  C   UNL     1      -8.127   8.491  64.797  1.00  0.00    -0.151 C  
HETATM    4  C   UNL     1      -9.869   8.038  66.549  1.00  0.00    -0.289 C  
ENDROOT
BRANCH   2   5
HETATM    5  C   UNL     1      -8.381  10.043  66.797  1.00  0.00    -0.125 C  
HETATM    6  O   UNL     1      -8.167  10.335  67.970  1.00  0.00    -0.111 OA 
BRANCH   5   7
HETATM    7  O   UNL     1      -8.673  10.961  65.834  1.00  0.00    -0.176 OA 
BRANCH   7   8
HETATM    8  C   UNL     1      -9.777  11.828  66.155  1.00  0.00    -0.229 C  
BRANCH   8   9
HETATM    9  O   UNL     1      -9.397  13.183  66.378  1.00  0.00    -0.246 OA 
HETATM   10  P   UNL     1     -10.537  14.288  66.020  1.00  0.00    -0.324 P  
HETATM   11  C   UNL     1     -11.896  13.941  67.162  1.00  0.00    -0.412 C  
HETATM   12  O   UNL     1     -10.904  14.329  64.572  1.00  0.00    -0.381 OA 
HETATM   13  O   UNL     1     -10.027  15.676  66.658  1.00  0.00    -0.243 OA 
BRANCH  13  14
HETATM   14  C   UNL     1      -9.022  16.464  66.087  1.00  0.00    -0.332 C  
BRANCH  14  15
HETATM   15  O   UNL     1      -8.962  17.736  66.775  1.00  0.00    -0.245 OA 
BRANCH  15  16
HETATM   16  C   UNL     1      -7.886  18.519  66.480  1.00  0.00    -0.258 C  
HETATM   17  O   UNL     1      -7.329  18.535  65.388  1.00  0.00    -0.516 OA 
BRANCH  16  18
HETATM   18  C   UNL     1      -7.438  19.378  67.683  1.00  0.00    -0.285 C  
HETATM   19  C   UNL     1      -8.525  19.341  68.777  1.00  0.00    -0.382 C  
HETATM   20  C   UNL     1      -7.239  20.836  67.251  1.00  0.00    -0.415 C  
HETATM   21  C   UNL     1      -6.136  18.833  68.288  1.00  0.00    -0.217 C  
ENDBRANCH  16  18
ENDBRANCH  15  16
ENDBRANCH  14  15
ENDBRANCH  13  14
BRANCH  11  22
HETATM   22  O   UNL     1     -11.305  14.044  68.460  1.00  0.00    -0.247 OA 
BRANCH  22  23
HETATM   23  C   UNL     1     -11.943  13.233  69.424  1.00  0.00    -0.301 C  
BRANCH  23  24
HETATM   24  C   UNL     1     -11.149  11.942  69.569  1.00  0.00    -0.102 C  
BRANCH  24  25
HETATM   25  N   UNL     1     -11.808  11.055  70.492  1.00  0.00    -0.353 NA 
HETATM   26  C   UNL     1     -11.636   9.704  70.530  1.00  0.00    -0.272 A  
HETATM   27  N   UNL     1     -10.720   8.974  69.873  1.00  0.00    -0.227 NA 
HETATM   28  H2  UNL     1     -14.672   7.586  71.834  1.00  0.00     0.000 HD 
HETATM   29  H1  UNL     1     -13.866   6.229  72.296  1.00  0.00     0.000 HD 
HETATM   30  C   UNL     1     -12.859  11.373  71.308  1.00  0.00    -0.379 A  
HETATM   31  N   UNL     1     -13.402  10.298  71.839  1.00  0.00    -0.410 NA 
HETATM   32  C   UNL     1     -12.659   9.243  71.337  1.00  0.00    -0.336 A  
HETATM   33  C   UNL     1     -12.774   7.852  71.471  1.00  0.00    -0.322 A  
HETATM   34  N   UNL     1     -13.784   7.241  72.198  1.00  0.00    -0.059 NA 
HETATM   35  N   UNL     1     -11.855   7.067  70.858  1.00  0.00    -0.342 NA 
HETATM   36  C   UNL     1     -10.898   7.660  70.109  1.00  0.00    -0.248 A  
ENDBRANCH  24  25
ENDBRANCH  23  24
ENDBRANCH  22  23
ENDBRANCH  11  22
ENDBRANCH   8   9
ENDBRANCH   7   8
ENDBRANCH   5   7
ENDBRANCH   2   5
TORSDOF 12
ENDMDL
MODEL       96
REMARK 921   NORMALIZED FREE ENERGY PREDICTED BY IDOCK:   -5.27 KCAL/MOL
REMARK 922        TOTAL FREE ENERGY PREDICTED BY IDOCK:  -10.56 KCAL/MOL
REMARK 923 INTER-LIGAND FREE ENERGY PREDICTED BY IDOCK:   -9.52 KCAL/MOL
REMARK 924 INTRA-LIGAND FREE ENERGY PREDICTED BY IDOCK:   -1.04 KCAL/MOL
REMARK 927      BINDING AFFINITY PREDICTED BY RF-SCORE:    0.00 PKD
ROOT
HETATM    1  C   UNL     1     -12.104  15.590  72.655  1.00  0.00    -0.541 C  
HETATM    2  C   UNL     1     -13.000  14.719  71.753  1.00  0.00    -0.410 C  
HETATM    3  C   UNL     1     -13.520  13.537  72.580  1.00  0.00    -0.660 C  
HETATM    4  C   UNL     1     -14.180  15.577  71.272  1.00  0.00    -0.301 C  
ENDROOT
BRANCH   2   5
HETATM    5  C   UNL     1     -12.178  14.254  70.541  1.00  0.00    -0.356 C  
HETATM    6  O   UNL     1     -11.745  15.022  69.687  1.00  0.00    -0.284 OA 
BRANCH   5   7
HETATM    7  O   UNL     1     -12.067  12.898  70.460  1.00  0.00    -0.356 OA 
BRANCH   7   8
HETATM    8  C   UNL     1     -11.605  12.415  69.184  1.00  0.00    -0.314 C  
BRANCH   8   9
HETATM    9  O   UNL     1     -10.519  11.497  69.277  1.00  0.00    -0.153 OA 
HETATM   10  P   UNL     1     -10.310  10.542  67.976  1.00  0.00    -0.212 P  
HETATM   11  C   UNL     1      -9.910  11.676  66.625  1.00  0.00    -0.200 C  
HETATM   12  O   UNL     1     -11.451   9.610  67.722  1.00  0.00     0.085 OA 
HETATM   13  O   UNL     1      -8.866   9.854  68.158  1.00  0.00    -0.118 OA 
BRANCH  13  14
HETATM   14  C   UNL     1      -8.622   8.790  69.032  1.00  0.00    -0.132 C  
BRANCH  14  15
HETATM   15  O   UNL     1      -8.249   7.618  68.269  1.00  0.00    -0.122 OA 
BRANCH  15  16
HETATM   16  C   UNL     1      -8.422   6.421  68.897  1.00  0.00    -0.121 C  
HETATM   17  O   UNL     1      -7.672   5.988  69.764  1.00  0.00    -0.092 OA 
BRANCH  16  18
HETATM   18  C   UNL     1      -9.667   5.665  68.386  1.00  0.00    -0.161 C  
HETATM   19  C   UNL     1     -10.826   5.840  69.389  1.00  0.00    -0.393 C  
HETATM   20  C   UNL     1      -9.365   4.166  68.258  1.00  0.00    -0.214 C  
HETATM   21  C   UNL     1     -10.126   6.221  67.030  1.00  0.00    -0.225 C  
ENDBRANCH  16  18
ENDBRANCH  15  16
ENDBRANCH  14  15
ENDBRANCH  13  14
BRANCH  11  22
HETATM   22  O   UNL     1      -8.752  12.379  67.083  1.00  0.00    -0.182 OA 
BRANCH  22  23
HETATM   23  C   UNL     1      -8.826  13.771  66.858  1.00  0.00    -0.188 C  
BRANCH  23  24
HETATM   24  C   UNL     1     -10.293  14.165  66.751  1.00  0.00    -0.274 C  
BRANCH  24  25
HETATM   25  N   UNL     1     -10.421  15.425  66.066  1.00  0.00    -0.305 NA 
HETATM   26  C   UNL     1     -10.100  16.636  66.599  1.00  0.00    -0.301 A  
HETATM   27  N   UNL     1      -9.451  16.882  67.749  1.00  0.00    -0.234 NA 
HETATM   28  H2  UNL     1     -12.098  19.732  65.248  1.00  0.00     0.000 HD 
HETATM   29  H1  UNL     1     -11.030  20.922  65.630  1.00  0.00     0.000 HD 
HETATM   30  C   UNL     1     -11.084  15.640  64.888  1.00  0.00    -0.402 A  
HETATM   31  N   UNL     1     -11.243  16.925  64.651  1.00  0.00    -0.956 NA 
HETATM   32  C   UNL     1     -10.654  17.559  65.731  1.00  0.00    -0.174 A  
HETATM   33  C   UNL     1     -10.549  18.908  66.100  1.00  0.00    -0.407 A  
HETATM   34  N   UNL     1     -11.106  19.941  65.362  1.00  0.00    -0.216 NA 
HETATM   35  N   UNL     1      -9.873  19.216  67.234  1.00  0.00    -0.322 NA 
HETATM   36  C   UNL     1      -9.371  18.206  67.979  1.00  0.00    -0.283 A  
ENDBRANCH  24  25
ENDBRANCH  23  24
ENDBRANCH  22  23
ENDBRANCH  11  22
ENDBRANCH   8   9
ENDBRANCH   7   8
ENDBRANCH   5   7
ENDBRANCH   2   5
TORSDOF 12
ENDMDL
MODEL       97
REMARK 921   NORMALIZED FREE ENERGY PREDICTED BY IDOCK:   -5.26 KCAL/MOL
REMARK 922        TOTAL FREE ENERGY PREDICTED BY IDOCK:  -10.54 KCAL/MOL
REMARK 923 INTER-LIGAND FREE ENERGY PREDICTED BY IDOCK:   -8.78 KCAL/MOL
REMARK 924 INTRA-LIGAND FREE ENERGY PREDICTED BY IDOCK:   -1.76 KCAL/MOL
REMARK 927      BINDING AFFINITY PREDICTED BY RF-SCORE:    0.00 PKD
ROOT
HETATM    1  C   UNL     1     -10.216   5.085  66.989  1.00  0.00    -0.253 C  
HETATM    2  C   UNL     1      -9.403   4.504  68.161  1.00  0.00    -0.186 C  
HETATM    3  C   UNL     1      -9.365   2.978  68.018  1.00  0.00    -0.255 C  
HETATM    4  C   UNL     1      -7.976   5.070  68.086  1.00  0.00    -0.087 C  
ENDROOT
BRANCH   2   5
HETATM    5  C   UNL     1     -10.057   4.940  69.481  1.00  0.00    -0.216 C  
HETATM    6  O   UNL     1      -9.764   4.456  70.571  1.00  0.00    -0.185 OA 
BRANCH   5   7
HETATM    7  O   UNL     1     -11.062   5.843  69.305  1.00  0.00    -0.360 OA 
BRANCH   7   8
HETATM    8  C   UNL     1     -11.576   6.406  70.528  1.00  0.00    -0.358 C  
BRANCH   8   9
HETATM    9  O   UNL     1     -11.909   7.787  70.428  1.00  0.00    -0.128 OA 
HETATM   10  P   UNL     1     -11.512   8.688  71.725  1.00  0.00    -0.376 P  
HETATM   11  C   UNL     1      -9.708   8.600  71.819  1.00  0.00    -0.291 C  
HETATM   12  O   UNL     1     -12.244   8.306  72.972  1.00  0.00    -0.228 OA 
HETATM   13  O   UNL     1     -11.661  10.223  71.263  1.00  0.00    -0.344 OA 
BRANCH  13  14
HETATM   14  C   UNL     1     -12.892  10.874  71.133  1.00  0.00    -0.409 C  
BRANCH  14  15
HETATM   15  O   UNL     1     -12.825  12.161  71.791  1.00  0.00    -0.339 OA 
BRANCH  15  16
HETATM   16  C   UNL     1     -12.442  13.209  71.008  1.00  0.00    -0.318 C  
HETATM   17  O   UNL     1     -11.854  13.085  69.939  1.00  0.00    -0.322 OA 
BRANCH  16  18
HETATM   18  C   UNL     1     -12.822  14.573  71.623  1.00  0.00    -0.409 C  
HETATM   19  C   UNL     1     -11.585  15.494  71.642  1.00  0.00    -0.502 C  
HETATM   20  C   UNL     1     -13.307  14.389  73.067  1.00  0.00    -0.484 C  
HETATM   21  C   UNL     1     -13.914  15.262  70.791  1.00  0.00    -0.090 C  
ENDBRANCH  16  18
ENDBRANCH  15  16
ENDBRANCH  14  15
ENDBRANCH  13  14
BRANCH  11  22
HETATM   22  O   UNL     1      -9.262   9.089  70.552  1.00  0.00    -0.182 OA 
BRANCH  22  23
HETATM   23  C   UNL     1      -8.421   8.180  69.873  1.00  0.00    -0.125 C  
BRANCH  23  24
HETATM   24  C   UNL     1      -7.687   8.933  68.772  1.00  0.00    -0.096 C  
BRANCH  24  25
HETATM   25  N   UNL     1      -8.627   9.452  67.813  1.00  0.00    -0.116 NA 
HETATM   26  C   UNL     1      -8.950  10.767  67.673  1.00  0.00    -0.140 A  
HETATM   27  N   UNL     1      -8.352  11.826  68.244  1.00  0.00    -0.154 NA 
HETATM   28  H2  UNL     1     -12.553  11.555  66.330  1.00  0.00     0.000 HD 
HETATM   29  H1  UNL     1     -12.291  13.068  65.745  1.00  0.00     0.000 HD 
HETATM   30  C   UNL     1      -9.501   8.716  67.059  1.00  0.00    -0.171 A  
HETATM   31  N   UNL     1     -10.396   9.481  66.473  1.00  0.00    -0.224 NA 
HETATM   32  C   UNL     1     -10.077  10.768  66.872  1.00  0.00    -0.212 A  
HETATM   33  C   UNL     1     -10.683  12.012  66.644  1.00  0.00    -0.245 A  
HETATM   34  N   UNL     1     -11.850  12.164  65.912  1.00  0.00    -0.546 NA 
HETATM   35  N   UNL     1     -10.101  13.118  67.167  1.00  0.00    -0.239 NA 
HETATM   36  C   UNL     1      -8.990  12.967  67.922  1.00  0.00    -0.193 A  
ENDBRANCH  24  25
ENDBRANCH  23  24
ENDBRANCH  22  23
ENDBRANCH  11  22
ENDBRANCH   8   9
ENDBRANCH   7   8
ENDBRANCH   5   7
ENDBRANCH   2   5
TORSDOF 12
ENDMDL
MODEL       98
REMARK 921   NORMALIZED FREE ENERGY PREDICTED BY IDOCK:   -5.24 KCAL/MOL
REMARK 922        TOTAL FREE ENERGY PREDICTED BY IDOCK:  -10.52 KCAL/MOL
REMARK 923 INTER-LIGAND FREE ENERGY PREDICTED BY IDOCK:   -9.15 KCAL/MOL
REMARK 924 INTRA-LIGAND FREE ENERGY PREDICTED BY IDOCK:   -1.37 KCAL/MOL
REMARK 927      BINDING AFFINITY PREDICTED BY RF-SCORE:    0.00 PKD
ROOT
HETATM    1  C   UNL     1     -10.636  19.044  67.068  1.00  0.00    -0.543 C  
HETATM    2  C   UNL     1      -9.882  17.789  67.549  1.00  0.00    -0.304 C  
HETATM    3  C   UNL     1      -8.691  18.234  68.405  1.00  0.00    -0.325 C  
HETATM    4  C   UNL     1     -10.845  16.942  68.396  1.00  0.00    -0.347 C  
ENDROOT
BRANCH   2   5
HETATM    5  C   UNL     1      -9.436  16.979  66.321  1.00  0.00    -0.256 C  
HETATM    6  O   UNL     1      -8.402  17.210  65.701  1.00  0.00    -0.450 OA 
BRANCH   5   7
HETATM    7  O   UNL     1     -10.354  16.049  65.933  1.00  0.00    -0.328 OA 
BRANCH   7   8
HETATM    8  C   UNL     1      -9.793  14.764  65.602  1.00  0.00    -0.327 C  
BRANCH   8   9
HETATM    9  O   UNL     1     -10.177  13.723  66.496  1.00  0.00    -0.272 OA 
HETATM   10  P   UNL     1     -11.607  13.020  66.163  1.00  0.00    -0.406 P  
HETATM   11  C   UNL     1     -11.380  12.249  64.542  1.00  0.00    -0.329 C  
HETATM   12  O   UNL     1     -12.776  13.944  66.281  1.00  0.00    -0.399 OA 
HETATM   13  O   UNL     1     -11.668  11.688  67.064  1.00  0.00    -0.564 OA 
BRANCH  13  14
HETATM   14  C   UNL     1     -11.942  11.696  68.435  1.00  0.00    -0.196 C  
BRANCH  14  15
HETATM   15  O   UNL     1     -11.516  10.441  69.017  1.00  0.00    -0.244 OA 
BRANCH  15  16
HETATM   16  C   UNL     1     -11.728  10.306  70.357  1.00  0.00    -0.319 C  
HETATM   17  O   UNL     1     -12.336  11.122  71.040  1.00  0.00    -0.371 OA 
BRANCH  16  18
HETATM   18  C   UNL     1     -11.105   9.011  70.923  1.00  0.00    -0.343 C  
HETATM   19  C   UNL     1     -11.765   8.668  72.274  1.00  0.00    -0.428 C  
HETATM   20  C   UNL     1      -9.601   9.202  71.157  1.00  0.00    -0.347 C  
HETATM   21  C   UNL     1     -11.337   7.831  69.968  1.00  0.00    -0.059 C  
ENDBRANCH  16  18
ENDBRANCH  15  16
ENDBRANCH  14  15
ENDBRANCH  13  14
BRANCH  11  22
HETATM   22  O   UNL     1     -10.270  11.366  64.722  1.00  0.00    -0.251 OA 
BRANCH  22  23
HETATM   23  C   UNL     1      -9.818  10.793  63.513  1.00  0.00    -0.347 C  
BRANCH  23  24
HETATM   24  C   UNL     1      -8.377  10.340  63.703  1.00  0.00    -0.169 C  
BRANCH  24  25
HETATM   25  N   UNL     1      -8.333   8.932  63.999  1.00  0.00    -0.175 NA 
HETATM   26  C   UNL     1      -8.326   8.400  65.253  1.00  0.00    -0.160 A  
HETATM   27  N   UNL     1      -8.537   9.036  66.417  1.00  0.00    -0.122 NA 
HETATM   28  H2  UNL     1      -6.530   4.936  65.678  1.00  0.00     0.000 HD 
HETATM   29  H1  UNL     1      -7.275   4.420  67.049  1.00  0.00     0.000 HD 
HETATM   30  C   UNL     1      -8.066   7.927  63.109  1.00  0.00    -0.098 A  
HETATM   31  N   UNL     1      -7.845   6.784  63.722  1.00  0.00    -0.120 NA 
HETATM   32  C   UNL     1      -7.979   7.074  65.069  1.00  0.00    -0.129 A  
HETATM   33  C   UNL     1      -7.805   6.306  66.229  1.00  0.00    -0.104 A  
HETATM   34  N   UNL     1      -7.401   4.979  66.206  1.00  0.00    -0.080 NA 
HETATM   35  N   UNL     1      -8.040   6.888  67.430  1.00  0.00    -0.114 NA 
HETATM   36  C   UNL     1      -8.387   8.194  67.456  1.00  0.00    -0.123 A  
ENDBRANCH  24  25
ENDBRANCH  23  24
ENDBRANCH  22  23
ENDBRANCH  11  22
ENDBRANCH   8   9
ENDBRANCH   7   8
ENDBRANCH   5   7
ENDBRANCH   2   5
TORSDOF 12
ENDMDL
MODEL       99
REMARK 921   NORMALIZED FREE ENERGY PREDICTED BY IDOCK:   -5.24 KCAL/MOL
REMARK 922        TOTAL FREE ENERGY PREDICTED BY IDOCK:  -10.51 KCAL/MOL
REMARK 923 INTER-LIGAND FREE ENERGY PREDICTED BY IDOCK:   -9.51 KCAL/MOL
REMARK 924 INTRA-LIGAND FREE ENERGY PREDICTED BY IDOCK:   -1.00 KCAL/MOL
REMARK 927      BINDING AFFINITY PREDICTED BY RF-SCORE:    0.00 PKD
ROOT
HETATM    1  C   UNL     1      -9.791   4.325  67.308  1.00  0.00    -0.193 C  
HETATM    2  C   UNL     1      -8.253   4.337  67.223  1.00  0.00    -0.100 C  
HETATM    3  C   UNL     1      -7.688   3.723  68.509  1.00  0.00    -0.060 C  
HETATM    4  C   UNL     1      -7.829   3.491  66.012  1.00  0.00    -0.089 C  
ENDROOT
BRANCH   2   5
HETATM    5  C   UNL     1      -7.780   5.786  67.024  1.00  0.00    -0.101 C  
HETATM    6  O   UNL     1      -7.740   6.337  65.928  1.00  0.00    -0.088 OA 
BRANCH   5   7
HETATM    7  O   UNL     1      -7.318   6.359  68.171  1.00  0.00    -0.085 OA 
BRANCH   7   8
HETATM    8  C   UNL     1      -8.316   7.079  68.919  1.00  0.00    -0.125 C  
BRANCH   8   9
HETATM    9  O   UNL     1      -8.490   8.427  68.493  1.00  0.00    -0.129 OA 
HETATM   10  P   UNL     1      -9.998   8.810  68.014  1.00  0.00    -0.200 P  
HETATM   11  C   UNL     1     -11.022   8.601  69.491  1.00  0.00    -0.055 C  
HETATM   12  O   UNL     1     -10.454   8.065  66.801  1.00  0.00    -0.330 OA 
HETATM   13  O   UNL     1     -10.038  10.416  67.912  1.00  0.00    -0.162 OA 
BRANCH  13  14
HETATM   14  C   UNL     1      -9.473  11.135  66.854  1.00  0.00    -0.185 C  
BRANCH  14  15
HETATM   15  O   UNL     1     -10.332  11.035  65.693  1.00  0.00    -0.246 OA 
BRANCH  15  16
HETATM   16  C   UNL     1     -11.361  11.928  65.638  1.00  0.00    -0.284 C  
HETATM   17  O   UNL     1     -12.105  12.174  66.581  1.00  0.00    -0.622 OA 
BRANCH  16  18
HETATM   18  C   UNL     1     -11.492  12.588  64.248  1.00  0.00    -0.423 C  
HETATM   19  C   UNL     1     -12.781  12.093  63.561  1.00  0.00    -0.553 C  
HETATM   20  C   UNL     1     -10.299  12.208  63.363  1.00  0.00    -0.438 C  
HETATM   21  C   UNL     1     -11.579  14.116  64.376  1.00  0.00    -0.377 C  
ENDBRANCH  16  18
ENDBRANCH  15  16
ENDBRANCH  14  15
ENDBRANCH  13  14
BRANCH  11  22
HETATM   22  O   UNL     1     -10.429   9.469  70.460  1.00  0.00    -0.252 OA 
BRANCH  22  23
HETATM   23  C   UNL     1     -11.379  10.239  71.167  1.00  0.00    -0.146 C  
BRANCH  23  24
HETATM   24  C   UNL     1     -11.921  11.312  70.234  1.00  0.00    -0.379 C  
BRANCH  24  25
HETATM   25  N   UNL     1     -12.581  12.343  70.991  1.00  0.00    -0.325 NA 
HETATM   26  C   UNL     1     -12.317  13.675  70.888  1.00  0.00    -0.371 A  
HETATM   27  N   UNL     1     -11.558  14.293  69.968  1.00  0.00    -0.271 NA 
HETATM   28  H2  UNL     1     -12.945  15.843  74.099  1.00  0.00     0.000 HD 
HETATM   29  H1  UNL     1     -13.124  17.316  73.391  1.00  0.00     0.000 HD 
HETATM   30  C   UNL     1     -13.394  12.154  72.076  1.00  0.00    -0.365 A  
HETATM   31  N   UNL     1     -13.636  13.285  72.703  1.00  0.00    -0.662 NA 
HETATM   32  C   UNL     1     -12.944  14.243  71.982  1.00  0.00    -0.355 A  
HETATM   33  C   UNL     1     -12.750  15.618  72.171  1.00  0.00    -0.435 A  
HETATM   34  N   UNL     1     -13.265  16.315  73.254  1.00  0.00    -0.422 NA 
HETATM   35  N   UNL     1     -12.020  16.299  71.254  1.00  0.00    -0.337 NA 
HETATM   36  C   UNL     1     -11.477  15.613  70.224  1.00  0.00    -0.349 A  
ENDBRANCH  24  25
ENDBRANCH  23  24
ENDBRANCH  22  23
ENDBRANCH  11  22
ENDBRANCH   8   9
ENDBRANCH   7   8
ENDBRANCH   5   7
ENDBRANCH   2   5
TORSDOF 12
ENDMDL
MODEL      100
REMARK 921   NORMALIZED FREE ENERGY PREDICTED BY IDOCK:   -5.23 KCAL/MOL
REMARK 922        TOTAL FREE ENERGY PREDICTED BY IDOCK:  -10.50 KCAL/MOL
REMARK 923 INTER-LIGAND FREE ENERGY PREDICTED BY IDOCK:   -8.45 KCAL/MOL
REMARK 924 INTRA-LIGAND FREE ENERGY PREDICTED BY IDOCK:   -2.05 KCAL/MOL
REMARK 927      BINDING AFFINITY PREDICTED BY RF-SCORE:    0.00 PKD
ROOT
HETATM    1  C   UNL     1      -9.768  13.657  66.740  1.00  0.00    -0.275 C  
HETATM    2  C   UNL     1     -11.304  13.600  66.631  1.00  0.00    -0.343 C  
HETATM    3  C   UNL     1     -11.895  13.641  68.045  1.00  0.00    -0.397 C  
HETATM    4  C   UNL     1     -11.778  14.825  65.833  1.00  0.00    -0.248 C  
ENDROOT
BRANCH   2   5
HETATM    5  C   UNL     1     -11.699  12.318  65.881  1.00  0.00    -0.389 C  
HETATM    6  O   UNL     1     -12.548  12.290  64.995  1.00  0.00    -0.575 OA 
BRANCH   5   7
HETATM    7  O   UNL     1     -11.085  11.204  66.369  1.00  0.00    -0.247 OA 
BRANCH   7   8
HETATM    8  C   UNL     1     -10.146  10.597  65.461  1.00  0.00    -0.280 C  
BRANCH   8   9
HETATM    9  O   UNL     1      -9.944   9.205  65.688  1.00  0.00    -0.232 OA 
HETATM   10  P   UNL     1      -8.488   8.636  65.236  1.00  0.00    -0.156 P  
HETATM   11  C   UNL     1      -7.301   9.505  66.289  1.00  0.00    -0.093 C  
HETATM   12  O   UNL     1      -8.234   8.725  63.766  1.00  0.00    -0.163 OA 
HETATM   13  O   UNL     1      -8.364   7.168  65.885  1.00  0.00    -0.128 OA 
BRANCH  13  14
HETATM   14  C   UNL     1      -9.012   6.040  65.372  1.00  0.00     0.030 C  
BRANCH  14  15
HETATM   15  O   UNL     1      -9.429   5.188  66.464  1.00  0.00    -0.133 OA 
BRANCH  15  16
HETATM   16  C   UNL     1     -10.259   5.761  67.381  1.00  0.00    -0.200 C  
HETATM   17  O   UNL     1     -11.225   6.457  67.089  1.00  0.00    -0.370 OA 
BRANCH  16  18
HETATM   18  C   UNL     1      -9.839   5.444  68.833  1.00  0.00    -0.226 C  
HETATM   19  C   UNL     1      -9.527   3.939  68.962  1.00  0.00    -0.240 C  
HETATM   20  C   UNL     1     -10.978   5.784  69.803  1.00  0.00    -0.397 C  
HETATM   21  C   UNL     1      -8.575   6.226  69.219  1.00  0.00    -0.124 C  
ENDBRANCH  16  18
ENDBRANCH  15  16
ENDBRANCH  14  15
ENDBRANCH  13  14
BRANCH  11  22
HETATM   22  O   UNL     1      -7.713   9.194  67.622  1.00  0.00    -0.089 OA 
BRANCH  22  23
HETATM   23  C   UNL     1      -7.893  10.340  68.427  1.00  0.00    -0.102 C  
BRANCH  23  24
HETATM   24  C   UNL     1      -8.088   9.890  69.868  1.00  0.00    -0.188 C  
BRANCH  24  25
HETATM   25  N   UNL     1      -9.477   9.983  70.234  1.00  0.00    -0.099 NA 
HETATM   26  C   UNL     1     -10.075   9.246  71.211  1.00  0.00    -0.291 A  
HETATM   27  N   UNL     1      -9.485   8.453  72.121  1.00  0.00    -0.262 NA 
HETATM   28  H2  UNL     1     -13.903   8.507  70.755  1.00  0.00     0.000 HD 
HETATM   29  H1  UNL     1     -14.302   8.210  72.322  1.00  0.00     0.000 HD 
HETATM   30  C   UNL     1     -10.455  10.635  69.534  1.00  0.00    -0.204 A  
HETATM   31  N   UNL     1     -11.655  10.328  69.979  1.00  0.00    -0.269 NA 
HETATM   32  C   UNL     1     -11.430   9.436  71.014  1.00  0.00    -0.334 A  
HETATM   33  C   UNL     1     -12.293   8.702  71.840  1.00  0.00    -0.354 A  
HETATM   34  N   UNL     1     -13.674   8.743  71.721  1.00  0.00    -0.400 NA 
HETATM   35  N   UNL     1     -11.752   7.913  72.799  1.00  0.00    -0.341 NA 
HETATM   36  C   UNL     1     -10.405   7.834  72.885  1.00  0.00    -0.334 A  
ENDBRANCH  24  25
ENDBRANCH  23  24
ENDBRANCH  22  23
ENDBRANCH  11  22
ENDBRANCH   8   9
ENDBRANCH   7   8
ENDBRANCH   5   7
ENDBRANCH   2   5
TORSDOF 12
ENDMDL
MODEL      101
REMARK 921   NORMALIZED FREE ENERGY PREDICTED BY IDOCK:   -5.22 KCAL/MOL
REMARK 922        TOTAL FREE ENERGY PREDICTED BY IDOCK:  -10.48 KCAL/MOL
REMARK 923 INTER-LIGAND FREE ENERGY PREDICTED BY IDOCK:   -9.14 KCAL/MOL
REMARK 924 INTRA-LIGAND FREE ENERGY PREDICTED BY IDOCK:   -1.35 KCAL/MOL
REMARK 927      BINDING AFFINITY PREDICTED BY RF-SCORE:    0.00 PKD
ROOT
HETATM    1  C   UNL     1      -6.243   9.884  68.853  1.00  0.00    -0.041 C  
HETATM    2  C   UNL     1      -6.332   9.466  67.373  1.00  0.00    -0.062 C  
HETATM    3  C   UNL     1      -5.306  10.278  66.574  1.00  0.00    -0.047 C  
HETATM    4  C   UNL     1      -6.002   7.968  67.273  1.00  0.00    -0.050 C  
ENDROOT
BRANCH   2   5
HETATM    5  C   UNL     1      -7.767   9.707  66.877  1.00  0.00    -0.098 C  
HETATM    6  O   UNL     1      -8.701   8.949  67.123  1.00  0.00    -0.119 OA 
BRANCH   5   7
HETATM    7  O   UNL     1      -7.872  10.789  66.056  1.00  0.00    -0.156 OA 
BRANCH   7   8
HETATM    8  C   UNL     1      -9.210  11.308  65.926  1.00  0.00    -0.212 C  
BRANCH   8   9
HETATM    9  O   UNL     1      -9.324  12.689  66.257  1.00  0.00    -0.228 OA 
HETATM   10  P   UNL     1     -10.639  13.436  65.654  1.00  0.00    -0.294 P  
HETATM   11  C   UNL     1     -12.044  12.604  66.430  1.00  0.00    -0.260 C  
HETATM   12  O   UNL     1     -10.668  13.496  64.161  1.00  0.00    -0.372 OA 
HETATM   13  O   UNL     1     -10.736  14.850  66.418  1.00  0.00    -0.302 OA 
BRANCH  13  14
HETATM   14  C   UNL     1      -9.921  15.947  66.118  1.00  0.00    -0.314 C  
BRANCH  14  15
HETATM   15  O   UNL     1     -10.618  17.169  66.460  1.00  0.00    -0.272 OA 
BRANCH  15  16
HETATM   16  C   UNL     1     -10.318  17.702  67.678  1.00  0.00    -0.368 C  
HETATM   17  O   UNL     1     -10.448  17.102  68.739  1.00  0.00    -0.325 OA 
BRANCH  16  18
HETATM   18  C   UNL     1      -9.804  19.154  67.573  1.00  0.00    -0.406 C  
HETATM   19  C   UNL     1      -8.269  19.149  67.423  1.00  0.00    -0.302 C  
HETATM   20  C   UNL     1     -10.160  19.938  68.842  1.00  0.00    -0.438 C  
HETATM   21  C   UNL     1     -10.398  19.856  66.343  1.00  0.00    -0.611 C  
ENDBRANCH  16  18
ENDBRANCH  15  16
ENDBRANCH  14  15
ENDBRANCH  13  14
BRANCH  11  22
HETATM   22  O   UNL     1     -11.818  12.760  67.834  1.00  0.00    -0.351 OA 
BRANCH  22  23
HETATM   23  C   UNL     1     -11.783  11.531  68.528  1.00  0.00    -0.313 C  
BRANCH  23  24
HETATM   24  C   UNL     1     -11.729  11.822  70.021  1.00  0.00    -0.305 C  
BRANCH  24  25
HETATM   25  N   UNL     1     -11.957  10.616  70.772  1.00  0.00    -0.349 NA 
HETATM   26  C   UNL     1     -11.065   9.594  70.893  1.00  0.00    -0.352 A  
HETATM   27  N   UNL     1      -9.777   9.578  70.512  1.00  0.00    -0.266 NA 
HETATM   28  H2  UNL     1     -12.568   6.010  71.445  1.00  0.00     0.000 HD 
HETATM   29  H1  UNL     1     -11.266   5.283  72.136  1.00  0.00     0.000 HD 
HETATM   30  C   UNL     1     -13.155  10.197  71.284  1.00  0.00    -0.396 A  
HETATM   31  N   UNL     1     -13.097   8.947  71.692  1.00  0.00    -0.342 NA 
HETATM   32  C   UNL     1     -11.798   8.550  71.426  1.00  0.00    -0.296 A  
HETATM   33  C   UNL     1     -11.132   7.324  71.568  1.00  0.00    -0.237 A  
HETATM   34  N   UNL     1     -11.751   6.174  72.033  1.00  0.00    -0.316 NA 
HETATM   35  N   UNL     1      -9.820   7.261  71.233  1.00  0.00    -0.181 NA 
HETATM   36  C   UNL     1      -9.228   8.369  70.734  1.00  0.00    -0.159 A  
ENDBRANCH  24  25
ENDBRANCH  23  24
ENDBRANCH  22  23
ENDBRANCH  11  22
ENDBRANCH   8   9
ENDBRANCH   7   8
ENDBRANCH   5   7
ENDBRANCH   2   5
TORSDOF 12
ENDMDL
MODEL      102
REMARK 921   NORMALIZED FREE ENERGY PREDICTED BY IDOCK:   -5.22 KCAL/MOL
REMARK 922        TOTAL FREE ENERGY PREDICTED BY IDOCK:  -10.47 KCAL/MOL
REMARK 923 INTER-LIGAND FREE ENERGY PREDICTED BY IDOCK:   -8.83 KCAL/MOL
REMARK 924 INTRA-LIGAND FREE ENERGY PREDICTED BY IDOCK:   -1.65 KCAL/MOL
REMARK 927      BINDING AFFINITY PREDICTED BY RF-SCORE:    0.00 PKD
ROOT
HETATM    1  C   UNL     1     -10.808  14.453  64.630  1.00  0.00    -0.363 C  
HETATM    2  C   UNL     1     -11.599  13.133  64.718  1.00  0.00    -0.368 C  
HETATM    3  C   UNL     1     -12.625  13.255  65.851  1.00  0.00    -0.349 C  
HETATM    4  C   UNL     1     -12.323  12.914  63.380  1.00  0.00    -0.498 C  
ENDROOT
BRANCH   2   5
HETATM    5  C   UNL     1     -10.612  11.981  64.959  1.00  0.00    -0.289 C  
HETATM    6  O   UNL     1      -9.668  11.735  64.214  1.00  0.00    -0.223 OA 
BRANCH   5   7
HETATM    7  O   UNL     1     -10.950  11.203  66.026  1.00  0.00    -0.227 OA 
BRANCH   7   8
HETATM    8  C   UNL     1      -9.978  10.194  66.358  1.00  0.00    -0.234 C  
BRANCH   8   9
HETATM    9  O   UNL     1     -10.526   9.070  67.041  1.00  0.00    -0.265 OA 
HETATM   10  P   UNL     1      -9.899   8.785  68.516  1.00  0.00    -0.178 P  
HETATM   11  C   UNL     1     -10.331  10.244  69.495  1.00  0.00    -0.242 C  
HETATM   12  O   UNL     1      -8.448   8.428  68.495  1.00  0.00    -0.129 OA 
HETATM   13  O   UNL     1     -10.879   7.718  69.217  1.00  0.00    -0.188 OA 
BRANCH  13  14
HETATM   14  C   UNL     1     -10.882   6.354  68.907  1.00  0.00    -0.325 C  
BRANCH  14  15
HETATM   15  O   UNL     1     -10.639   5.588  70.111  1.00  0.00    -0.285 OA 
BRANCH  15  16
HETATM   16  C   UNL     1     -11.341   5.977  71.213  1.00  0.00    -0.230 C  
HETATM   17  O   UNL     1     -12.456   6.485  71.170  1.00  0.00    -0.264 OA 
BRANCH  16  18
HETATM   18  C   UNL     1     -10.569   5.716  72.524  1.00  0.00    -0.267 C  
HETATM   19  C   UNL     1     -10.488   7.020  73.344  1.00  0.00    -0.383 C  
HETATM   20  C   UNL     1      -9.140   5.252  72.217  1.00  0.00    -0.149 C  
HETATM   21  C   UNL     1     -11.286   4.661  73.380  1.00  0.00    -0.423 C  
ENDBRANCH  16  18
ENDBRANCH  15  16
ENDBRANCH  14  15
ENDBRANCH  13  14
BRANCH  11  22
HETATM   22  O   UNL     1     -11.757  10.312  69.419  1.00  0.00    -0.194 OA 
BRANCH  22  23
HETATM   23  C   UNL     1     -12.234  11.610  69.133  1.00  0.00    -0.137 C  
BRANCH  23  24
HETATM   24  C   UNL     1     -11.539  12.595  70.064  1.00  0.00    -0.123 C  
BRANCH  24  25
HETATM   25  N   UNL     1     -11.340  13.854  69.396  1.00  0.00    -0.263 NA 
HETATM   26  C   UNL     1     -10.287  14.146  68.582  1.00  0.00    -0.243 A  
HETATM   27  N   UNL     1      -9.360  13.300  68.104  1.00  0.00    -0.217 NA 
HETATM   28  H2  UNL     1      -9.198  17.912  68.403  1.00  0.00     0.000 HD 
HETATM   29  H1  UNL     1      -8.426  17.894  66.951  1.00  0.00     0.000 HD 
HETATM   30  C   UNL     1     -12.023  15.014  69.639  1.00  0.00    -0.321 A  
HETATM   31  N   UNL     1     -11.447  16.046  69.060  1.00  0.00    -0.364 NA 
HETATM   32  C   UNL     1     -10.341  15.517  68.416  1.00  0.00    -0.230 A  
HETATM   33  C   UNL     1      -9.298  16.101  67.684  1.00  0.00    -0.214 A  
HETATM   34  N   UNL     1      -9.185  17.469  67.484  1.00  0.00    -0.240 NA 
HETATM   35  N   UNL     1      -8.353  15.291  67.148  1.00  0.00    -0.200 NA 
HETATM   36  C   UNL     1      -8.435  13.962  67.383  1.00  0.00    -0.199 A  
ENDBRANCH  24  25
ENDBRANCH  23  24
ENDBRANCH  22  23
ENDBRANCH  11  22
ENDBRANCH   8   9
ENDBRANCH   7   8
ENDBRANCH   5   7
ENDBRANCH   2   5
TORSDOF 12
ENDMDL
MODEL      103
REMARK 921   NORMALIZED FREE ENERGY PREDICTED BY IDOCK:   -5.20 KCAL/MOL
REMARK 922        TOTAL FREE ENERGY PREDICTED BY IDOCK:  -10.44 KCAL/MOL
REMARK 923 INTER-LIGAND FREE ENERGY PREDICTED BY IDOCK:   -8.89 KCAL/MOL
REMARK 924 INTRA-LIGAND FREE ENERGY PREDICTED BY IDOCK:   -1.55 KCAL/MOL
REMARK 927      BINDING AFFINITY PREDICTED BY RF-SCORE:    0.00 PKD
ROOT
HETATM    1  C   UNL     1     -10.650   7.460  73.366  1.00  0.00    -0.427 C  
HETATM    2  C   UNL     1     -10.641   6.332  72.316  1.00  0.00    -0.244 C  
HETATM    3  C   UNL     1      -9.184   5.974  71.998  1.00  0.00    -0.151 C  
HETATM    4  C   UNL     1     -11.359   5.111  72.912  1.00  0.00    -0.354 C  
ENDROOT
BRANCH   2   5
HETATM    5  C   UNL     1     -11.399   6.812  71.068  1.00  0.00    -0.309 C  
HETATM    6  O   UNL     1     -12.017   7.871  71.022  1.00  0.00    -0.298 OA 
BRANCH   5   7
HETATM    7  O   UNL     1     -11.398   5.897  70.058  1.00  0.00    -0.352 OA 
BRANCH   7   8
HETATM    8  C   UNL     1     -11.110   6.448  68.759  1.00  0.00    -0.326 C  
BRANCH   8   9
HETATM    9  O   UNL     1      -9.765   6.896  68.610  1.00  0.00    -0.136 OA 
HETATM   10  P   UNL     1      -9.337   7.304  67.094  1.00  0.00    -0.156 P  
HETATM   11  C   UNL     1     -10.397   8.708  66.673  1.00  0.00    -0.232 C  
HETATM   12  O   UNL     1      -9.365   6.162  66.131  1.00  0.00    -0.158 OA 
HETATM   13  O   UNL     1      -7.934   8.083  67.223  1.00  0.00    -0.117 OA 
BRANCH  13  14
HETATM   14  C   UNL     1      -6.712   7.440  67.441  1.00  0.00    -0.069 C  
BRANCH  14  15
HETATM   15  O   UNL     1      -6.183   7.839  68.728  1.00  0.00    -0.037 OA 
BRANCH  15  16
HETATM   16  C   UNL     1      -6.025   9.181  68.915  1.00  0.00    -0.043 C  
HETATM   17  O   UNL     1      -5.571   9.941  68.066  1.00  0.00    -0.040 OA 
BRANCH  16  18
HETATM   18  C   UNL     1      -6.472   9.635  70.321  1.00  0.00    -0.083 C  
HETATM   19  C   UNL     1      -6.437  11.175  70.401  1.00  0.00     0.057 C  
HETATM   20  C   UNL     1      -5.523   9.076  71.388  1.00  0.00    -0.047 C  
HETATM   21  C   UNL     1      -7.909   9.178  70.611  1.00  0.00    -0.165 C  
ENDBRANCH  16  18
ENDBRANCH  15  16
ENDBRANCH  14  15
ENDBRANCH  13  14
BRANCH  11  22
HETATM   22  O   UNL     1     -10.122   9.677  67.688  1.00  0.00    -0.171 OA 
BRANCH  22  23
HETATM   23  C   UNL     1      -9.973  10.986  67.177  1.00  0.00    -0.187 C  
BRANCH  23  24
HETATM   24  C   UNL     1     -11.315  11.698  67.281  1.00  0.00    -0.305 C  
BRANCH  24  25
HETATM   25  N   UNL     1     -11.449  12.664  66.222  1.00  0.00    -0.342 NA 
HETATM   26  C   UNL     1     -10.788  13.853  66.164  1.00  0.00    -0.290 A  
HETATM   27  N   UNL     1      -9.781  14.273  66.949  1.00  0.00    -0.255 NA 
HETATM   28  H2  UNL     1     -12.589  16.770  64.253  1.00  0.00     0.000 HD 
HETATM   29  H1  UNL     1     -11.280  17.697  63.894  1.00  0.00     0.000 HD 
HETATM   30  C   UNL     1     -12.403  12.660  65.241  1.00  0.00    -0.466 A  
HETATM   31  N   UNL     1     -12.423  13.797  64.580  1.00  0.00    -0.608 NA 
HETATM   32  C   UNL     1     -11.432  14.564  65.169  1.00  0.00    -0.368 A  
HETATM   33  C   UNL     1     -11.004  15.884  64.964  1.00  0.00    -0.412 A  
HETATM   34  N   UNL     1     -11.592  16.738  64.043  1.00  0.00    -1.006 NA 
HETATM   35  N   UNL     1      -9.967  16.348  65.704  1.00  0.00    -0.529 NA 
HETATM   36  C   UNL     1      -9.424  15.533  66.635  1.00  0.00    -0.259 A  
ENDBRANCH  24  25
ENDBRANCH  23  24
ENDBRANCH  22  23
ENDBRANCH  11  22
ENDBRANCH   8   9
ENDBRANCH   7   8
ENDBRANCH   5   7
ENDBRANCH   2   5
TORSDOF 12
ENDMDL
MODEL      104
REMARK 921   NORMALIZED FREE ENERGY PREDICTED BY IDOCK:   -5.17 KCAL/MOL
REMARK 922        TOTAL FREE ENERGY PREDICTED BY IDOCK:  -10.39 KCAL/MOL
REMARK 923 INTER-LIGAND FREE ENERGY PREDICTED BY IDOCK:   -8.82 KCAL/MOL
REMARK 924 INTRA-LIGAND FREE ENERGY PREDICTED BY IDOCK:   -1.58 KCAL/MOL
REMARK 927      BINDING AFFINITY PREDICTED BY RF-SCORE:    0.00 PKD
ROOT
HETATM    1  C   UNL     1     -11.920   7.342  70.474  1.00  0.00    -0.200 C  
HETATM    2  C   UNL     1     -11.712   8.500  71.469  1.00  0.00    -0.354 C  
HETATM    3  C   UNL     1     -13.063   9.182  71.712  1.00  0.00    -0.456 C  
HETATM    4  C   UNL     1     -11.180   7.914  72.787  1.00  0.00    -0.466 C  
ENDROOT
BRANCH   2   5
HETATM    5  C   UNL     1     -10.674   9.472  70.887  1.00  0.00    -0.333 C  
HETATM    6  O   UNL     1      -9.538   9.592  71.335  1.00  0.00    -0.217 OA 
BRANCH   5   7
HETATM    7  O   UNL     1     -11.177  10.255  69.891  1.00  0.00    -0.259 OA 
BRANCH   7   8
HETATM    8  C   UNL     1     -10.183  10.788  68.996  1.00  0.00    -0.213 C  
BRANCH   8   9
HETATM    9  O   UNL     1     -10.730  11.456  67.863  1.00  0.00    -0.182 OA 
HETATM   10  P   UNL     1      -9.639  11.961  66.766  1.00  0.00    -0.214 P  
HETATM   11  C   UNL     1      -8.866  10.448  66.146  1.00  0.00    -0.158 C  
HETATM   12  O   UNL     1      -8.698  13.001  67.284  1.00  0.00    -0.192 OA 
HETATM   13  O   UNL     1     -10.481  12.363  65.454  1.00  0.00    -0.264 OA 
BRANCH  13  14
HETATM   14  C   UNL     1     -11.210  13.551  65.339  1.00  0.00    -0.289 C  
BRANCH  14  15
HETATM   15  O   UNL     1     -10.331  14.613  64.898  1.00  0.00    -0.411 OA 
BRANCH  15  16
HETATM   16  C   UNL     1     -10.812  15.880  65.042  1.00  0.00    -0.426 C  
HETATM   17  O   UNL     1     -11.640  16.387  64.294  1.00  0.00    -0.818 OA 
BRANCH  16  18
HETATM   18  C   UNL     1     -10.189  16.612  66.250  1.00  0.00    -0.344 C  
HETATM   19  C   UNL     1     -10.518  18.116  66.169  1.00  0.00    -0.377 C  
HETATM   20  C   UNL     1      -8.663  16.452  66.240  1.00  0.00    -0.369 C  
HETATM   21  C   UNL     1     -10.760  16.072  67.570  1.00  0.00    -0.314 C  
ENDBRANCH  16  18
ENDBRANCH  15  16
ENDBRANCH  14  15
ENDBRANCH  13  14
BRANCH  11  22
HETATM   22  O   UNL     1      -9.957   9.674  65.640  1.00  0.00    -0.305 OA 
BRANCH  22  23
HETATM   23  C   UNL     1     -10.033   8.385  66.214  1.00  0.00    -0.146 C  
BRANCH  23  24
HETATM   24  C   UNL     1      -8.626   7.810  66.296  1.00  0.00    -0.150 C  
BRANCH  24  25
HETATM   25  N   UNL     1      -8.510   6.944  67.440  1.00  0.00    -0.121 NA 
HETATM   26  C   UNL     1      -8.857   5.627  67.457  1.00  0.00    -0.105 A  
HETATM   27  N   UNL     1      -9.187   4.851  66.412  1.00  0.00    -0.132 NA 
HETATM   28  H2  UNL     1     -10.015   4.163  70.909  1.00  0.00     0.000 HD 
HETATM   29  H1  UNL     1      -9.715   2.570  70.634  1.00  0.00     0.000 HD 
HETATM   30  C   UNL     1      -8.259   7.334  68.727  1.00  0.00    -0.129 A  
HETATM   31  N   UNL     1      -8.464   6.353  69.579  1.00  0.00    -0.132 NA 
HETATM   32  C   UNL     1      -8.866   5.284  68.796  1.00  0.00    -0.096 A  
HETATM   33  C   UNL     1      -9.289   3.984  69.108  1.00  0.00    -0.167 A  
HETATM   34  N   UNL     1      -9.407   3.516  70.407  1.00  0.00    -0.154 NA 
HETATM   35  N   UNL     1      -9.601   3.146  68.089  1.00  0.00    -0.144 NA 
HETATM   36  C   UNL     1      -9.533   3.616  66.824  1.00  0.00    -0.179 A  
ENDBRANCH  24  25
ENDBRANCH  23  24
ENDBRANCH  22  23
ENDBRANCH  11  22
ENDBRANCH   8   9
ENDBRANCH   7   8
ENDBRANCH   5   7
ENDBRANCH   2   5
TORSDOF 12
ENDMDL
MODEL      105
REMARK 921   NORMALIZED FREE ENERGY PREDICTED BY IDOCK:   -5.16 KCAL/MOL
REMARK 922        TOTAL FREE ENERGY PREDICTED BY IDOCK:  -10.37 KCAL/MOL
REMARK 923 INTER-LIGAND FREE ENERGY PREDICTED BY IDOCK:   -8.93 KCAL/MOL
REMARK 924 INTRA-LIGAND FREE ENERGY PREDICTED BY IDOCK:   -1.45 KCAL/MOL
REMARK 927      BINDING AFFINITY PREDICTED BY RF-SCORE:    0.00 PKD
ROOT
HETATM    1  C   UNL     1     -12.603   7.365  70.751  1.00  0.00    -0.097 C  
HETATM    2  C   UNL     1     -11.927   8.608  71.361  1.00  0.00    -0.355 C  
HETATM    3  C   UNL     1     -13.013   9.633  71.708  1.00  0.00    -0.514 C  
HETATM    4  C   UNL     1     -11.188   8.179  72.638  1.00  0.00    -0.447 C  
ENDROOT
BRANCH   2   5
HETATM    5  C   UNL     1     -10.914   9.166  70.348  1.00  0.00    -0.248 C  
HETATM    6  O   UNL     1      -9.775   8.728  70.223  1.00  0.00    -0.165 OA 
BRANCH   5   7
HETATM    7  O   UNL     1     -11.378  10.258  69.677  1.00  0.00    -0.244 OA 
BRANCH   7   8
HETATM    8  C   UNL     1     -10.382  10.940  68.891  1.00  0.00    -0.204 C  
BRANCH   8   9
HETATM    9  O   UNL     1     -10.887  12.060  68.171  1.00  0.00    -0.202 OA 
HETATM   10  P   UNL     1      -9.754  13.013  67.493  1.00  0.00    -0.219 P  
HETATM   11  C   UNL     1      -8.922  11.957  66.283  1.00  0.00    -0.157 C  
HETATM   12  O   UNL     1      -8.861  13.688  68.484  1.00  0.00    -0.169 OA 
HETATM   13  O   UNL     1     -10.539  13.983  66.476  1.00  0.00    -0.276 OA 
BRANCH  13  14
HETATM   14  C   UNL     1     -11.286  15.091  66.888  1.00  0.00    -0.323 C  
BRANCH  14  15
HETATM   15  O   UNL     1     -10.396  16.209  67.122  1.00  0.00    -0.281 OA 
BRANCH  15  16
HETATM   16  C   UNL     1     -10.412  17.188  66.173  1.00  0.00    -0.275 C  
HETATM   17  O   UNL     1     -10.778  17.014  65.016  1.00  0.00    -0.713 OA 
BRANCH  16  18
HETATM   18  C   UNL     1      -9.905  18.541  66.717  1.00  0.00    -0.359 C  
HETATM   19  C   UNL     1      -8.379  18.638  66.520  1.00  0.00    -0.304 C  
HETATM   20  C   UNL     1     -10.205  18.657  68.217  1.00  0.00    -0.423 C  
HETATM   21  C   UNL     1     -10.556  19.710  65.965  1.00  0.00    -0.584 C  
ENDBRANCH  16  18
ENDBRANCH  15  16
ENDBRANCH  14  15
ENDBRANCH  13  14
BRANCH  11  22
HETATM   22  O   UNL     1      -9.971  11.513  65.419  1.00  0.00    -0.228 OA 
BRANCH  22  23
HETATM   23  C   UNL     1      -9.843  10.156  65.046  1.00  0.00    -0.322 C  
BRANCH  23  24
HETATM   24  C   UNL     1      -8.805   9.504  65.950  1.00  0.00    -0.164 C  
BRANCH  24  25
HETATM   25  N   UNL     1      -8.762   8.085  65.714  1.00  0.00    -0.156 NA 
HETATM   26  C   UNL     1      -9.489   7.159  66.399  1.00  0.00    -0.123 A  
HETATM   27  N   UNL     1     -10.489   7.379  67.268  1.00  0.00    -0.284 NA 
HETATM   28  H2  UNL     1      -7.919   3.575  66.709  1.00  0.00     0.000 HD 
HETATM   29  H1  UNL     1      -9.289   2.712  66.991  1.00  0.00     0.000 HD 
HETATM   30  C   UNL     1      -7.843   7.422  64.947  1.00  0.00    -0.125 A  
HETATM   31  N   UNL     1      -7.909   6.120  65.130  1.00  0.00    -0.101 NA 
HETATM   32  C   UNL     1      -8.920   5.946  66.059  1.00  0.00    -0.151 A  
HETATM   33  C   UNL     1      -9.427   4.812  66.710  1.00  0.00    -0.155 A  
HETATM   34  N   UNL     1      -8.920   3.536  66.517  1.00  0.00    -0.138 NA 
HETATM   35  N   UNL     1     -10.462   4.971  67.571  1.00  0.00    -0.089 NA 
HETATM   36  C   UNL     1     -10.926   6.220  67.797  1.00  0.00    -0.332 A  
ENDBRANCH  24  25
ENDBRANCH  23  24
ENDBRANCH  22  23
ENDBRANCH  11  22
ENDBRANCH   8   9
ENDBRANCH   7   8
ENDBRANCH   5   7
ENDBRANCH   2   5
TORSDOF 12
ENDMDL
MODEL      106
REMARK 921   NORMALIZED FREE ENERGY PREDICTED BY IDOCK:   -5.16 KCAL/MOL
REMARK 922        TOTAL FREE ENERGY PREDICTED BY IDOCK:  -10.37 KCAL/MOL
REMARK 923 INTER-LIGAND FREE ENERGY PREDICTED BY IDOCK:   -9.04 KCAL/MOL
REMARK 924 INTRA-LIGAND FREE ENERGY PREDICTED BY IDOCK:   -1.33 KCAL/MOL
REMARK 927      BINDING AFFINITY PREDICTED BY RF-SCORE:    0.00 PKD
ROOT
HETATM    1  C   UNL     1     -10.880   6.584  67.929  1.00  0.00    -0.383 C  
HETATM    2  C   UNL     1      -9.536   5.829  67.959  1.00  0.00    -0.131 C  
HETATM    3  C   UNL     1      -9.700   4.579  68.832  1.00  0.00    -0.224 C  
HETATM    4  C   UNL     1      -9.181   5.418  66.521  1.00  0.00    -0.139 C  
ENDROOT
BRANCH   2   5
HETATM    5  C   UNL     1      -8.452   6.772  68.503  1.00  0.00    -0.123 C  
HETATM    6  O   UNL     1      -7.675   6.458  69.401  1.00  0.00    -0.096 OA 
BRANCH   5   7
HETATM    7  O   UNL     1      -8.507   8.020  67.959  1.00  0.00    -0.125 OA 
BRANCH   7   8
HETATM    8  C   UNL     1      -7.241   8.520  67.491  1.00  0.00    -0.084 C  
BRANCH   8   9
HETATM    9  O   UNL     1      -7.012   9.890  67.808  1.00  0.00    -0.083 OA 
HETATM   10  P   UNL     1      -6.986  10.900  66.532  1.00  0.00    -0.119 P  
HETATM   11  C   UNL     1      -8.650  10.806  65.830  1.00  0.00    -0.183 C  
HETATM   12  O   UNL     1      -5.866  10.637  65.577  1.00  0.00    -0.123 OA 
HETATM   13  O   UNL     1      -7.058  12.388  67.141  1.00  0.00    -0.142 OA 
BRANCH  13  14
HETATM   14  C   UNL     1      -5.967  13.035  67.729  1.00  0.00    -0.145 C  
BRANCH  14  15
HETATM   15  O   UNL     1      -6.010  14.444  67.402  1.00  0.00    -0.345 OA 
BRANCH  15  16
HETATM   16  C   UNL     1      -6.856  15.203  68.155  1.00  0.00    -0.128 C  
HETATM   17  O   UNL     1      -7.179  14.930  69.306  1.00  0.00    -0.147 OA 
BRANCH  16  18
HETATM   18  C   UNL     1      -7.372  16.441  67.391  1.00  0.00    -0.184 C  
HETATM   19  C   UNL     1      -8.039  17.418  68.382  1.00  0.00    -0.264 C  
HETATM   20  C   UNL     1      -8.417  16.026  66.348  1.00  0.00    -0.363 C  
HETATM   21  C   UNL     1      -6.215  17.180  66.703  1.00  0.00    -0.250 C  
ENDBRANCH  16  18
ENDBRANCH  15  16
ENDBRANCH  14  15
ENDBRANCH  13  14
BRANCH  11  22
HETATM   22  O   UNL     1      -9.512  11.177  66.909  1.00  0.00    -0.181 OA 
BRANCH  22  23
HETATM   23  C   UNL     1     -10.749  10.496  66.888  1.00  0.00    -0.219 C  
BRANCH  23  24
HETATM   24  C   UNL     1     -11.750  11.289  67.716  1.00  0.00    -0.176 C  
BRANCH  24  25
HETATM   25  N   UNL     1     -11.984  12.576  67.115  1.00  0.00    -0.516 NA 
HETATM   26  C   UNL     1     -12.204  12.787  65.788  1.00  0.00    -0.408 A  
HETATM   27  N   UNL     1     -12.426  11.866  64.835  1.00  0.00    -0.248 NA 
HETATM   28  H2  UNL     1     -11.094  16.269  64.356  1.00  0.00     0.000 HD 
HETATM   29  H1  UNL     1     -12.061  16.327  63.028  1.00  0.00     0.000 HD 
HETATM   30  C   UNL     1     -11.801  13.793  67.714  1.00  0.00    -0.369 A  
HETATM   31  N   UNL     1     -11.850  14.775  66.840  1.00  0.00    -0.319 NA 
HETATM   32  C   UNL     1     -12.075  14.154  65.623  1.00  0.00    -0.415 A  
HETATM   33  C   UNL     1     -12.163  14.638  64.311  1.00  0.00    -0.408 A  
HETATM   34  N   UNL     1     -11.996  15.975  63.983  1.00  0.00    -0.797 NA 
HETATM   35  N   UNL     1     -12.421  13.757  63.314  1.00  0.00    -0.762 NA 
HETATM   36  C   UNL     1     -12.537  12.446  63.625  1.00  0.00    -0.443 A  
ENDBRANCH  24  25
ENDBRANCH  23  24
ENDBRANCH  22  23
ENDBRANCH  11  22
ENDBRANCH   8   9
ENDBRANCH   7   8
ENDBRANCH   5   7
ENDBRANCH   2   5
TORSDOF 12
ENDMDL
MODEL      107
REMARK 921   NORMALIZED FREE ENERGY PREDICTED BY IDOCK:   -5.15 KCAL/MOL
REMARK 922        TOTAL FREE ENERGY PREDICTED BY IDOCK:  -10.37 KCAL/MOL
REMARK 923 INTER-LIGAND FREE ENERGY PREDICTED BY IDOCK:   -8.91 KCAL/MOL
REMARK 924 INTRA-LIGAND FREE ENERGY PREDICTED BY IDOCK:   -1.45 KCAL/MOL
REMARK 927      BINDING AFFINITY PREDICTED BY RF-SCORE:    0.00 PKD
ROOT
HETATM    1  C   UNL     1      -8.711   6.742  69.164  1.00  0.00    -0.131 C  
HETATM    2  C   UNL     1      -7.859   7.168  70.375  1.00  0.00    -0.100 C  
HETATM    3  C   UNL     1      -8.453   6.532  71.637  1.00  0.00    -0.124 C  
HETATM    4  C   UNL     1      -6.425   6.659  70.159  1.00  0.00    -0.040 C  
ENDROOT
BRANCH   2   5
HETATM    5  C   UNL     1      -7.849   8.703  70.457  1.00  0.00    -0.096 C  
HETATM    6  O   UNL     1      -7.975   9.322  71.509  1.00  0.00    -0.334 OA 
BRANCH   5   7
HETATM    7  O   UNL     1      -7.787   9.302  69.234  1.00  0.00    -0.080 OA 
BRANCH   7   8
HETATM    8  C   UNL     1      -6.604  10.095  69.021  1.00  0.00    -0.053 C  
BRANCH   8   9
HETATM    9  O   UNL     1      -6.848  11.499  69.011  1.00  0.00    -0.090 OA 
HETATM   10  P   UNL     1      -6.781  12.201  67.543  1.00  0.00    -0.150 P  
HETATM   11  C   UNL     1      -8.123  11.438  66.601  1.00  0.00    -0.155 C  
HETATM   12  O   UNL     1      -5.429  12.141  66.908  1.00  0.00    -0.268 OA 
HETATM   13  O   UNL     1      -7.410  13.671  67.725  1.00  0.00    -0.131 OA 
BRANCH  13  14
HETATM   14  C   UNL     1      -6.723  14.737  68.314  1.00  0.00    -0.113 C  
BRANCH  14  15
HETATM   15  O   UNL     1      -6.888  15.922  67.499  1.00  0.00    -0.150 OA 
BRANCH  15  16
HETATM   16  C   UNL     1      -7.356  17.027  68.146  1.00  0.00    -0.192 C  
HETATM   17  O   UNL     1      -6.805  17.536  69.116  1.00  0.00    -0.244 OA 
BRANCH  16  18
HETATM   18  C   UNL     1      -8.665  17.561  67.527  1.00  0.00    -0.225 C  
HETATM   19  C   UNL     1      -8.474  19.031  67.103  1.00  0.00    -0.297 C  
HETATM   20  C   UNL     1      -9.803  17.500  68.553  1.00  0.00    -0.330 C  
HETATM   21  C   UNL     1      -9.047  16.753  66.278  1.00  0.00    -0.320 C  
ENDBRANCH  16  18
ENDBRANCH  15  16
ENDBRANCH  14  15
ENDBRANCH  13  14
BRANCH  11  22
HETATM   22  O   UNL     1      -9.296  11.705  67.374  1.00  0.00    -0.165 OA 
BRANCH  22  23
HETATM   23  C   UNL     1     -10.322  10.757  67.166  1.00  0.00    -0.224 C  
BRANCH  23  24
HETATM   24  C   UNL     1     -11.614  11.311  67.751  1.00  0.00    -0.230 C  
BRANCH  24  25
HETATM   25  N   UNL     1     -11.923  12.585  67.157  1.00  0.00    -0.516 NA 
HETATM   26  C   UNL     1     -12.197  12.783  65.838  1.00  0.00    -0.359 A  
HETATM   27  N   UNL     1     -12.411  11.851  64.894  1.00  0.00    -0.262 NA 
HETATM   28  H2  UNL     1     -11.286  16.306  64.366  1.00  0.00     0.000 HD 
HETATM   29  H1  UNL     1     -12.299  16.320  63.071  1.00  0.00     0.000 HD 
HETATM   30  C   UNL     1     -11.772  13.810  67.749  1.00  0.00    -0.358 A  
HETATM   31  N   UNL     1     -11.893  14.787  66.875  1.00  0.00    -0.319 NA 
HETATM   32  C   UNL     1     -12.133  14.153  65.668  1.00  0.00    -0.415 A  
HETATM   33  C   UNL     1     -12.286  14.631  64.358  1.00  0.00    -0.452 A  
HETATM   34  N   UNL     1     -12.187  15.973  64.024  1.00  0.00    -0.758 NA 
HETATM   35  N   UNL     1     -12.539  13.737  63.372  1.00  0.00    -0.789 NA 
HETATM   36  C   UNL     1     -12.588  12.423  63.688  1.00  0.00    -0.443 A  
ENDBRANCH  24  25
ENDBRANCH  23  24
ENDBRANCH  22  23
ENDBRANCH  11  22
ENDBRANCH   8   9
ENDBRANCH   7   8
ENDBRANCH   5   7
ENDBRANCH   2   5
TORSDOF 12
ENDMDL
MODEL      108
REMARK 921   NORMALIZED FREE ENERGY PREDICTED BY IDOCK:   -5.15 KCAL/MOL
REMARK 922        TOTAL FREE ENERGY PREDICTED BY IDOCK:  -10.36 KCAL/MOL
REMARK 923 INTER-LIGAND FREE ENERGY PREDICTED BY IDOCK:   -9.19 KCAL/MOL
REMARK 924 INTRA-LIGAND FREE ENERGY PREDICTED BY IDOCK:   -1.17 KCAL/MOL
REMARK 927      BINDING AFFINITY PREDICTED BY RF-SCORE:    0.00 PKD
ROOT
HETATM    1  C   UNL     1      -8.351   4.980  72.359  1.00  0.00    -0.120 C  
HETATM    2  C   UNL     1      -7.748   6.017  73.326  1.00  0.00    -0.101 C  
HETATM    3  C   UNL     1      -8.663   6.131  74.551  1.00  0.00    -0.138 C  
HETATM    4  C   UNL     1      -6.358   5.524  73.758  1.00  0.00    -0.064 C  
ENDROOT
BRANCH   2   5
HETATM    5  C   UNL     1      -7.608   7.358  72.588  1.00  0.00    -0.084 C  
HETATM    6  O   UNL     1      -6.922   8.287  73.003  1.00  0.00    -0.104 OA 
BRANCH   5   7
HETATM    7  O   UNL     1      -8.400   7.443  71.482  1.00  0.00    -0.107 OA 
BRANCH   7   8
HETATM    8  C   UNL     1      -7.688   7.720  70.261  1.00  0.00    -0.089 C  
BRANCH   8   9
HETATM    9  O   UNL     1      -7.867   9.050  69.782  1.00  0.00    -0.077 OA 
HETATM   10  P   UNL     1      -9.053   9.233  68.682  1.00  0.00    -0.132 P  
HETATM   11  C   UNL     1     -10.573   8.795  69.560  1.00  0.00    -0.219 C  
HETATM   12  O   UNL     1      -8.810   8.498  67.404  1.00  0.00    -0.132 OA 
HETATM   13  O   UNL     1      -9.294  10.819  68.549  1.00  0.00    -0.159 OA 
BRANCH  13  14
HETATM   14  C   UNL     1      -8.444  11.672  67.837  1.00  0.00    -0.148 C  
BRANCH  14  15
HETATM   15  O   UNL     1      -9.236  12.593  67.051  1.00  0.00    -0.199 OA 
BRANCH  15  16
HETATM   16  C   UNL     1      -9.683  12.120  65.853  1.00  0.00    -0.239 C  
HETATM   17  O   UNL     1      -9.261  11.099  65.321  1.00  0.00    -0.214 OA 
BRANCH  16  18
HETATM   18  C   UNL     1     -10.774  13.021  65.235  1.00  0.00    -0.317 C  
HETATM   19  C   UNL     1     -10.256  14.471  65.147  1.00  0.00    -0.420 C  
HETATM   20  C   UNL     1     -12.032  13.011  66.113  1.00  0.00    -0.488 C  
HETATM   21  C   UNL     1     -11.126  12.556  63.815  1.00  0.00    -0.503 C  
ENDBRANCH  16  18
ENDBRANCH  15  16
ENDBRANCH  14  15
ENDBRANCH  13  14
BRANCH  11  22
HETATM   22  O   UNL     1     -10.606   9.685  70.678  1.00  0.00    -0.278 OA 
BRANCH  22  23
HETATM   23  C   UNL     1     -11.899  10.188  70.945  1.00  0.00    -0.374 C  
BRANCH  23  24
HETATM   24  C   UNL     1     -12.083  11.483  70.165  1.00  0.00    -0.351 C  
BRANCH  24  25
HETATM   25  N   UNL     1     -12.679  12.488  71.005  1.00  0.00    -0.291 NA 
HETATM   26  C   UNL     1     -12.320  13.803  71.020  1.00  0.00    -0.372 A  
HETATM   27  N   UNL     1     -11.506  14.441  70.164  1.00  0.00    -0.249 NA 
HETATM   28  H2  UNL     1     -12.836  15.723  74.404  1.00  0.00     0.000 HD 
HETATM   29  H1  UNL     1     -12.900  17.261  73.826  1.00  0.00     0.000 HD 
HETATM   30  C   UNL     1     -13.518  12.265  72.063  1.00  0.00    -0.316 A  
HETATM   31  N   UNL     1     -13.688  13.352  72.784  1.00  0.00    -0.664 NA 
HETATM   32  C   UNL     1     -12.919  14.317  72.155  1.00  0.00    -0.373 A  
HETATM   33  C   UNL     1     -12.631  15.653  72.465  1.00  0.00    -0.429 A  
HETATM   34  N   UNL     1     -13.110  16.289  73.600  1.00  0.00    -0.649 NA 
HETATM   35  N   UNL     1     -11.843  16.357  71.616  1.00  0.00    -0.406 NA 
HETATM   36  C   UNL     1     -11.335  15.725  70.534  1.00  0.00    -0.380 A  
ENDBRANCH  24  25
ENDBRANCH  23  24
ENDBRANCH  22  23
ENDBRANCH  11  22
ENDBRANCH   8   9
ENDBRANCH   7   8
ENDBRANCH   5   7
ENDBRANCH   2   5
TORSDOF 12
ENDMDL
MODEL      109
REMARK 921   NORMALIZED FREE ENERGY PREDICTED BY IDOCK:   -5.15 KCAL/MOL
REMARK 922        TOTAL FREE ENERGY PREDICTED BY IDOCK:  -10.36 KCAL/MOL
REMARK 923 INTER-LIGAND FREE ENERGY PREDICTED BY IDOCK:   -9.35 KCAL/MOL
REMARK 924 INTRA-LIGAND FREE ENERGY PREDICTED BY IDOCK:   -1.01 KCAL/MOL
REMARK 927      BINDING AFFINITY PREDICTED BY RF-SCORE:    0.00 PKD
ROOT
HETATM    1  C   UNL     1      -5.536  10.777  65.456  1.00  0.00    -0.138 C  
HETATM    2  C   UNL     1      -6.206   9.433  65.110  1.00  0.00    -0.070 C  
HETATM    3  C   UNL     1      -5.291   8.667  64.147  1.00  0.00    -0.055 C  
HETATM    4  C   UNL     1      -6.381   8.632  66.410  1.00  0.00    -0.061 C  
ENDROOT
BRANCH   2   5
HETATM    5  C   UNL     1      -7.584   9.713  64.492  1.00  0.00    -0.127 C  
HETATM    6  O   UNL     1      -7.748   9.989  63.307  1.00  0.00    -0.139 OA 
BRANCH   5   7
HETATM    7  O   UNL     1      -8.590   9.721  65.412  1.00  0.00    -0.135 OA 
BRANCH   7   8
HETATM    8  C   UNL     1      -9.861  10.160  64.898  1.00  0.00    -0.319 C  
BRANCH   8   9
HETATM    9  O   UNL     1     -10.698  10.767  65.878  1.00  0.00    -0.179 OA 
HETATM   10  P   UNL     1     -10.086  12.103  66.578  1.00  0.00    -0.218 P  
HETATM   11  C   UNL     1      -9.920  13.299  65.232  1.00  0.00    -0.173 C  
HETATM   12  O   UNL     1      -8.847  11.852  67.375  1.00  0.00    -0.160 OA 
HETATM   13  O   UNL     1     -11.307  12.789  67.371  1.00  0.00    -0.277 OA 
BRANCH  13  14
HETATM   14  C   UNL     1     -11.794  12.319  68.594  1.00  0.00    -0.305 C  
BRANCH  14  15
HETATM   15  O   UNL     1     -11.927  13.428  69.516  1.00  0.00    -0.308 OA 
BRANCH  15  16
HETATM   16  C   UNL     1     -12.339  13.107  70.775  1.00  0.00    -0.321 C  
HETATM   17  O   UNL     1     -12.349  11.965  71.222  1.00  0.00    -0.257 OA 
BRANCH  16  18
HETATM   18  C   UNL     1     -12.804  14.343  71.573  1.00  0.00    -0.411 C  
HETATM   19  C   UNL     1     -13.987  13.955  72.485  1.00  0.00    -0.565 C  
HETATM   20  C   UNL     1     -13.275  15.448  70.619  1.00  0.00    -0.356 C  
HETATM   21  C   UNL     1     -11.672  14.875  72.465  1.00  0.00    -0.297 C  
ENDBRANCH  16  18
ENDBRANCH  15  16
ENDBRANCH  14  15
ENDBRANCH  13  14
BRANCH  11  22
HETATM   22  O   UNL     1     -11.242  13.417  64.698  1.00  0.00    -0.330 OA 
BRANCH  22  23
HETATM   23  C   UNL     1     -11.818  14.687  64.924  1.00  0.00    -0.403 C  
BRANCH  23  24
HETATM   24  C   UNL     1     -10.701  15.720  64.977  1.00  0.00    -0.421 C  
BRANCH  24  25
HETATM   25  N   UNL     1     -10.777  16.473  66.201  1.00  0.00    -0.217 NA 
HETATM   26  C   UNL     1     -10.604  17.820  66.299  1.00  0.00    -0.220 A  
HETATM   27  N   UNL     1     -10.515  18.712  65.299  1.00  0.00    -0.272 NA 
HETATM   28  H2  UNL     1      -9.203  19.165  69.710  1.00  0.00     0.000 HD 
HETATM   29  H1  UNL     1      -9.739  20.717  69.621  1.00  0.00     0.000 HD 
HETATM   30  C   UNL     1     -10.806  15.955  67.468  1.00  0.00    -0.305 A  
HETATM   31  N   UNL     1     -10.619  16.888  68.377  1.00  0.00    -0.347 NA 
HETATM   32  C   UNL     1     -10.464  18.058  67.654  1.00  0.00    -0.409 A  
HETATM   33  C   UNL     1     -10.174  19.377  68.032  1.00  0.00    -0.423 A  
HETATM   34  N   UNL     1      -9.949  19.757  69.346  1.00  0.00    -0.292 NA 
HETATM   35  N   UNL     1     -10.108  20.325  67.066  1.00  0.00    -0.452 NA 
HETATM   36  C   UNL     1     -10.280  19.948  65.779  1.00  0.00    -0.386 A  
ENDBRANCH  24  25
ENDBRANCH  23  24
ENDBRANCH  22  23
ENDBRANCH  11  22
ENDBRANCH   8   9
ENDBRANCH   7   8
ENDBRANCH   5   7
ENDBRANCH   2   5
TORSDOF 12
ENDMDL
MODEL      110
REMARK 921   NORMALIZED FREE ENERGY PREDICTED BY IDOCK:   -5.14 KCAL/MOL
REMARK 922        TOTAL FREE ENERGY PREDICTED BY IDOCK:  -10.33 KCAL/MOL
REMARK 923 INTER-LIGAND FREE ENERGY PREDICTED BY IDOCK:   -9.09 KCAL/MOL
REMARK 924 INTRA-LIGAND FREE ENERGY PREDICTED BY IDOCK:   -1.24 KCAL/MOL
REMARK 927      BINDING AFFINITY PREDICTED BY RF-SCORE:    0.00 PKD
ROOT
HETATM    1  C   UNL     1      -9.068  11.208  62.539  1.00  0.00    -0.347 C  
HETATM    2  C   UNL     1      -8.533   9.972  63.289  1.00  0.00    -0.183 C  
HETATM    3  C   UNL     1      -8.675   8.749  62.376  1.00  0.00    -0.150 C  
HETATM    4  C   UNL     1      -7.050  10.210  63.616  1.00  0.00    -0.110 C  
ENDROOT
BRANCH   2   5
HETATM    5  C   UNL     1      -9.324   9.807  64.597  1.00  0.00    -0.256 C  
HETATM    6  O   UNL     1     -10.458  10.247  64.758  1.00  0.00    -0.200 OA 
BRANCH   5   7
HETATM    7  O   UNL     1      -8.599   9.214  65.587  1.00  0.00    -0.139 OA 
BRANCH   7   8
HETATM    8  C   UNL     1      -9.338   8.259  66.373  1.00  0.00    -0.213 C  
BRANCH   8   9
HETATM    9  O   UNL     1      -9.993   8.829  67.502  1.00  0.00    -0.171 OA 
HETATM   10  P   UNL     1      -9.022   9.168  68.765  1.00  0.00    -0.137 P  
HETATM   11  C   UNL     1      -7.876  10.424  68.147  1.00  0.00    -0.108 C  
HETATM   12  O   UNL     1      -8.389   7.962  69.380  1.00  0.00    -0.128 OA 
HETATM   13  O   UNL     1      -9.890  10.092  69.757  1.00  0.00    -0.227 OA 
BRANCH  13  14
HETATM   14  C   UNL     1     -10.887   9.592  70.601  1.00  0.00    -0.320 C  
BRANCH  14  15
HETATM   15  O   UNL     1     -10.287   9.151  71.843  1.00  0.00    -0.335 OA 
BRANCH  15  16
HETATM   16  C   UNL     1     -10.859   8.057  72.422  1.00  0.00    -0.327 C  
HETATM   17  O   UNL     1     -12.069   7.886  72.515  1.00  0.00    -0.315 OA 
BRANCH  16  18
HETATM   18  C   UNL     1      -9.809   7.061  72.959  1.00  0.00    -0.217 C  
HETATM   19  C   UNL     1     -10.283   6.490  74.311  1.00  0.00    -0.373 C  
HETATM   20  C   UNL     1      -8.467   7.770  73.180  1.00  0.00    -0.215 C  
HETATM   21  C   UNL     1      -9.623   5.887  71.987  1.00  0.00    -0.167 C  
ENDBRANCH  16  18
ENDBRANCH  15  16
ENDBRANCH  14  15
ENDBRANCH  13  14
BRANCH  11  22
HETATM   22  O   UNL     1      -8.722  11.486  67.700  1.00  0.00    -0.135 OA 
BRANCH  22  23
HETATM   23  C   UNL     1      -8.050  12.725  67.605  1.00  0.00    -0.175 C  
BRANCH  23  24
HETATM   24  C   UNL     1      -8.887  13.783  68.310  1.00  0.00    -0.185 C  
BRANCH  24  25
HETATM   25  N   UNL     1      -9.459  14.687  67.347  1.00  0.00    -0.198 NA 
HETATM   26  C   UNL     1     -10.576  14.434  66.609  1.00  0.00    -0.282 A  
HETATM   27  N   UNL     1     -11.443  13.418  66.753  1.00  0.00    -0.328 NA 
HETATM   28  H2  UNL     1     -10.794  16.180  63.101  1.00  0.00     0.000 HD 
HETATM   29  H1  UNL     1     -12.423  16.137  62.886  1.00  0.00     0.000 HD 
HETATM   30  C   UNL     1      -8.871  15.820  66.853  1.00  0.00    -0.245 A  
HETATM   31  N   UNL     1      -9.524  16.289  65.811  1.00  0.00    -0.477 NA 
HETATM   32  C   UNL     1     -10.580  15.412  65.632  1.00  0.00    -0.364 A  
HETATM   33  C   UNL     1     -11.590  15.326  64.663  1.00  0.00    -0.333 A  
HETATM   34  N   UNL     1     -11.688  16.199  63.591  1.00  0.00    -0.662 NA 
HETATM   35  N   UNL     1     -12.513  14.341  64.780  1.00  0.00    -0.608 NA 
HETATM   36  C   UNL     1     -12.391  13.460  65.798  1.00  0.00    -0.460 A  
ENDBRANCH  24  25
ENDBRANCH  23  24
ENDBRANCH  22  23
ENDBRANCH  11  22
ENDBRANCH   8   9
ENDBRANCH   7   8
ENDBRANCH   5   7
ENDBRANCH   2   5
TORSDOF 12
ENDMDL
MODEL      111
REMARK 921   NORMALIZED FREE ENERGY PREDICTED BY IDOCK:   -5.12 KCAL/MOL
REMARK 922        TOTAL FREE ENERGY PREDICTED BY IDOCK:  -10.31 KCAL/MOL
REMARK 923 INTER-LIGAND FREE ENERGY PREDICTED BY IDOCK:   -8.79 KCAL/MOL
REMARK 924 INTRA-LIGAND FREE ENERGY PREDICTED BY IDOCK:   -1.52 KCAL/MOL
REMARK 927      BINDING AFFINITY PREDICTED BY RF-SCORE:    0.00 PKD
ROOT
HETATM    1  C   UNL     1      -9.857  18.218  68.598  1.00  0.00    -0.400 C  
HETATM    2  C   UNL     1      -9.967  17.292  67.370  1.00  0.00    -0.278 C  
HETATM    3  C   UNL     1     -10.531  18.103  66.198  1.00  0.00    -0.377 C  
HETATM    4  C   UNL     1      -8.559  16.783  67.022  1.00  0.00    -0.233 C  
ENDROOT
BRANCH   2   5
HETATM    5  C   UNL     1     -10.867  16.099  67.729  1.00  0.00    -0.318 C  
HETATM    6  O   UNL     1     -11.425  15.980  68.816  1.00  0.00    -0.360 OA 
BRANCH   5   7
HETATM    7  O   UNL     1     -10.899  15.144  66.758  1.00  0.00    -0.314 OA 
BRANCH   7   8
HETATM    8  C   UNL     1     -11.930  14.154  66.932  1.00  0.00    -0.449 C  
BRANCH   8   9
HETATM    9  O   UNL     1     -11.542  12.844  66.529  1.00  0.00    -0.332 OA 
HETATM   10  P   UNL     1     -10.395  12.149  67.452  1.00  0.00    -0.210 P  
HETATM   11  C   UNL     1     -11.151  11.981  69.086  1.00  0.00    -0.215 C  
HETATM   12  O   UNL     1      -9.081  12.860  67.418  1.00  0.00    -0.180 OA 
HETATM   13  O   UNL     1     -10.368  10.595  67.031  1.00  0.00    -0.210 OA 
BRANCH  13  14
HETATM   14  C   UNL     1      -9.771  10.124  65.857  1.00  0.00    -0.232 C  
BRANCH  14  15
HETATM   15  O   UNL     1      -9.794   8.677  65.855  1.00  0.00    -0.192 OA 
BRANCH  15  16
HETATM   16  C   UNL     1      -8.955   8.068  66.740  1.00  0.00    -0.144 C  
HETATM   17  O   UNL     1      -7.801   8.428  66.947  1.00  0.00    -0.094 OA 
BRANCH  16  18
HETATM   18  C   UNL     1      -9.617   6.865  67.445  1.00  0.00    -0.163 C  
HETATM   19  C   UNL     1      -8.958   5.557  66.963  1.00  0.00    -0.113 C  
HETATM   20  C   UNL     1     -11.111   6.805  67.106  1.00  0.00    -0.404 C  
HETATM   21  C   UNL     1      -9.432   6.956  68.967  1.00  0.00    -0.137 C  
ENDBRANCH  16  18
ENDBRANCH  15  16
ENDBRANCH  14  15
ENDBRANCH  13  14
BRANCH  11  22
HETATM   22  O   UNL     1     -12.329  11.204  68.854  1.00  0.00    -0.512 OA 
BRANCH  22  23
HETATM   23  C   UNL     1     -12.653  10.354  69.935  1.00  0.00     0.007 C  
BRANCH  23  24
HETATM   24  C   UNL     1     -11.359   9.917  70.607  1.00  0.00    -0.339 C  
BRANCH  24  25
HETATM   25  N   UNL     1     -11.602   8.790  71.469  1.00  0.00    -0.281 NA 
HETATM   26  C   UNL     1     -10.670   8.209  72.274  1.00  0.00    -0.313 A  
HETATM   27  N   UNL     1      -9.437   8.660  72.561  1.00  0.00    -0.286 NA 
HETATM   28  H2  UNL     1     -11.147   4.390  73.041  1.00  0.00     0.000 HD 
HETATM   29  H1  UNL     1     -10.278   4.291  74.433  1.00  0.00     0.000 HD 
HETATM   30  C   UNL     1     -12.711   7.988  71.456  1.00  0.00    -0.307 A  
HETATM   31  N   UNL     1     -12.531   6.901  72.176  1.00  0.00    -0.220 NA 
HETATM   32  C   UNL     1     -11.244   7.016  72.672  1.00  0.00    -0.272 A  
HETATM   33  C   UNL     1     -10.444   6.164  73.447  1.00  0.00    -0.253 A  
HETATM   34  N   UNL     1     -10.860   4.911  73.870  1.00  0.00    -0.300 NA 
HETATM   35  N   UNL     1      -9.204   6.584  73.796  1.00  0.00    -0.136 NA 
HETATM   36  C   UNL     1      -8.778   7.785  73.344  1.00  0.00    -0.227 A  
ENDBRANCH  24  25
ENDBRANCH  23  24
ENDBRANCH  22  23
ENDBRANCH  11  22
ENDBRANCH   8   9
ENDBRANCH   7   8
ENDBRANCH   5   7
ENDBRANCH   2   5
TORSDOF 12
ENDMDL
MODEL      112
REMARK 921   NORMALIZED FREE ENERGY PREDICTED BY IDOCK:   -5.12 KCAL/MOL
REMARK 922        TOTAL FREE ENERGY PREDICTED BY IDOCK:  -10.30 KCAL/MOL
REMARK 923 INTER-LIGAND FREE ENERGY PREDICTED BY IDOCK:   -8.79 KCAL/MOL
REMARK 924 INTRA-LIGAND FREE ENERGY PREDICTED BY IDOCK:   -1.51 KCAL/MOL
REMARK 927      BINDING AFFINITY PREDICTED BY RF-SCORE:    0.00 PKD
ROOT
HETATM    1  C   UNL     1      -9.538   4.680  68.447  1.00  0.00    -0.212 C  
HETATM    2  C   UNL     1      -9.918   5.831  69.400  1.00  0.00    -0.244 C  
HETATM    3  C   UNL     1     -11.288   6.377  68.983  1.00  0.00    -0.332 C  
HETATM    4  C   UNL     1      -9.993   5.269  70.828  1.00  0.00    -0.279 C  
ENDROOT
BRANCH   2   5
HETATM    5  C   UNL     1      -8.825   6.909  69.332  1.00  0.00    -0.136 C  
HETATM    6  O   UNL     1      -8.532   7.632  70.280  1.00  0.00    -0.130 OA 
BRANCH   5   7
HETATM    7  O   UNL     1      -8.288   7.047  68.087  1.00  0.00    -0.121 OA 
BRANCH   7   8
HETATM    8  C   UNL     1      -8.860   8.115  67.308  1.00  0.00    -0.130 C  
BRANCH   8   9
HETATM    9  O   UNL     1      -8.409   9.410  67.692  1.00  0.00    -0.117 OA 
HETATM   10  P   UNL     1      -9.414  10.632  67.309  1.00  0.00    -0.160 P  
HETATM   11  C   UNL     1     -10.921  10.311  68.256  1.00  0.00    -0.264 C  
HETATM   12  O   UNL     1      -9.604  10.819  65.838  1.00  0.00    -0.190 OA 
HETATM   13  O   UNL     1      -8.882  11.917  68.120  1.00  0.00    -0.166 OA 
BRANCH  13  14
HETATM   14  C   UNL     1      -7.761  12.661  67.737  1.00  0.00    -0.145 C  
BRANCH  14  15
HETATM   15  O   UNL     1      -8.180  13.759  66.892  1.00  0.00    -0.097 OA 
BRANCH  15  16
HETATM   16  C   UNL     1      -8.548  14.900  67.541  1.00  0.00    -0.184 C  
HETATM   17  O   UNL     1      -8.351  15.103  68.734  1.00  0.00    -0.153 OA 
BRANCH  16  18
HETATM   18  C   UNL     1      -9.249  15.908  66.606  1.00  0.00    -0.280 C  
HETATM   19  C   UNL     1     -10.342  16.664  67.388  1.00  0.00    -0.292 C  
HETATM   20  C   UNL     1      -9.916  15.173  65.436  1.00  0.00    -0.365 C  
HETATM   21  C   UNL     1      -8.249  16.942  66.068  1.00  0.00    -0.178 C  
ENDBRANCH  16  18
ENDBRANCH  15  16
ENDBRANCH  14  15
ENDBRANCH  13  14
BRANCH  11  22
HETATM   22  O   UNL     1     -10.481  10.259  69.616  1.00  0.00    -0.226 OA 
BRANCH  22  23
HETATM   23  C   UNL     1     -11.445  10.743  70.528  1.00  0.00    -0.275 C  
BRANCH  23  24
HETATM   24  C   UNL     1     -12.213  11.875  69.861  1.00  0.00    -0.199 C  
BRANCH  24  25
HETATM   25  N   UNL     1     -12.687  12.806  70.851  1.00  0.00    -0.248 NA 
HETATM   26  C   UNL     1     -12.200  14.065  71.033  1.00  0.00    -0.353 A  
HETATM   27  N   UNL     1     -11.347  14.738  70.242  1.00  0.00    -0.250 NA 
HETATM   28  H2  UNL     1     -12.445  15.535  74.664  1.00  0.00     0.000 HD 
HETATM   29  H1  UNL     1     -12.370  17.138  74.304  1.00  0.00     0.000 HD 
HETATM   30  C   UNL     1     -13.519  12.517  71.899  1.00  0.00    -0.296 A  
HETATM   31  N   UNL     1     -13.564  13.505  72.768  1.00  0.00    -0.671 NA 
HETATM   32  C   UNL     1     -12.719  14.470  72.248  1.00  0.00    -0.328 A  
HETATM   33  C   UNL     1     -12.292  15.717  72.728  1.00  0.00    -0.463 A  
HETATM   34  N   UNL     1     -12.680  16.231  73.956  1.00  0.00    -0.714 NA 
HETATM   35  N   UNL     1     -11.459  16.455  71.954  1.00  0.00    -0.272 NA 
HETATM   36  C   UNL     1     -11.041  15.935  70.778  1.00  0.00    -0.322 A  
ENDBRANCH  24  25
ENDBRANCH  23  24
ENDBRANCH  22  23
ENDBRANCH  11  22
ENDBRANCH   8   9
ENDBRANCH   7   8
ENDBRANCH   5   7
ENDBRANCH   2   5
TORSDOF 12
ENDMDL
MODEL      113
REMARK 921   NORMALIZED FREE ENERGY PREDICTED BY IDOCK:   -5.11 KCAL/MOL
REMARK 922        TOTAL FREE ENERGY PREDICTED BY IDOCK:  -10.30 KCAL/MOL
REMARK 923 INTER-LIGAND FREE ENERGY PREDICTED BY IDOCK:   -9.08 KCAL/MOL
REMARK 924 INTRA-LIGAND FREE ENERGY PREDICTED BY IDOCK:   -1.22 KCAL/MOL
REMARK 927      BINDING AFFINITY PREDICTED BY RF-SCORE:    0.00 PKD
ROOT
HETATM    1  C   UNL     1      -8.154   8.000  63.853  1.00  0.00    -0.097 C  
HETATM    2  C   UNL     1      -7.832   6.919  64.904  1.00  0.00    -0.122 C  
HETATM    3  C   UNL     1      -8.314   5.564  64.372  1.00  0.00    -0.115 C  
HETATM    4  C   UNL     1      -6.310   6.885  65.112  1.00  0.00    -0.039 C  
ENDROOT
BRANCH   2   5
HETATM    5  C   UNL     1      -8.521   7.294  66.226  1.00  0.00    -0.134 C  
HETATM    6  O   UNL     1      -9.577   7.917  66.282  1.00  0.00    -0.195 OA 
BRANCH   5   7
HETATM    7  O   UNL     1      -7.789   6.953  67.324  1.00  0.00    -0.106 OA 
BRANCH   7   8
HETATM    8  C   UNL     1      -7.541   8.042  68.234  1.00  0.00    -0.109 C  
BRANCH   8   9
HETATM    9  O   UNL     1      -8.337   7.995  69.415  1.00  0.00    -0.127 OA 
HETATM   10  P   UNL     1      -8.347   9.364  70.295  1.00  0.00    -0.198 P  
HETATM   11  C   UNL     1      -9.101  10.605  69.216  1.00  0.00    -0.100 C  
HETATM   12  O   UNL     1      -7.013   9.727  70.863  1.00  0.00    -0.277 OA 
HETATM   13  O   UNL     1      -9.545   9.200  71.358  1.00  0.00    -0.286 OA 
BRANCH  13  14
HETATM   14  C   UNL     1      -9.452   8.410  72.508  1.00  0.00    -0.289 C  
BRANCH  14  15
HETATM   15  O   UNL     1     -10.783   8.113  72.994  1.00  0.00    -0.332 OA 
BRANCH  15  16
HETATM   16  C   UNL     1     -11.794   8.280  72.095  1.00  0.00    -0.369 C  
HETATM   17  O   UNL     1     -12.286   9.366  71.812  1.00  0.00    -0.353 OA 
BRANCH  16  18
HETATM   18  C   UNL     1     -12.260   6.942  71.480  1.00  0.00    -0.415 C  
HETATM   19  C   UNL     1     -13.801   6.909  71.424  1.00  0.00    -0.224 C  
HETATM   20  C   UNL     1     -11.783   5.766  72.341  1.00  0.00    -0.281 C  
HETATM   21  C   UNL     1     -11.730   6.787  70.047  1.00  0.00    -0.330 C  
ENDBRANCH  16  18
ENDBRANCH  15  16
ENDBRANCH  14  15
ENDBRANCH  13  14
BRANCH  11  22
HETATM   22  O   UNL     1     -10.381  10.058  68.887  1.00  0.00    -0.182 OA 
BRANCH  22  23
HETATM   23  C   UNL     1     -10.990  10.702  67.787  1.00  0.00    -0.306 C  
BRANCH  23  24
HETATM   24  C   UNL     1      -9.924  11.488  67.037  1.00  0.00    -0.200 C  
BRANCH  24  25
HETATM   25  N   UNL     1     -10.530  12.297  66.013  1.00  0.00    -0.247 NA 
HETATM   26  C   UNL     1     -10.275  13.619  65.811  1.00  0.00    -0.308 A  
HETATM   27  N   UNL     1      -9.312  14.365  66.377  1.00  0.00    -0.278 NA 
HETATM   28  H2  UNL     1     -13.180  15.749  64.253  1.00  0.00     0.000 HD 
HETATM   29  H1  UNL     1     -12.294  16.988  63.632  1.00  0.00     0.000 HD 
HETATM   30  C   UNL     1     -11.604  11.948  65.238  1.00  0.00    -0.216 A  
HETATM   31  N   UNL     1     -12.081  12.982  64.579  1.00  0.00    -0.387 NA 
HETATM   32  C   UNL     1     -11.272  14.042  64.952  1.00  0.00    -0.362 A  
HETATM   33  C   UNL     1     -11.300  15.411  64.650  1.00  0.00    -0.355 A  
HETATM   34  N   UNL     1     -12.274  15.992  63.852  1.00  0.00    -0.803 NA 
HETATM   35  N   UNL     1     -10.331  16.206  65.166  1.00  0.00    -0.584 NA 
HETATM   36  C   UNL     1      -9.409  15.650  65.983  1.00  0.00    -0.349 A  
ENDBRANCH  24  25
ENDBRANCH  23  24
ENDBRANCH  22  23
ENDBRANCH  11  22
ENDBRANCH   8   9
ENDBRANCH   7   8
ENDBRANCH   5   7
ENDBRANCH   2   5
TORSDOF 12
ENDMDL
MODEL      114
REMARK 921   NORMALIZED FREE ENERGY PREDICTED BY IDOCK:   -5.11 KCAL/MOL
REMARK 922        TOTAL FREE ENERGY PREDICTED BY IDOCK:  -10.29 KCAL/MOL
REMARK 923 INTER-LIGAND FREE ENERGY PREDICTED BY IDOCK:   -8.87 KCAL/MOL
REMARK 924 INTRA-LIGAND FREE ENERGY PREDICTED BY IDOCK:   -1.42 KCAL/MOL
REMARK 927      BINDING AFFINITY PREDICTED BY RF-SCORE:    0.00 PKD
ROOT
HETATM    1  C   UNL     1     -11.619   8.983  71.523  1.00  0.00    -0.413 C  
HETATM    2  C   UNL     1     -10.475   8.008  71.861  1.00  0.00    -0.296 C  
HETATM    3  C   UNL     1     -10.561   7.654  73.351  1.00  0.00    -0.353 C  
HETATM    4  C   UNL     1     -10.654   6.739  71.013  1.00  0.00    -0.252 C  
ENDROOT
BRANCH   2   5
HETATM    5  C   UNL     1      -9.136   8.675  71.506  1.00  0.00    -0.239 C  
HETATM    6  O   UNL     1      -8.090   8.446  72.106  1.00  0.00    -0.135 OA 
BRANCH   5   7
HETATM    7  O   UNL     1      -9.252   9.617  70.528  1.00  0.00    -0.249 OA 
BRANCH   7   8
HETATM    8  C   UNL     1      -7.998  10.052  69.971  1.00  0.00    -0.150 C  
BRANCH   8   9
HETATM    9  O   UNL     1      -7.985  10.091  68.547  1.00  0.00    -0.097 OA 
HETATM   10  P   UNL     1      -9.022  11.151  67.876  1.00  0.00    -0.153 P  
HETATM   11  C   UNL     1      -8.459  12.775  68.440  1.00  0.00    -0.115 C  
HETATM   12  O   UNL     1     -10.460  10.839  68.141  1.00  0.00    -0.169 OA 
HETATM   13  O   UNL     1      -8.599  11.267  66.327  1.00  0.00    -0.175 OA 
BRANCH  13  14
HETATM   14  C   UNL     1      -8.905  10.295  65.369  1.00  0.00    -0.172 C  
BRANCH  14  15
HETATM   15  O   UNL     1     -10.188  10.598  64.771  1.00  0.00    -0.325 OA 
BRANCH  15  16
HETATM   16  C   UNL     1     -10.211  11.667  63.925  1.00  0.00    -0.365 C  
HETATM   17  O   UNL     1      -9.512  11.762  62.923  1.00  0.00    -0.364 OA 
BRANCH  16  18
HETATM   18  C   UNL     1     -11.210  12.754  64.378  1.00  0.00    -0.390 C  
HETATM   19  C   UNL     1     -10.439  14.020  64.802  1.00  0.00    -0.445 C  
HETATM   20  C   UNL     1     -12.024  12.260  65.582  1.00  0.00    -0.373 C  
HETATM   21  C   UNL     1     -12.158  13.136  63.232  1.00  0.00    -0.460 C  
ENDBRANCH  16  18
ENDBRANCH  15  16
ENDBRANCH  14  15
ENDBRANCH  13  14
BRANCH  11  22
HETATM   22  O   UNL     1      -7.102  12.853  67.995  1.00  0.00    -0.086 OA 
BRANCH  22  23
HETATM   23  C   UNL     1      -6.684  14.176  67.727  1.00  0.00    -0.177 C  
BRANCH  23  24
HETATM   24  C   UNL     1      -7.643  15.134  68.419  1.00  0.00    -0.117 C  
BRANCH  24  25
HETATM   25  N   UNL     1      -7.846  16.306  67.609  1.00  0.00    -0.140 NA 
HETATM   26  C   UNL     1      -8.778  17.269  67.852  1.00  0.00    -0.231 A  
HETATM   27  N   UNL     1      -9.540  17.417  68.948  1.00  0.00    -0.255 NA 
HETATM   28  H2  UNL     1     -10.153  19.208  64.729  1.00  0.00     0.000 HD 
HETATM   29  H1  UNL     1     -10.682  20.573  65.478  1.00  0.00     0.000 HD 
HETATM   30  C   UNL     1      -7.314  16.533  66.368  1.00  0.00    -0.109 A  
HETATM   31  N   UNL     1      -7.881  17.565  65.780  1.00  0.00    -0.518 NA 
HETATM   32  C   UNL     1      -8.820  18.018  66.691  1.00  0.00    -0.266 A  
HETATM   33  C   UNL     1      -9.782  19.037  66.636  1.00  0.00    -0.341 A  
HETATM   34  N   UNL     1      -9.982  19.831  65.518  1.00  0.00    -0.315 NA 
HETATM   35  N   UNL     1     -10.555  19.253  67.728  1.00  0.00    -0.425 NA 
HETATM   36  C   UNL     1     -10.393  18.448  68.802  1.00  0.00    -0.197 A  
ENDBRANCH  24  25
ENDBRANCH  23  24
ENDBRANCH  22  23
ENDBRANCH  11  22
ENDBRANCH   8   9
ENDBRANCH   7   8
ENDBRANCH   5   7
ENDBRANCH   2   5
TORSDOF 12
ENDMDL
MODEL      115
REMARK 921   NORMALIZED FREE ENERGY PREDICTED BY IDOCK:   -5.11 KCAL/MOL
REMARK 922        TOTAL FREE ENERGY PREDICTED BY IDOCK:  -10.29 KCAL/MOL
REMARK 923 INTER-LIGAND FREE ENERGY PREDICTED BY IDOCK:   -9.17 KCAL/MOL
REMARK 924 INTRA-LIGAND FREE ENERGY PREDICTED BY IDOCK:   -1.12 KCAL/MOL
REMARK 927      BINDING AFFINITY PREDICTED BY RF-SCORE:    0.00 PKD
ROOT
HETATM    1  C   UNL     1     -13.164  13.333  72.206  1.00  0.00    -0.567 C  
HETATM    2  C   UNL     1     -13.008  14.865  72.276  1.00  0.00    -0.423 C  
HETATM    3  C   UNL     1     -14.398  15.488  72.449  1.00  0.00    -0.475 C  
HETATM    4  C   UNL     1     -12.130  15.206  73.490  1.00  0.00    -0.558 C  
ENDROOT
BRANCH   2   5
HETATM    5  C   UNL     1     -12.317  15.350  70.993  1.00  0.00    -0.392 C  
HETATM    6  O   UNL     1     -12.906  15.944  70.094  1.00  0.00    -0.285 OA 
BRANCH   5   7
HETATM    7  O   UNL     1     -11.011  14.967  70.912  1.00  0.00    -0.237 OA 
BRANCH   7   8
HETATM    8  C   UNL     1     -10.689  14.199  69.738  1.00  0.00     0.134 C  
BRANCH   8   9
HETATM    9  O   UNL     1     -10.536  14.987  68.561  1.00  0.00    -0.226 OA 
HETATM   10  P   UNL     1      -8.997  15.271  68.115  1.00  0.00    -0.181 P  
HETATM   11  C   UNL     1      -8.314  13.639  67.734  1.00  0.00    -0.181 C  
HETATM   12  O   UNL     1      -8.222  16.080  69.104  1.00  0.00    -0.226 OA 
HETATM   13  O   UNL     1      -9.069  15.863  66.620  1.00  0.00    -0.215 OA 
BRANCH  13  14
HETATM   14  C   UNL     1      -9.441  17.180  66.329  1.00  0.00    -0.243 C  
BRANCH  14  15
HETATM   15  O   UNL     1      -8.659  18.089  67.139  1.00  0.00    -0.231 OA 
BRANCH  15  16
HETATM   16  C   UNL     1      -7.457  18.466  66.616  1.00  0.00    -0.229 C  
HETATM   17  O   UNL     1      -7.011  18.044  65.555  1.00  0.00    -0.486 OA 
BRANCH  16  18
HETATM   18  C   UNL     1      -6.715  19.477  67.516  1.00  0.00    -0.234 C  
HETATM   19  C   UNL     1      -5.195  19.350  67.291  1.00  0.00    -0.162 C  
HETATM   20  C   UNL     1      -7.008  19.189  68.994  1.00  0.00    -0.371 C  
HETATM   21  C   UNL     1      -7.127  20.917  67.175  1.00  0.00    -0.413 C  
ENDBRANCH  16  18
ENDBRANCH  15  16
ENDBRANCH  14  15
ENDBRANCH  13  14
BRANCH  11  22
HETATM   22  O   UNL     1      -9.179  13.121  66.720  1.00  0.00    -0.233 OA 
BRANCH  22  23
HETATM   23  C   UNL     1      -8.836  11.811  66.318  1.00  0.00    -0.142 C  
BRANCH  23  24
HETATM   24  C   UNL     1     -10.068  10.927  66.454  1.00  0.00    -0.231 C  
BRANCH  24  25
HETATM   25  N   UNL     1      -9.985  10.142  67.657  1.00  0.00    -0.174 NA 
HETATM   26  C   UNL     1     -10.902  10.163  68.665  1.00  0.00    -0.235 A  
HETATM   27  N   UNL     1     -12.111  10.749  68.664  1.00  0.00    -0.450 NA 
HETATM   28  H2  UNL     1      -9.570   9.351  72.266  1.00  0.00     0.000 HD 
HETATM   29  H1  UNL     1     -10.980   8.878  72.967  1.00  0.00     0.000 HD 
HETATM   30  C   UNL     1      -8.894   9.438  68.090  1.00  0.00    -0.124 A  
HETATM   31  N   UNL     1      -9.039   9.038  69.335  1.00  0.00    -0.143 NA 
HETATM   32  C   UNL     1     -10.284   9.510  69.715  1.00  0.00    -0.228 A  
HETATM   33  C   UNL     1     -10.985   9.472  70.929  1.00  0.00    -0.337 A  
HETATM   34  N   UNL     1     -10.469   8.906  72.085  1.00  0.00    -0.317 NA 
HETATM   35  N   UNL     1     -12.225  10.017  70.975  1.00  0.00    -0.338 NA 
HETATM   36  C   UNL     1     -12.709  10.613  69.862  1.00  0.00    -0.015 A  
ENDBRANCH  24  25
ENDBRANCH  23  24
ENDBRANCH  22  23
ENDBRANCH  11  22
ENDBRANCH   8   9
ENDBRANCH   7   8
ENDBRANCH   5   7
ENDBRANCH   2   5
TORSDOF 12
ENDMDL
MODEL      116
REMARK 921   NORMALIZED FREE ENERGY PREDICTED BY IDOCK:   -5.10 KCAL/MOL
REMARK 922        TOTAL FREE ENERGY PREDICTED BY IDOCK:  -10.28 KCAL/MOL
REMARK 923 INTER-LIGAND FREE ENERGY PREDICTED BY IDOCK:   -8.14 KCAL/MOL
REMARK 924 INTRA-LIGAND FREE ENERGY PREDICTED BY IDOCK:   -2.14 KCAL/MOL
REMARK 927      BINDING AFFINITY PREDICTED BY RF-SCORE:    0.00 PKD
ROOT
HETATM    1  C   UNL     1     -10.778   5.440  66.544  1.00  0.00    -0.309 C  
HETATM    2  C   UNL     1      -9.483   4.605  66.506  1.00  0.00    -0.171 C  
HETATM    3  C   UNL     1      -9.391   3.789  67.801  1.00  0.00    -0.237 C  
HETATM    4  C   UNL     1      -9.555   3.657  65.298  1.00  0.00    -0.160 C  
ENDROOT
BRANCH   2   5
HETATM    5  C   UNL     1      -8.287   5.555  66.340  1.00  0.00    -0.111 C  
HETATM    6  O   UNL     1      -7.414   5.695  67.192  1.00  0.00    -0.082 OA 
BRANCH   5   7
HETATM    7  O   UNL     1      -8.349   6.296  65.198  1.00  0.00    -0.142 OA 
BRANCH   7   8
HETATM    8  C   UNL     1      -7.964   7.674  65.363  1.00  0.00    -0.123 C  
BRANCH   8   9
HETATM    9  O   UNL     1      -8.804   8.402  66.254  1.00  0.00    -0.140 OA 
HETATM   10  P   UNL     1      -8.479   9.993  66.365  1.00  0.00    -0.133 P  
HETATM   11  C   UNL     1      -8.796  10.649  64.709  1.00  0.00    -0.182 C  
HETATM   12  O   UNL     1      -7.129  10.296  66.931  1.00  0.00    -0.087 OA 
HETATM   13  O   UNL     1      -9.731  10.650  67.134  1.00  0.00    -0.166 OA 
BRANCH  13  14
HETATM   14  C   UNL     1      -9.926  10.551  68.516  1.00  0.00    -0.170 C  
BRANCH  14  15
HETATM   15  O   UNL     1     -10.951   9.566  68.786  1.00  0.00    -0.181 OA 
BRANCH  15  16
HETATM   16  C   UNL     1     -10.570   8.508  69.557  1.00  0.00    -0.211 C  
HETATM   17  O   UNL     1      -9.856   7.594  69.161  1.00  0.00    -0.166 OA 
BRANCH  16  18
HETATM   18  C   UNL     1     -11.149   8.586  70.986  1.00  0.00    -0.306 C  
HETATM   19  C   UNL     1     -10.001   8.770  71.999  1.00  0.00    -0.391 C  
HETATM   20  C   UNL     1     -11.891   7.288  71.331  1.00  0.00    -0.338 C  
HETATM   21  C   UNL     1     -12.102   9.782  71.126  1.00  0.00    -0.460 C  
ENDBRANCH  16  18
ENDBRANCH  15  16
ENDBRANCH  14  15
ENDBRANCH  13  14
BRANCH  11  22
HETATM   22  O   UNL     1     -10.157  10.300  64.444  1.00  0.00    -0.324 OA 
BRANCH  22  23
HETATM   23  C   UNL     1     -10.809  11.222  63.595  1.00  0.00    -0.333 C  
BRANCH  23  24
HETATM   24  C   UNL     1     -10.276  12.616  63.898  1.00  0.00    -0.315 C  
BRANCH  24  25
HETATM   25  N   UNL     1     -11.031  13.215  64.968  1.00  0.00    -0.293 NA 
HETATM   26  C   UNL     1     -10.494  13.703  66.120  1.00  0.00    -0.297 A  
HETATM   27  N   UNL     1      -9.195  13.891  66.406  1.00  0.00    -0.205 NA 
HETATM   28  H2  UNL     1     -12.790  13.613  69.302  1.00  0.00     0.000 HD 
HETATM   29  H1  UNL     1     -12.058  14.788  70.188  1.00  0.00     0.000 HD 
HETATM   30  C   UNL     1     -12.391  13.187  65.111  1.00  0.00    -0.473 A  
HETATM   31  N   UNL     1     -12.761  13.593  66.307  1.00  0.00    -0.279 NA 
HETATM   32  C   UNL     1     -11.576  13.894  66.958  1.00  0.00    -0.369 A  
HETATM   33  C   UNL     1     -11.291  14.310  68.267  1.00  0.00    -0.289 A  
HETATM   34  N   UNL     1     -12.266  14.485  69.236  1.00  0.00    -0.273 NA 
HETATM   35  N   UNL     1      -9.999  14.549  68.600  1.00  0.00    -0.233 NA 
HETATM   36  C   UNL     1      -9.042  14.331  67.670  1.00  0.00    -0.192 A  
ENDBRANCH  24  25
ENDBRANCH  23  24
ENDBRANCH  22  23
ENDBRANCH  11  22
ENDBRANCH   8   9
ENDBRANCH   7   8
ENDBRANCH   5   7
ENDBRANCH   2   5
TORSDOF 12
ENDMDL
MODEL      117
REMARK 921   NORMALIZED FREE ENERGY PREDICTED BY IDOCK:   -5.10 KCAL/MOL
REMARK 922        TOTAL FREE ENERGY PREDICTED BY IDOCK:  -10.27 KCAL/MOL
REMARK 923 INTER-LIGAND FREE ENERGY PREDICTED BY IDOCK:   -8.73 KCAL/MOL
REMARK 924 INTRA-LIGAND FREE ENERGY PREDICTED BY IDOCK:   -1.54 KCAL/MOL
REMARK 927      BINDING AFFINITY PREDICTED BY RF-SCORE:    0.00 PKD
ROOT
HETATM    1  C   UNL     1     -12.760   9.195  71.690  1.00  0.00    -0.429 C  
HETATM    2  C   UNL     1     -11.440   8.425  71.499  1.00  0.00    -0.335 C  
HETATM    3  C   UNL     1     -10.980   7.900  72.864  1.00  0.00    -0.452 C  
HETATM    4  C   UNL     1     -11.701   7.246  70.548  1.00  0.00    -0.264 C  
ENDROOT
BRANCH   2   5
HETATM    5  C   UNL     1     -10.403   9.369  70.868  1.00  0.00    -0.310 C  
HETATM    6  O   UNL     1      -9.194   9.253  71.042  1.00  0.00    -0.246 OA 
BRANCH   5   7
HETATM    7  O   UNL     1     -10.970  10.402  70.183  1.00  0.00    -0.284 OA 
BRANCH   7   8
HETATM    8  C   UNL     1     -10.228  10.823  69.023  1.00  0.00    -0.213 C  
BRANCH   8   9
HETATM    9  O   UNL     1     -10.770  11.974  68.382  1.00  0.00    -0.211 OA 
HETATM   10  P   UNL     1      -9.687  12.901  67.596  1.00  0.00    -0.226 P  
HETATM   11  C   UNL     1      -9.033  11.841  66.284  1.00  0.00    -0.176 C  
HETATM   12  O   UNL     1      -8.666  13.526  68.490  1.00  0.00    -0.160 OA 
HETATM   13  O   UNL     1     -10.546  13.916  66.689  1.00  0.00    -0.272 OA 
BRANCH  13  14
HETATM   14  C   UNL     1     -11.202  15.040  67.200  1.00  0.00    -0.336 C  
BRANCH  14  15
HETATM   15  O   UNL     1     -10.368  16.208  67.012  1.00  0.00    -0.281 OA 
BRANCH  15  16
HETATM   16  C   UNL     1     -10.406  17.132  68.014  1.00  0.00    -0.353 C  
HETATM   17  O   UNL     1     -10.842  16.906  69.137  1.00  0.00    -0.312 OA 
BRANCH  16  18
HETATM   18  C   UNL     1      -9.848  18.502  67.571  1.00  0.00    -0.330 C  
HETATM   19  C   UNL     1      -8.354  18.360  67.215  1.00  0.00    -0.251 C  
HETATM   20  C   UNL     1      -9.977  19.522  68.709  1.00  0.00    -0.547 C  
HETATM   21  C   UNL     1     -10.586  19.016  66.326  1.00  0.00    -0.493 C  
ENDBRANCH  16  18
ENDBRANCH  15  16
ENDBRANCH  14  15
ENDBRANCH  13  14
BRANCH  11  22
HETATM   22  O   UNL     1     -10.188  11.449  65.536  1.00  0.00    -0.242 OA 
BRANCH  22  23
HETATM   23  C   UNL     1     -10.132  10.108  65.096  1.00  0.00    -0.259 C  
BRANCH  23  24
HETATM   24  C   UNL     1      -8.907   9.448  65.715  1.00  0.00    -0.171 C  
BRANCH  24  25
HETATM   25  N   UNL     1      -9.279   8.217  66.360  1.00  0.00    -0.187 NA 
HETATM   26  C   UNL     1      -8.512   7.091  66.391  1.00  0.00    -0.130 A  
HETATM   27  N   UNL     1      -7.232   6.959  66.006  1.00  0.00    -0.072 NA 
HETATM   28  H2  UNL     1     -10.423   3.672  66.637  1.00  0.00     0.000 HD 
HETATM   29  H1  UNL     1      -9.219   2.742  67.260  1.00  0.00     0.000 HD 
HETATM   30  C   UNL     1     -10.521   7.898  66.838  1.00  0.00    -0.318 A  
HETATM   31  N   UNL     1     -10.611   6.619  67.137  1.00  0.00    -0.287 NA 
HETATM   32  C   UNL     1      -9.365   6.098  66.835  1.00  0.00    -0.134 A  
HETATM   33  C   UNL     1      -8.846   4.796  66.869  1.00  0.00    -0.110 A  
HETATM   34  N   UNL     1      -9.597   3.689  67.235  1.00  0.00    -0.199 NA 
HETATM   35  N   UNL     1      -7.548   4.609  66.525  1.00  0.00    -0.086 NA 
HETATM   36  C   UNL     1      -6.828   5.680  66.122  1.00  0.00    -0.058 A  
ENDBRANCH  24  25
ENDBRANCH  23  24
ENDBRANCH  22  23
ENDBRANCH  11  22
ENDBRANCH   8   9
ENDBRANCH   7   8
ENDBRANCH   5   7
ENDBRANCH   2   5
TORSDOF 12
ENDMDL
MODEL      118
REMARK 921   NORMALIZED FREE ENERGY PREDICTED BY IDOCK:   -5.10 KCAL/MOL
REMARK 922        TOTAL FREE ENERGY PREDICTED BY IDOCK:  -10.27 KCAL/MOL
REMARK 923 INTER-LIGAND FREE ENERGY PREDICTED BY IDOCK:   -9.20 KCAL/MOL
REMARK 924 INTRA-LIGAND FREE ENERGY PREDICTED BY IDOCK:   -1.06 KCAL/MOL
REMARK 927      BINDING AFFINITY PREDICTED BY RF-SCORE:    0.00 PKD
ROOT
HETATM    1  C   UNL     1     -12.129  15.164  72.876  1.00  0.00    -0.480 C  
HETATM    2  C   UNL     1     -12.985  14.826  71.640  1.00  0.00    -0.411 C  
HETATM    3  C   UNL     1     -14.387  15.412  71.843  1.00  0.00    -0.649 C  
HETATM    4  C   UNL     1     -12.327  15.466  70.408  1.00  0.00    -0.443 C  
ENDROOT
BRANCH   2   5
HETATM    5  C   UNL     1     -13.020  13.300  71.466  1.00  0.00    -0.337 C  
HETATM    6  O   UNL     1     -13.586  12.545  72.251  1.00  0.00    -0.530 OA 
BRANCH   5   7
HETATM    7  O   UNL     1     -12.276  12.866  70.409  1.00  0.00    -0.354 OA 
BRANCH   7   8
HETATM    8  C   UNL     1     -12.241  11.435  70.256  1.00  0.00    -0.349 C  
BRANCH   8   9
HETATM    9  O   UNL     1     -11.960  11.007  68.926  1.00  0.00    -0.403 OA 
HETATM   10  P   UNL     1     -10.385  10.762  68.598  1.00  0.00    -0.216 P  
HETATM   11  C   UNL     1      -9.887   9.407  69.689  1.00  0.00    -0.193 C  
HETATM   12  O   UNL     1      -9.551  11.999  68.683  1.00  0.00    -0.175 OA 
HETATM   13  O   UNL     1     -10.341   9.976  67.194  1.00  0.00    -0.214 OA 
BRANCH  13  14
HETATM   14  C   UNL     1     -10.546  10.595  65.957  1.00  0.00    -0.125 C  
BRANCH  14  15
HETATM   15  O   UNL     1     -10.173  11.990  66.051  1.00  0.00    -0.215 OA 
BRANCH  15  16
HETATM   16  C   UNL     1     -10.732  12.818  65.123  1.00  0.00    -0.294 C  
HETATM   17  O   UNL     1     -11.018  12.474  63.982  1.00  0.00    -0.337 OA 
BRANCH  16  18
HETATM   18  C   UNL     1     -10.957  14.245  65.669  1.00  0.00    -0.309 C  
HETATM   19  C   UNL     1     -11.636  15.110  64.587  1.00  0.00    -0.357 C  
HETATM   20  C   UNL     1      -9.615  14.894  66.031  1.00  0.00    -0.346 C  
HETATM   21  C   UNL     1     -11.872  14.221  66.901  1.00  0.00    -0.458 C  
ENDBRANCH  16  18
ENDBRANCH  15  16
ENDBRANCH  14  15
ENDBRANCH  13  14
BRANCH  11  22
HETATM   22  O   UNL     1     -10.775   8.338  69.354  1.00  0.00    -0.221 OA 
BRANCH  22  23
HETATM   23  C   UNL     1     -11.279   7.662  70.488  1.00  0.00    -0.261 C  
BRANCH  23  24
HETATM   24  C   UNL     1     -11.380   6.179  70.160  1.00  0.00    -0.363 C  
BRANCH  24  25
HETATM   25  N   UNL     1     -10.102   5.542  70.342  1.00  0.00    -0.212 NA 
HETATM   26  C   UNL     1      -9.648   5.032  71.521  1.00  0.00    -0.158 A  
HETATM   27  N   UNL     1     -10.337   4.857  72.661  1.00  0.00    -0.190 NA 
HETATM   28  H2  UNL     1      -5.757   5.007  72.038  1.00  0.00     0.000 HD 
HETATM   29  H1  UNL     1      -5.650   3.821  73.171  1.00  0.00     0.000 HD 
HETATM   30  C   UNL     1      -9.063   5.545  69.452  1.00  0.00    -0.112 A  
HETATM   31  N   UNL     1      -7.953   5.103  70.002  1.00  0.00    -0.081 NA 
HETATM   32  C   UNL     1      -8.301   4.804  71.309  1.00  0.00    -0.106 A  
HETATM   33  C   UNL     1      -7.559   4.360  72.412  1.00  0.00    -0.079 A  
HETATM   34  N   UNL     1      -6.190   4.145  72.368  1.00  0.00    -0.019 NA 
HETATM   35  N   UNL     1      -8.210   4.132  73.578  1.00  0.00    -0.089 NA 
HETATM   36  C   UNL     1      -9.537   4.388  73.636  1.00  0.00    -0.115 A  
ENDBRANCH  24  25
ENDBRANCH  23  24
ENDBRANCH  22  23
ENDBRANCH  11  22
ENDBRANCH   8   9
ENDBRANCH   7   8
ENDBRANCH   5   7
ENDBRANCH   2   5
TORSDOF 12
ENDMDL
MODEL      119
REMARK 921   NORMALIZED FREE ENERGY PREDICTED BY IDOCK:   -5.08 KCAL/MOL
REMARK 922        TOTAL FREE ENERGY PREDICTED BY IDOCK:  -10.23 KCAL/MOL
REMARK 923 INTER-LIGAND FREE ENERGY PREDICTED BY IDOCK:   -8.37 KCAL/MOL
REMARK 924 INTRA-LIGAND FREE ENERGY PREDICTED BY IDOCK:   -1.86 KCAL/MOL
REMARK 927      BINDING AFFINITY PREDICTED BY RF-SCORE:    0.00 PKD
ROOT
HETATM    1  C   UNL     1      -9.362   4.002  67.755  1.00  0.00    -0.221 C  
HETATM    2  C   UNL     1      -9.612   4.764  66.439  1.00  0.00    -0.182 C  
HETATM    3  C   UNL     1      -9.641   3.752  65.288  1.00  0.00    -0.174 C  
HETATM    4  C   UNL     1     -10.972   5.473  66.543  1.00  0.00    -0.120 C  
ENDROOT
BRANCH   2   5
HETATM    5  C   UNL     1      -8.503   5.811  66.256  1.00  0.00    -0.126 C  
HETATM    6  O   UNL     1      -7.366   5.672  66.697  1.00  0.00    -0.080 OA 
BRANCH   5   7
HETATM    7  O   UNL     1      -8.938   6.948  65.643  1.00  0.00    -0.079 OA 
BRANCH   7   8
HETATM    8  C   UNL     1      -8.360   8.161  66.163  1.00  0.00    -0.126 C  
BRANCH   8   9
HETATM    9  O   UNL     1      -8.857   8.530  67.446  1.00  0.00    -0.132 OA 
HETATM   10  P   UNL     1      -7.953   9.620  68.249  1.00  0.00    -0.097 P  
HETATM   11  C   UNL     1      -8.009  11.112  67.228  1.00  0.00    -0.137 C  
HETATM   12  O   UNL     1      -6.587   9.129  68.601  1.00  0.00    -0.053 OA 
HETATM   13  O   UNL     1      -8.859  10.128  69.479  1.00  0.00    -0.185 OA 
BRANCH  13  14
HETATM   14  C   UNL     1      -9.069   9.382  70.642  1.00  0.00    -0.233 C  
BRANCH  14  15
HETATM   15  O   UNL     1     -10.308   8.643  70.521  1.00  0.00    -0.193 OA 
BRANCH  15  16
HETATM   16  C   UNL     1     -10.225   7.302  70.749  1.00  0.00    -0.197 C  
HETATM   17  O   UNL     1      -9.520   6.540  70.097  1.00  0.00    -0.157 OA 
BRANCH  16  18
HETATM   18  C   UNL     1     -11.127   6.847  71.916  1.00  0.00    -0.278 C  
HETATM   19  C   UNL     1     -10.873   7.743  73.145  1.00  0.00    -0.401 C  
HETATM   20  C   UNL     1     -10.807   5.398  72.303  1.00  0.00    -0.286 C  
HETATM   21  C   UNL     1     -12.611   6.969  71.539  1.00  0.00    -0.426 C  
ENDBRANCH  16  18
ENDBRANCH  15  16
ENDBRANCH  14  15
ENDBRANCH  13  14
BRANCH  11  22
HETATM   22  O   UNL     1      -9.403  11.411  67.112  1.00  0.00    -0.169 OA 
BRANCH  22  23
HETATM   23  C   UNL     1      -9.695  12.776  67.328  1.00  0.00    -0.206 C  
BRANCH  23  24
HETATM   24  C   UNL     1     -11.207  12.938  67.411  1.00  0.00    -0.291 C  
BRANCH  24  25
HETATM   25  N   UNL     1     -11.577  13.495  68.685  1.00  0.00    -0.305 NA 
HETATM   26  C   UNL     1     -12.029  12.775  69.749  1.00  0.00    -0.292 A  
HETATM   27  N   UNL     1     -12.044  11.439  69.889  1.00  0.00    -0.327 NA 
HETATM   28  H2  UNL     1     -14.450  14.626  72.222  1.00  0.00     0.000 HD 
HETATM   29  H1  UNL     1     -14.222  13.696  73.559  1.00  0.00     0.000 HD 
HETATM   30  C   UNL     1     -11.757  14.823  68.965  1.00  0.00    -0.312 A  
HETATM   31  N   UNL     1     -12.337  14.998  70.133  1.00  0.00    -0.335 NA 
HETATM   32  C   UNL     1     -12.537  13.718  70.622  1.00  0.00    -0.315 A  
HETATM   33  C   UNL     1     -13.161  13.230  71.779  1.00  0.00    -0.379 A  
HETATM   34  N   UNL     1     -13.768  14.051  72.717  1.00  0.00    -0.691 NA 
HETATM   35  N   UNL     1     -13.174  11.892  71.989  1.00  0.00    -0.456 NA 
HETATM   36  C   UNL     1     -12.625  11.087  71.052  1.00  0.00    -0.411 A  
ENDBRANCH  24  25
ENDBRANCH  23  24
ENDBRANCH  22  23
ENDBRANCH  11  22
ENDBRANCH   8   9
ENDBRANCH   7   8
ENDBRANCH   5   7
ENDBRANCH   2   5
TORSDOF 12
ENDMDL
MODEL      120
REMARK 921   NORMALIZED FREE ENERGY PREDICTED BY IDOCK:   -5.06 KCAL/MOL
REMARK 922        TOTAL FREE ENERGY PREDICTED BY IDOCK:  -10.21 KCAL/MOL
REMARK 923 INTER-LIGAND FREE ENERGY PREDICTED BY IDOCK:   -9.39 KCAL/MOL
REMARK 924 INTRA-LIGAND FREE ENERGY PREDICTED BY IDOCK:   -0.82 KCAL/MOL
REMARK 927      BINDING AFFINITY PREDICTED BY RF-SCORE:    0.00 PKD
ROOT
HETATM    1  C   UNL     1     -11.996  15.100  72.166  1.00  0.00    -0.489 C  
HETATM    2  C   UNL     1     -12.950  14.481  71.126  1.00  0.00    -0.414 C  
HETATM    3  C   UNL     1     -14.223  14.021  71.847  1.00  0.00    -0.511 C  
HETATM    4  C   UNL     1     -13.300  15.560  70.089  1.00  0.00     0.367 C  
ENDROOT
BRANCH   2   5
HETATM    5  C   UNL     1     -12.232  13.315  70.429  1.00  0.00    -0.332 C  
HETATM    6  O   UNL     1     -11.459  13.466  69.488  1.00  0.00    -0.271 OA 
BRANCH   5   7
HETATM    7  O   UNL     1     -12.619  12.095  70.896  1.00  0.00    -0.336 OA 
BRANCH   7   8
HETATM    8  C   UNL     1     -12.215  10.987  70.070  1.00  0.00    -0.343 C  
BRANCH   8   9
HETATM    9  O   UNL     1     -10.940  10.451  70.412  1.00  0.00    -0.298 OA 
HETATM   10  P   UNL     1     -10.745   8.869  70.080  1.00  0.00    -0.221 P  
HETATM   11  C   UNL     1     -10.886   8.750  68.281  1.00  0.00     0.032 C  
HETATM   12  O   UNL     1     -11.651   7.972  70.860  1.00  0.00    -0.283 OA 
HETATM   13  O   UNL     1      -9.168   8.576  70.224  1.00  0.00    -0.151 OA 
BRANCH  13  14
HETATM   14  C   UNL     1      -8.518   8.443  71.455  1.00  0.00    -0.157 C  
BRANCH  14  15
HETATM   15  O   UNL     1      -8.413   7.039  71.792  1.00  0.00    -0.114 OA 
BRANCH  15  16
HETATM   16  C   UNL     1      -9.290   6.587  72.733  1.00  0.00    -0.139 C  
HETATM   17  O   UNL     1      -9.701   7.266  73.667  1.00  0.00    -0.235 OA 
BRANCH  16  18
HETATM   18  C   UNL     1      -9.701   5.118  72.496  1.00  0.00    -0.181 C  
HETATM   19  C   UNL     1     -10.241   4.959  71.060  1.00  0.00    -0.262 C  
HETATM   20  C   UNL     1     -10.809   4.710  73.475  1.00  0.00    -0.362 C  
HETATM   21  C   UNL     1      -8.495   4.181  72.656  1.00  0.00    -0.101 C  
ENDBRANCH  16  18
ENDBRANCH  15  16
ENDBRANCH  14  15
ENDBRANCH  13  14
BRANCH  11  22
HETATM   22  O   UNL     1      -9.871   9.628  67.787  1.00  0.00    -0.149 OA 
BRANCH  22  23
HETATM   23  C   UNL     1     -10.379  10.640  66.943  1.00  0.00    -0.236 C  
BRANCH  23  24
HETATM   24  C   UNL     1      -9.283  11.673  66.716  1.00  0.00    -0.186 C  
BRANCH  24  25
HETATM   25  N   UNL     1      -9.860  12.933  66.327  1.00  0.00    -0.270 NA 
HETATM   26  C   UNL     1     -10.868  13.082  65.422  1.00  0.00    -0.284 A  
HETATM   27  N   UNL     1     -11.625  12.119  64.870  1.00  0.00    -0.331 NA 
HETATM   28  H2  UNL     1     -10.950  16.461  63.429  1.00  0.00     0.000 HD 
HETATM   29  H1  UNL     1     -12.537  16.475  62.999  1.00  0.00     0.000 HD 
HETATM   30  C   UNL     1      -9.359  14.174  66.613  1.00  0.00    -0.282 A  
HETATM   31  N   UNL     1      -9.960  15.112  65.912  1.00  0.00    -0.304 NA 
HETATM   32  C   UNL     1     -10.889  14.435  65.141  1.00  0.00    -0.386 A  
HETATM   33  C   UNL     1     -11.788  14.855  64.151  1.00  0.00    -0.184 A  
HETATM   34  N   UNL     1     -11.882  16.170  63.720  1.00  0.00    -0.780 NA 
HETATM   35  N   UNL     1     -12.602  13.931  63.584  1.00  0.00    -0.794 NA 
HETATM   36  C   UNL     1     -12.478  12.641  63.968  1.00  0.00    -0.399 A  
ENDBRANCH  24  25
ENDBRANCH  23  24
ENDBRANCH  22  23
ENDBRANCH  11  22
ENDBRANCH   8   9
ENDBRANCH   7   8
ENDBRANCH   5   7
ENDBRANCH   2   5
TORSDOF 12
ENDMDL
MODEL      121
REMARK 921   NORMALIZED FREE ENERGY PREDICTED BY IDOCK:   -5.04 KCAL/MOL
REMARK 922        TOTAL FREE ENERGY PREDICTED BY IDOCK:  -10.17 KCAL/MOL
REMARK 923 INTER-LIGAND FREE ENERGY PREDICTED BY IDOCK:   -8.58 KCAL/MOL
REMARK 924 INTRA-LIGAND FREE ENERGY PREDICTED BY IDOCK:   -1.60 KCAL/MOL
REMARK 927      BINDING AFFINITY PREDICTED BY RF-SCORE:    0.00 PKD
ROOT
HETATM    1  C   UNL     1     -13.458   7.747  71.639  1.00  0.00    -0.401 C  
HETATM    2  C   UNL     1     -11.929   7.807  71.454  1.00  0.00    -0.331 C  
HETATM    3  C   UNL     1     -11.265   7.580  72.818  1.00  0.00    -0.403 C  
HETATM    4  C   UNL     1     -11.515   6.691  70.482  1.00  0.00    -0.432 C  
ENDROOT
BRANCH   2   5
HETATM    5  C   UNL     1     -11.556   9.172  70.854  1.00  0.00    -0.291 C  
HETATM    6  O   UNL     1     -12.380  10.050  70.615  1.00  0.00    -0.285 OA 
BRANCH   5   7
HETATM    7  O   UNL     1     -10.237   9.267  70.524  1.00  0.00    -0.213 OA 
BRANCH   7   8
HETATM    8  C   UNL     1      -9.977  10.042  69.338  1.00  0.00    -0.223 C  
BRANCH   8   9
HETATM    9  O   UNL     1      -9.056   9.428  68.442  1.00  0.00    -0.128 OA 
HETATM   10  P   UNL     1      -9.698   8.913  67.037  1.00  0.00    -0.233 P  
HETATM   11  C   UNL     1     -10.289  10.414  66.218  1.00  0.00    -0.203 C  
HETATM   12  O   UNL     1     -10.710   7.825  67.199  1.00  0.00    -0.333 OA 
HETATM   13  O   UNL     1      -8.452   8.580  66.074  1.00  0.00    -0.124 OA 
BRANCH  13  14
HETATM   14  C   UNL     1      -7.674   7.425  66.191  1.00  0.00    -0.094 C  
BRANCH  14  15
HETATM   15  O   UNL     1      -8.405   6.297  65.652  1.00  0.00    -0.136 OA 
BRANCH  15  16
HETATM   16  C   UNL     1      -8.120   5.085  66.207  1.00  0.00    -0.108 C  
HETATM   17  O   UNL     1      -7.000   4.587  66.225  1.00  0.00    -0.060 OA 
BRANCH  16  18
HETATM   18  C   UNL     1      -9.370   4.404  66.803  1.00  0.00    -0.173 C  
HETATM   19  C   UNL     1      -9.538   4.831  68.276  1.00  0.00    -0.204 C  
HETATM   20  C   UNL     1      -9.218   2.878  66.759  1.00  0.00    -0.147 C  
HETATM   21  C   UNL     1     -10.636   4.822  66.041  1.00  0.00    -0.300 C  
ENDBRANCH  16  18
ENDBRANCH  15  16
ENDBRANCH  14  15
ENDBRANCH  13  14
BRANCH  11  22
HETATM   22  O   UNL     1      -9.128  11.242  66.115  1.00  0.00    -0.194 OA 
BRANCH  22  23
HETATM   23  C   UNL     1      -9.257  12.465  66.809  1.00  0.00    -0.212 C  
BRANCH  23  24
HETATM   24  C   UNL     1     -10.619  13.062  66.483  1.00  0.00    -0.282 C  
BRANCH  24  25
HETATM   25  N   UNL     1     -11.219  13.611  67.671  1.00  0.00    -0.269 NA 
HETATM   26  C   UNL     1     -10.966  14.854  68.169  1.00  0.00    -0.272 A  
HETATM   27  N   UNL     1     -10.282  15.850  67.581  1.00  0.00    -0.257 NA 
HETATM   28  H2  UNL     1     -11.341  15.301  72.050  1.00  0.00     0.000 HD 
HETATM   29  H1  UNL     1     -11.577  16.927  72.106  1.00  0.00     0.000 HD 
HETATM   30  C   UNL     1     -11.943  12.919  68.604  1.00  0.00    -0.247 A  
HETATM   31  N   UNL     1     -12.137  13.632  69.693  1.00  0.00    -0.328 NA 
HETATM   32  C   UNL     1     -11.505  14.838  69.441  1.00  0.00    -0.301 A  
HETATM   33  C   UNL     1     -11.298  15.984  70.223  1.00  0.00    -0.382 A  
HETATM   34  N   UNL     1     -11.727  16.093  71.537  1.00  0.00    -0.477 NA 
HETATM   35  N   UNL     1     -10.645  17.034  69.669  1.00  0.00    -0.211 NA 
HETATM   36  C   UNL     1     -10.183  16.911  68.404  1.00  0.00    -0.322 A  
ENDBRANCH  24  25
ENDBRANCH  23  24
ENDBRANCH  22  23
ENDBRANCH  11  22
ENDBRANCH   8   9
ENDBRANCH   7   8
ENDBRANCH   5   7
ENDBRANCH   2   5
TORSDOF 12
ENDMDL
MODEL      122
REMARK 921   NORMALIZED FREE ENERGY PREDICTED BY IDOCK:   -5.03 KCAL/MOL
REMARK 922        TOTAL FREE ENERGY PREDICTED BY IDOCK:  -10.15 KCAL/MOL
REMARK 923 INTER-LIGAND FREE ENERGY PREDICTED BY IDOCK:   -8.92 KCAL/MOL
REMARK 924 INTRA-LIGAND FREE ENERGY PREDICTED BY IDOCK:   -1.23 KCAL/MOL
REMARK 927      BINDING AFFINITY PREDICTED BY RF-SCORE:    0.00 PKD
ROOT
HETATM    1  C   UNL     1      -8.046   8.543  63.919  1.00  0.00    -0.155 C  
HETATM    2  C   UNL     1      -7.255   8.485  65.240  1.00  0.00    -0.083 C  
HETATM    3  C   UNL     1      -7.964   7.513  66.191  1.00  0.00    -0.111 C  
HETATM    4  C   UNL     1      -5.839   7.973  64.933  1.00  0.00    -0.045 C  
ENDROOT
BRANCH   2   5
HETATM    5  C   UNL     1      -7.169   9.903  65.828  1.00  0.00    -0.110 C  
HETATM    6  O   UNL     1      -6.233  10.289  66.522  1.00  0.00    -0.064 OA 
BRANCH   5   7
HETATM    7  O   UNL     1      -8.283  10.649  65.584  1.00  0.00    -0.159 OA 
BRANCH   7   8
HETATM    8  C   UNL     1      -8.971  11.094  66.769  1.00  0.00    -0.165 C  
BRANCH   8   9
HETATM    9  O   UNL     1      -9.521  12.403  66.656  1.00  0.00    -0.221 OA 
HETATM   10  P   UNL     1     -11.097  12.456  66.252  1.00  0.00    -0.337 P  
HETATM   11  C   UNL     1     -11.958  11.654  67.625  1.00  0.00    -0.012 C  
HETATM   12  O   UNL     1     -11.391  11.904  64.894  1.00  0.00    -0.316 OA 
HETATM   13  O   UNL     1     -11.572  13.972  66.515  1.00  0.00    -0.341 OA 
BRANCH  13  14
HETATM   14  C   UNL     1     -11.271  15.034  65.656  1.00  0.00    -0.327 C  
BRANCH  14  15
HETATM   15  O   UNL     1     -10.709  16.126  66.423  1.00  0.00    -0.294 OA 
BRANCH  15  16
HETATM   16  C   UNL     1     -10.686  17.338  65.800  1.00  0.00    -0.131 C  
HETATM   17  O   UNL     1     -11.068  17.525  64.651  1.00  0.00    -0.978 OA 
BRANCH  16  18
HETATM   18  C   UNL     1     -10.113  18.452  66.704  1.00  0.00    -0.399 C  
HETATM   19  C   UNL     1      -8.572  18.430  66.635  1.00  0.00    -0.289 C  
HETATM   20  C   UNL     1     -10.533  18.223  68.161  1.00  0.00    -0.359 C  
HETATM   21  C   UNL     1     -10.590  19.834  66.236  1.00  0.00    -0.572 C  
ENDBRANCH  16  18
ENDBRANCH  15  16
ENDBRANCH  14  15
ENDBRANCH  13  14
BRANCH  11  22
HETATM   22  O   UNL     1     -11.576  12.413  68.775  1.00  0.00    -0.278 OA 
BRANCH  22  23
HETATM   23  C   UNL     1     -11.803  11.728  69.990  1.00  0.00    -0.342 C  
BRANCH  23  24
HETATM   24  C   UNL     1     -11.517  10.249  69.770  1.00  0.00    -0.256 C  
BRANCH  24  25
HETATM   25  N   UNL     1     -11.331   9.586  71.034  1.00  0.00    -0.321 NA 
HETATM   26  C   UNL     1     -10.130   9.168  71.524  1.00  0.00    -0.311 A  
HETATM   27  N   UNL     1      -8.906   9.441  71.042  1.00  0.00    -0.275 NA 
HETATM   28  H2  UNL     1     -10.200   6.065  73.926  1.00  0.00     0.000 HD 
HETATM   29  H1  UNL     1      -8.780   6.312  74.716  1.00  0.00     0.000 HD 
HETATM   30  C   UNL     1     -12.317   9.069  71.828  1.00  0.00    -0.367 A  
HETATM   31  N   UNL     1     -11.823   8.307  72.781  1.00  0.00    -0.325 NA 
HETATM   32  C   UNL     1     -10.453   8.340  72.583  1.00  0.00    -0.303 A  
HETATM   33  C   UNL     1      -9.385   7.690  73.217  1.00  0.00    -0.243 A  
HETATM   34  N   UNL     1      -9.557   6.785  74.254  1.00  0.00    -0.254 NA 
HETATM   35  N   UNL     1      -8.125   7.955  72.795  1.00  0.00    -0.124 NA 
HETATM   36  C   UNL     1      -7.959   8.800  71.753  1.00  0.00    -0.049 A  
ENDBRANCH  24  25
ENDBRANCH  23  24
ENDBRANCH  22  23
ENDBRANCH  11  22
ENDBRANCH   8   9
ENDBRANCH   7   8
ENDBRANCH   5   7
ENDBRANCH   2   5
TORSDOF 12
ENDMDL
MODEL      123
REMARK 921   NORMALIZED FREE ENERGY PREDICTED BY IDOCK:   -4.99 KCAL/MOL
REMARK 922        TOTAL FREE ENERGY PREDICTED BY IDOCK:  -10.08 KCAL/MOL
REMARK 923 INTER-LIGAND FREE ENERGY PREDICTED BY IDOCK:   -8.63 KCAL/MOL
REMARK 924 INTRA-LIGAND FREE ENERGY PREDICTED BY IDOCK:   -1.45 KCAL/MOL
REMARK 927      BINDING AFFINITY PREDICTED BY RF-SCORE:    0.00 PKD
ROOT
HETATM    1  C   UNL     1     -11.665  15.280  72.453  1.00  0.00    -0.538 C  
HETATM    2  C   UNL     1     -12.392  14.880  71.154  1.00  0.00    -0.387 C  
HETATM    3  C   UNL     1     -12.383  13.351  71.042  1.00  0.00    -0.401 C  
HETATM    4  C   UNL     1     -13.840  15.388  71.236  1.00  0.00    -0.523 C  
ENDROOT
BRANCH   2   5
HETATM    5  C   UNL     1     -11.683  15.548  69.965  1.00  0.00    -0.346 C  
HETATM    6  O   UNL     1     -12.280  15.997  68.991  1.00  0.00    -0.205 OA 
BRANCH   5   7
HETATM    7  O   UNL     1     -10.325  15.498  70.058  1.00  0.00    -0.299 OA 
BRANCH   7   8
HETATM    8  C   UNL     1      -9.698  14.603  69.119  1.00  0.00    -0.103 C  
BRANCH   8   9
HETATM    9  O   UNL     1      -8.955  15.267  68.101  1.00  0.00    -0.169 OA 
HETATM   10  P   UNL     1      -7.338  15.231  68.292  1.00  0.00    -0.130 P  
HETATM   11  C   UNL     1      -6.898  13.479  68.189  1.00  0.00    -0.119 C  
HETATM   12  O   UNL     1      -6.858  15.948  69.511  1.00  0.00    -0.187 OA 
HETATM   13  O   UNL     1      -6.715  15.724  66.892  1.00  0.00    -0.265 OA 
BRANCH  13  14
HETATM   14  C   UNL     1      -6.681  17.064  66.492  1.00  0.00    -0.232 C  
BRANCH  14  15
HETATM   15  O   UNL     1      -8.034  17.570  66.394  1.00  0.00    -0.251 OA 
BRANCH  15  16
HETATM   16  C   UNL     1      -8.161  18.927  66.390  1.00  0.00    -0.292 C  
HETATM   17  O   UNL     1      -7.401  19.684  65.796  1.00  0.00    -0.301 OA 
BRANCH  16  18
HETATM   18  C   UNL     1      -9.366  19.406  67.228  1.00  0.00    -0.386 C  
HETATM   19  C   UNL     1      -9.460  20.945  67.164  1.00  0.00    -0.349 C  
HETATM   20  C   UNL     1      -9.190  18.996  68.696  1.00  0.00    -0.414 C  
HETATM   21  C   UNL     1     -10.678  18.827  66.679  1.00  0.00    -0.353 C  
ENDBRANCH  16  18
ENDBRANCH  15  16
ENDBRANCH  14  15
ENDBRANCH  13  14
BRANCH  11  22
HETATM   22  O   UNL     1      -7.392  13.063  66.914  1.00  0.00     0.082 OA 
BRANCH  22  23
HETATM   23  C   UNL     1      -8.253  11.946  66.993  1.00  0.00    -0.170 C  
BRANCH  23  24
HETATM   24  C   UNL     1      -8.269  11.451  68.432  1.00  0.00    -0.151 C  
BRANCH  24  25
HETATM   25  N   UNL     1      -9.225  10.385  68.581  1.00  0.00    -0.156 NA 
HETATM   26  C   UNL     1      -9.264   9.514  69.628  1.00  0.00    -0.200 A  
HETATM   27  N   UNL     1      -8.571   9.579  70.776  1.00  0.00    -0.253 NA 
HETATM   28  H2  UNL     1     -10.714   5.943  68.885  1.00  0.00     0.000 HD 
HETATM   29  H1  UNL     1     -11.148   5.513  70.412  1.00  0.00     0.000 HD 
HETATM   30  C   UNL     1     -10.086   9.931  67.618  1.00  0.00    -0.197 A  
HETATM   31  N   UNL     1     -10.647   8.794  67.968  1.00  0.00    -0.197 NA 
HETATM   32  C   UNL     1     -10.118   8.508  69.215  1.00  0.00    -0.202 A  
HETATM   33  C   UNL     1     -10.265   7.417  70.083  1.00  0.00    -0.205 A  
HETATM   34  N   UNL     1     -11.041   6.307  69.781  1.00  0.00    -0.372 NA 
HETATM   35  N   UNL     1      -9.617   7.446  71.272  1.00  0.00    -0.162 NA 
HETATM   36  C   UNL     1      -8.822   8.504  71.548  1.00  0.00    -0.199 A  
ENDBRANCH  24  25
ENDBRANCH  23  24
ENDBRANCH  22  23
ENDBRANCH  11  22
ENDBRANCH   8   9
ENDBRANCH   7   8
ENDBRANCH   5   7
ENDBRANCH   2   5
TORSDOF 12
ENDMDL
MODEL      124
REMARK 921   NORMALIZED FREE ENERGY PREDICTED BY IDOCK:   -4.97 KCAL/MOL
REMARK 922        TOTAL FREE ENERGY PREDICTED BY IDOCK:  -10.05 KCAL/MOL
REMARK 923 INTER-LIGAND FREE ENERGY PREDICTED BY IDOCK:   -8.39 KCAL/MOL
REMARK 924 INTRA-LIGAND FREE ENERGY PREDICTED BY IDOCK:   -1.66 KCAL/MOL
REMARK 927      BINDING AFFINITY PREDICTED BY RF-SCORE:    0.00 PKD
ROOT
HETATM    1  C   UNL     1      -8.906  16.437  69.160  1.00  0.00    -0.186 C  
HETATM    2  C   UNL     1      -7.656  15.961  68.394  1.00  0.00    -0.132 C  
HETATM    3  C   UNL     1      -8.004  15.866  66.904  1.00  0.00    -0.287 C  
HETATM    4  C   UNL     1      -6.538  16.995  68.603  1.00  0.00    -0.177 C  
ENDROOT
BRANCH   2   5
HETATM    5  C   UNL     1      -7.212  14.606  68.968  1.00  0.00    -0.135 C  
HETATM    6  O   UNL     1      -6.896  14.443  70.143  1.00  0.00    -0.111 OA 
BRANCH   5   7
HETATM    7  O   UNL     1      -7.109  13.633  68.019  1.00  0.00    -0.099 OA 
BRANCH   7   8
HETATM    8  C   UNL     1      -7.248  12.292  68.526  1.00  0.00    -0.103 C  
BRANCH   8   9
HETATM    9  O   UNL     1      -8.407  11.615  68.048  1.00  0.00    -0.134 OA 
HETATM   10  P   UNL     1      -8.288   9.992  68.002  1.00  0.00    -0.118 P  
HETATM   11  C   UNL     1      -8.075   9.492  69.728  1.00  0.00    -0.140 C  
HETATM   12  O   UNL     1      -7.251   9.489  67.051  1.00  0.00    -0.086 OA 
HETATM   13  O   UNL     1      -9.784   9.444  67.769  1.00  0.00    -0.144 OA 
BRANCH  13  14
HETATM   14  C   UNL     1     -10.433   9.475  66.531  1.00  0.00    -0.131 C  
BRANCH  14  15
HETATM   15  O   UNL     1     -10.890  10.822  66.262  1.00  0.00    -0.183 OA 
BRANCH  15  16
HETATM   16  C   UNL     1     -10.673  11.281  64.997  1.00  0.00    -0.256 C  
HETATM   17  O   UNL     1     -10.063  10.655  64.137  1.00  0.00    -0.333 OA 
BRANCH  16  18
HETATM   18  C   UNL     1     -11.273  12.685  64.770  1.00  0.00    -0.337 C  
HETATM   19  C   UNL     1     -12.233  13.029  65.928  1.00  0.00    -0.493 C  
HETATM   20  C   UNL     1     -12.069  12.719  63.460  1.00  0.00    -0.642 C  
HETATM   21  C   UNL     1     -10.169  13.752  64.736  1.00  0.00    -0.362 C  
ENDBRANCH  16  18
ENDBRANCH  15  16
ENDBRANCH  14  15
ENDBRANCH  13  14
BRANCH  11  22
HETATM   22  O   UNL     1      -9.224  10.022  70.395  1.00  0.00    -0.093 OA 
BRANCH  22  23
HETATM   23  C   UNL     1      -9.932   9.048  71.133  1.00  0.00    -0.295 C  
BRANCH  23  24
HETATM   24  C   UNL     1     -11.320   8.900  70.527  1.00  0.00    -0.234 C  
BRANCH  24  25
HETATM   25  N   UNL     1     -12.224   9.853  71.115  1.00  0.00    -0.345 NA 
HETATM   26  C   UNL     1     -12.290  11.172  70.780  1.00  0.00    -0.406 A  
HETATM   27  N   UNL     1     -11.687  11.790  69.751  1.00  0.00    -0.324 NA 
HETATM   28  H2  UNL     1     -13.482  13.637  73.592  1.00  0.00     0.000 HD 
HETATM   29  H1  UNL     1     -14.001  14.880  72.650  1.00  0.00     0.000 HD 
HETATM   30  C   UNL     1     -12.986   9.660  72.235  1.00  0.00    -0.356 A  
HETATM   31  N   UNL     1     -13.507  10.789  72.667  1.00  0.00     0.397 NA 
HETATM   32  C   UNL     1     -13.055  11.748  71.777  1.00  0.00    -0.375 A  
HETATM   33  C   UNL     1     -13.204  13.142  71.726  1.00  0.00    -0.403 A  
HETATM   34  N   UNL     1     -13.892  13.867  72.687  1.00  0.00    -0.722 NA 
HETATM   35  N   UNL     1     -12.646  13.813  70.689  1.00  0.00    -0.331 NA 
HETATM   36  C   UNL     1     -11.934  13.113  69.777  1.00  0.00    -0.314 A  
ENDBRANCH  24  25
ENDBRANCH  23  24
ENDBRANCH  22  23
ENDBRANCH  11  22
ENDBRANCH   8   9
ENDBRANCH   7   8
ENDBRANCH   5   7
ENDBRANCH   2   5
TORSDOF 12
ENDMDL
MODEL      125
REMARK 921   NORMALIZED FREE ENERGY PREDICTED BY IDOCK:   -4.95 KCAL/MOL
REMARK 922        TOTAL FREE ENERGY PREDICTED BY IDOCK:  -10.02 KCAL/MOL
REMARK 923 INTER-LIGAND FREE ENERGY PREDICTED BY IDOCK:   -8.63 KCAL/MOL
REMARK 924 INTRA-LIGAND FREE ENERGY PREDICTED BY IDOCK:   -1.38 KCAL/MOL
REMARK 927      BINDING AFFINITY PREDICTED BY RF-SCORE:    0.00 PKD
ROOT
HETATM    1  C   UNL     1     -10.014  13.543  66.426  1.00  0.00    -0.296 C  
HETATM    2  C   UNL     1     -11.223  13.621  65.474  1.00  0.00    -0.301 C  
HETATM    3  C   UNL     1     -12.507  13.555  66.309  1.00  0.00    -0.384 C  
HETATM    4  C   UNL     1     -11.159  14.959  64.721  1.00  0.00    -0.395 C  
ENDROOT
BRANCH   2   5
HETATM    5  C   UNL     1     -11.134  12.463  64.467  1.00  0.00    -0.316 C  
HETATM    6  O   UNL     1     -11.420  12.581  63.279  1.00  0.00    -0.466 OA 
BRANCH   5   7
HETATM    7  O   UNL     1     -10.804  11.275  65.047  1.00  0.00    -0.282 OA 
BRANCH   7   8
HETATM    8  C   UNL     1      -9.566  10.709  64.578  1.00  0.00    -0.286 C  
BRANCH   8   9
HETATM    9  O   UNL     1      -9.464   9.302  64.783  1.00  0.00    -0.136 OA 
HETATM   10  P   UNL     1      -8.373   8.845  65.901  1.00  0.00    -0.143 P  
HETATM   11  C   UNL     1      -8.976   9.548  67.454  1.00  0.00    -0.131 C  
HETATM   12  O   UNL     1      -6.963   9.185  65.542  1.00  0.00    -0.079 OA 
HETATM   13  O   UNL     1      -8.670   7.292  66.201  1.00  0.00    -0.145 OA 
BRANCH  13  14
HETATM   14  C   UNL     1      -8.291   6.254  65.344  1.00  0.00    -0.148 C  
BRANCH  14  15
HETATM   15  O   UNL     1      -7.983   5.075  66.125  1.00  0.00    -0.105 OA 
BRANCH  15  16
HETATM   16  C   UNL     1      -9.009   4.570  66.868  1.00  0.00    -0.115 C  
HETATM   17  O   UNL     1     -10.140   4.382  66.434  1.00  0.00    -0.232 OA 
BRANCH  16  18
HETATM   18  C   UNL     1      -8.589   4.271  68.323  1.00  0.00    -0.108 C  
HETATM   19  C   UNL     1      -8.941   5.475  69.220  1.00  0.00    -0.125 C  
HETATM   20  C   UNL     1      -7.075   4.038  68.403  1.00  0.00    -0.055 C  
HETATM   21  C   UNL     1      -9.334   3.042  68.865  1.00  0.00    -0.228 C  
ENDBRANCH  16  18
ENDBRANCH  15  16
ENDBRANCH  14  15
ENDBRANCH  13  14
BRANCH  11  22
HETATM   22  O   UNL     1     -10.292   9.009  67.601  1.00  0.00    -0.226 OA 
BRANCH  22  23
HETATM   23  C   UNL     1     -10.690   8.881  68.950  1.00  0.00    -0.106 C  
BRANCH  23  24
HETATM   24  C   UNL     1     -10.344  10.172  69.679  1.00  0.00    -0.247 C  
BRANCH  24  25
HETATM   25  N   UNL     1     -11.509  10.694  70.344  1.00  0.00    -0.325 NA 
HETATM   26  C   UNL     1     -11.879  12.005  70.353  1.00  0.00    -0.212 A  
HETATM   27  N   UNL     1     -11.364  13.009  69.623  1.00  0.00    -0.164 NA 
HETATM   28  H2  UNL     1     -13.901  13.237  73.483  1.00  0.00     0.000 HD 
HETATM   29  H1  UNL     1     -14.634  14.552  72.822  1.00  0.00     0.000 HD 
HETATM   30  C   UNL     1     -12.292  10.026  71.246  1.00  0.00    -0.398 A  
HETATM   31  N   UNL     1     -13.119  10.840  71.866  1.00  0.00    -0.494 NA 
HETATM   32  C   UNL     1     -12.850  12.089  71.334  1.00  0.00    -0.288 A  
HETATM   33  C   UNL     1     -13.343  13.370  71.619  1.00  0.00    -0.338 A  
HETATM   34  N   UNL     1     -14.275  13.620  72.615  1.00  0.00    -0.683 NA 
HETATM   35  N   UNL     1     -12.884  14.416  70.888  1.00  0.00    -0.340 NA 
HETATM   36  C   UNL     1     -11.940  14.181  69.949  1.00  0.00    -0.338 A  
ENDBRANCH  24  25
ENDBRANCH  23  24
ENDBRANCH  22  23
ENDBRANCH  11  22
ENDBRANCH   8   9
ENDBRANCH   7   8
ENDBRANCH   5   7
ENDBRANCH   2   5
TORSDOF 12
ENDMDL
MODEL      126
REMARK 921   NORMALIZED FREE ENERGY PREDICTED BY IDOCK:   -4.95 KCAL/MOL
REMARK 922        TOTAL FREE ENERGY PREDICTED BY IDOCK:  -10.02 KCAL/MOL
REMARK 923 INTER-LIGAND FREE ENERGY PREDICTED BY IDOCK:   -9.00 KCAL/MOL
REMARK 924 INTRA-LIGAND FREE ENERGY PREDICTED BY IDOCK:   -1.02 KCAL/MOL
REMARK 927      BINDING AFFINITY PREDICTED BY RF-SCORE:    0.00 PKD
ROOT
HETATM    1  C   UNL     1      -7.112  10.154  64.653  1.00  0.00    -0.124 C  
HETATM    2  C   UNL     1      -8.375   9.364  64.256  1.00  0.00    -0.176 C  
HETATM    3  C   UNL     1      -9.539  10.350  64.107  1.00  0.00    -0.381 C  
HETATM    4  C   UNL     1      -8.106   8.668  62.913  1.00  0.00    -0.177 C  
ENDROOT
BRANCH   2   5
HETATM    5  C   UNL     1      -8.654   8.305  65.334  1.00  0.00    -0.151 C  
HETATM    6  O   UNL     1      -8.434   7.108  65.174  1.00  0.00    -0.111 OA 
BRANCH   5   7
HETATM    7  O   UNL     1      -9.262   8.817  66.441  1.00  0.00    -0.161 OA 
BRANCH   7   8
HETATM    8  C   UNL     1     -10.127   7.892  67.125  1.00  0.00    -0.258 C  
BRANCH   8   9
HETATM    9  O   UNL     1      -9.657   7.512  68.415  1.00  0.00    -0.147 OA 
HETATM   10  P   UNL     1      -8.916   8.693  69.255  1.00  0.00    -0.146 P  
HETATM   11  C   UNL     1     -10.193   9.946  69.521  1.00  0.00    -0.225 C  
HETATM   12  O   UNL     1      -7.653   9.182  68.623  1.00  0.00    -0.082 OA 
HETATM   13  O   UNL     1      -8.785   8.150  70.764  1.00  0.00    -0.131 OA 
BRANCH  13  14
HETATM   14  C   UNL     1      -7.832   7.208  71.165  1.00  0.00    -0.098 C  
BRANCH  14  15
HETATM   15  O   UNL     1      -8.385   6.385  72.220  1.00  0.00    -0.108 OA 
BRANCH  15  16
HETATM   16  C   UNL     1      -9.401   5.553  71.853  1.00  0.00    -0.144 C  
HETATM   17  O   UNL     1      -9.309   4.710  70.968  1.00  0.00    -0.131 OA 
BRANCH  16  18
HETATM   18  C   UNL     1     -10.686   5.799  72.671  1.00  0.00    -0.280 C  
HETATM   19  C   UNL     1     -10.509   7.059  73.544  1.00  0.00    -0.413 C  
HETATM   20  C   UNL     1     -10.964   4.608  73.597  1.00  0.00    -0.392 C  
HETATM   21  C   UNL     1     -11.888   6.030  71.744  1.00  0.00    -0.190 C  
ENDBRANCH  16  18
ENDBRANCH  15  16
ENDBRANCH  14  15
ENDBRANCH  13  14
BRANCH  11  22
HETATM   22  O   UNL     1     -11.238   9.249  70.203  1.00  0.00    -0.248 OA 
BRANCH  22  23
HETATM   23  C   UNL     1     -12.158  10.113  70.838  1.00  0.00    -0.356 C  
BRANCH  23  24
HETATM   24  C   UNL     1     -12.042  11.491  70.199  1.00  0.00    -0.351 C  
BRANCH  24  25
HETATM   25  N   UNL     1     -12.682  12.478  71.029  1.00  0.00    -0.291 NA 
HETATM   26  C   UNL     1     -12.386  13.808  71.025  1.00  0.00    -0.372 A  
HETATM   27  N   UNL     1     -11.606  14.473  70.157  1.00  0.00    -0.276 NA 
HETATM   28  H2  UNL     1     -12.978  15.746  74.386  1.00  0.00     0.000 HD 
HETATM   29  H1  UNL     1     -13.118  17.272  73.789  1.00  0.00     0.000 HD 
HETATM   30  C   UNL     1     -13.504  12.229  72.094  1.00  0.00    -0.327 A  
HETATM   31  N   UNL     1     -13.723  13.316  72.801  1.00  0.00    -0.618 NA 
HETATM   32  C   UNL     1     -13.004  14.308  72.156  1.00  0.00    -0.373 A  
HETATM   33  C   UNL     1     -12.778  15.661  72.448  1.00  0.00    -0.421 A  
HETATM   34  N   UNL     1     -13.282  16.287  73.577  1.00  0.00    -0.605 NA 
HETATM   35  N   UNL     1     -12.028  16.390  71.586  1.00  0.00    -0.353 NA 
HETATM   36  C   UNL     1     -11.495  15.768  70.509  1.00  0.00    -0.381 A  
ENDBRANCH  24  25
ENDBRANCH  23  24
ENDBRANCH  22  23
ENDBRANCH  11  22
ENDBRANCH   8   9
ENDBRANCH   7   8
ENDBRANCH   5   7
ENDBRANCH   2   5
TORSDOF 12
ENDMDL
MODEL      127
REMARK 921   NORMALIZED FREE ENERGY PREDICTED BY IDOCK:   -4.94 KCAL/MOL
REMARK 922        TOTAL FREE ENERGY PREDICTED BY IDOCK:  -10.01 KCAL/MOL
REMARK 923 INTER-LIGAND FREE ENERGY PREDICTED BY IDOCK:   -9.19 KCAL/MOL
REMARK 924 INTRA-LIGAND FREE ENERGY PREDICTED BY IDOCK:   -0.82 KCAL/MOL
REMARK 927      BINDING AFFINITY PREDICTED BY RF-SCORE:    0.00 PKD
ROOT
HETATM    1  C   UNL     1     -10.217  11.852  63.307  1.00  0.00    -0.428 C  
HETATM    2  C   UNL     1     -11.149  12.411  64.400  1.00  0.00    -0.381 C  
HETATM    3  C   UNL     1     -10.965  13.931  64.467  1.00  0.00    -0.379 C  
HETATM    4  C   UNL     1     -12.599  12.078  64.015  1.00  0.00    -0.466 C  
ENDROOT
BRANCH   2   5
HETATM    5  C   UNL     1     -10.807  11.732  65.736  1.00  0.00    -0.291 C  
HETATM    6  O   UNL     1      -9.834  10.998  65.889  1.00  0.00    -0.213 OA 
BRANCH   5   7
HETATM    7  O   UNL     1     -11.746  11.947  66.700  1.00  0.00    -0.546 OA 
BRANCH   7   8
HETATM    8  C   UNL     1     -11.311  11.627  68.034  1.00  0.00    -0.296 C  
BRANCH   8   9
HETATM    9  O   UNL     1     -10.809  12.747  68.759  1.00  0.00    -0.242 OA 
HETATM   10  P   UNL     1     -11.893  13.927  69.043  1.00  0.00    -0.358 P  
HETATM   11  C   UNL     1     -13.152  13.160  70.091  1.00  0.00     0.695 C  
HETATM   12  O   UNL     1     -12.400  14.592  67.805  1.00  0.00    -0.204 OA 
HETATM   13  O   UNL     1     -11.218  14.896  70.138  1.00  0.00    -0.248 OA 
BRANCH  13  14
HETATM   14  C   UNL     1     -10.220  15.827  69.833  1.00  0.00    -0.273 C  
BRANCH  14  15
HETATM   15  O   UNL     1     -10.698  16.722  68.801  1.00  0.00    -0.316 OA 
BRANCH  15  16
HETATM   16  C   UNL     1      -9.763  17.548  68.252  1.00  0.00    -0.311 C  
HETATM   17  O   UNL     1      -9.352  18.570  68.790  1.00  0.00    -0.330 OA 
BRANCH  16  18
HETATM   18  C   UNL     1      -9.285  17.057  66.868  1.00  0.00    -0.254 C  
HETATM   19  C   UNL     1      -9.009  15.541  66.925  1.00  0.00    -0.272 C  
HETATM   20  C   UNL     1      -7.985  17.768  66.471  1.00  0.00    -0.299 C  
HETATM   21  C   UNL     1     -10.360  17.304  65.800  1.00  0.00    -0.245 C  
ENDBRANCH  16  18
ENDBRANCH  15  16
ENDBRANCH  14  15
ENDBRANCH  13  14
BRANCH  11  22
HETATM   22  O   UNL     1     -12.426  12.683  71.227  1.00  0.00    -0.309 OA 
BRANCH  22  23
HETATM   23  C   UNL     1     -12.842  11.402  71.651  1.00  0.00    -0.391 C  
BRANCH  23  24
HETATM   24  C   UNL     1     -11.845  10.375  71.129  1.00  0.00    -0.337 C  
BRANCH  24  25
HETATM   25  N   UNL     1     -12.104   9.088  71.717  1.00  0.00    -0.343 NA 
HETATM   26  C   UNL     1     -11.149   8.249  72.207  1.00  0.00    -0.359 A  
HETATM   27  N   UNL     1      -9.847   8.514  72.406  1.00  0.00    -0.301 NA 
HETATM   28  H2  UNL     1     -11.954   4.410  72.084  1.00  0.00     0.000 HD 
HETATM   29  H1  UNL     1     -10.934   3.889  73.263  1.00  0.00     0.000 HD 
HETATM   30  C   UNL     1     -13.289   8.404  71.677  1.00  0.00    -0.338 A  
HETATM   31  N   UNL     1     -13.144   7.158  72.075  1.00  0.00    -0.197 NA 
HETATM   32  C   UNL     1     -11.799   7.042  72.384  1.00  0.00    -0.176 A  
HETATM   33  C   UNL     1     -11.010   5.960  72.798  1.00  0.00    -0.265 A  
HETATM   34  N   UNL     1     -11.508   4.676  72.961  1.00  0.00    -0.208 NA 
HETATM   35  N   UNL     1      -9.696   6.178  73.048  1.00  0.00    -0.157 NA 
HETATM   36  C   UNL     1      -9.198   7.418  72.843  1.00  0.00    -0.152 A  
ENDBRANCH  24  25
ENDBRANCH  23  24
ENDBRANCH  22  23
ENDBRANCH  11  22
ENDBRANCH   8   9
ENDBRANCH   7   8
ENDBRANCH   5   7
ENDBRANCH   2   5
TORSDOF 12
ENDMDL
MODEL      128
REMARK 921   NORMALIZED FREE ENERGY PREDICTED BY IDOCK:   -4.94 KCAL/MOL
REMARK 922        TOTAL FREE ENERGY PREDICTED BY IDOCK:  -10.00 KCAL/MOL
REMARK 923 INTER-LIGAND FREE ENERGY PREDICTED BY IDOCK:   -8.05 KCAL/MOL
REMARK 924 INTRA-LIGAND FREE ENERGY PREDICTED BY IDOCK:   -1.95 KCAL/MOL
REMARK 927      BINDING AFFINITY PREDICTED BY RF-SCORE:    0.00 PKD
ROOT
HETATM    1  C   UNL     1      -8.585   3.756  66.127  1.00  0.00    -0.113 C  
HETATM    2  C   UNL     1      -7.923   4.250  64.826  1.00  0.00    -0.090 C  
HETATM    3  C   UNL     1      -6.929   3.184  64.349  1.00  0.00    -0.052 C  
HETATM    4  C   UNL     1      -9.021   4.448  63.770  1.00  0.00    -0.143 C  
ENDROOT
BRANCH   2   5
HETATM    5  C   UNL     1      -7.232   5.595  65.103  1.00  0.00    -0.070 C  
HETATM    6  O   UNL     1      -6.304   5.725  65.896  1.00  0.00    -0.036 OA 
BRANCH   5   7
HETATM    7  O   UNL     1      -7.821   6.640  64.455  1.00  0.00    -0.107 OA 
BRANCH   7   8
HETATM    8  C   UNL     1      -8.268   7.700  65.322  1.00  0.00    -0.135 C  
BRANCH   8   9
HETATM    9  O   UNL     1      -9.351   7.329  66.170  1.00  0.00    -0.141 OA 
HETATM   10  P   UNL     1      -9.135   7.660  67.750  1.00  0.00    -0.128 P  
HETATM   11  C   UNL     1      -9.010   9.462  67.835  1.00  0.00    -0.123 C  
HETATM   12  O   UNL     1      -8.009   6.903  68.376  1.00  0.00    -0.118 OA 
HETATM   13  O   UNL     1     -10.577   7.480  68.442  1.00  0.00    -0.193 OA 
BRANCH  13  14
HETATM   14  C   UNL     1     -11.142   6.234  68.736  1.00  0.00    -0.346 C  
BRANCH  14  15
HETATM   15  O   UNL     1     -10.940   5.935  70.137  1.00  0.00    -0.326 OA 
BRANCH  15  16
HETATM   16  C   UNL     1     -11.499   6.812  71.018  1.00  0.00    -0.324 C  
HETATM   17  O   UNL     1     -12.701   7.043  71.085  1.00  0.00    -0.381 OA 
BRANCH  16  18
HETATM   18  C   UNL     1     -10.445   7.492  71.918  1.00  0.00    -0.235 C  
HETATM   19  C   UNL     1     -10.835   7.309  73.399  1.00  0.00    -0.370 C  
HETATM   20  C   UNL     1     -10.380   8.995  71.620  1.00  0.00    -0.420 C  
HETATM   21  C   UNL     1      -9.060   6.861  71.711  1.00  0.00    -0.138 C  
ENDBRANCH  16  18
ENDBRANCH  15  16
ENDBRANCH  14  15
ENDBRANCH  13  14
BRANCH  11  22
HETATM   22  O   UNL     1     -10.229   9.931  67.253  1.00  0.00    -0.195 OA 
BRANCH  22  23
HETATM   23  C   UNL     1     -10.073  11.142  66.543  1.00  0.00    -0.223 C  
BRANCH  23  24
HETATM   24  C   UNL     1     -11.417  11.856  66.508  1.00  0.00    -0.314 C  
BRANCH  24  25
HETATM   25  N   UNL     1     -11.421  12.952  67.442  1.00  0.00    -0.315 NA 
HETATM   26  C   UNL     1     -11.807  12.863  68.745  1.00  0.00    -0.315 A  
HETATM   27  N   UNL     1     -12.071  11.750  69.449  1.00  0.00    -0.273 NA 
HETATM   28  H2  UNL     1     -13.291  16.116  70.363  1.00  0.00     0.000 HD 
HETATM   29  H1  UNL     1     -13.015  15.772  71.946  1.00  0.00     0.000 HD 
HETATM   30  C   UNL     1     -11.267  14.276  67.134  1.00  0.00    -0.322 A  
HETATM   31  N   UNL     1     -11.572  15.049  68.155  1.00  0.00    -0.337 NA 
HETATM   32  C   UNL     1     -11.938  14.174  69.163  1.00  0.00    -0.349 A  
HETATM   33  C   UNL     1     -12.423  14.372  70.463  1.00  0.00    -0.350 A  
HETATM   34  N   UNL     1     -12.663  15.628  71.000  1.00  0.00    -0.466 NA 
HETATM   35  N   UNL     1     -12.673  13.284  71.231  1.00  0.00    -0.358 NA 
HETATM   36  C   UNL     1     -12.486  12.058  70.693  1.00  0.00    -0.247 A  
ENDBRANCH  24  25
ENDBRANCH  23  24
ENDBRANCH  22  23
ENDBRANCH  11  22
ENDBRANCH   8   9
ENDBRANCH   7   8
ENDBRANCH   5   7
ENDBRANCH   2   5
TORSDOF 12
ENDMDL
MODEL      129
REMARK 921   NORMALIZED FREE ENERGY PREDICTED BY IDOCK:   -4.94 KCAL/MOL
REMARK 922        TOTAL FREE ENERGY PREDICTED BY IDOCK:  -10.00 KCAL/MOL
REMARK 923 INTER-LIGAND FREE ENERGY PREDICTED BY IDOCK:   -8.56 KCAL/MOL
REMARK 924 INTRA-LIGAND FREE ENERGY PREDICTED BY IDOCK:   -1.44 KCAL/MOL
REMARK 927      BINDING AFFINITY PREDICTED BY RF-SCORE:    0.00 PKD
ROOT
HETATM    1  C   UNL     1      -9.734  12.985  66.467  1.00  0.00    -0.266 C  
HETATM    2  C   UNL     1     -10.778  13.003  65.334  1.00  0.00    -0.309 C  
HETATM    3  C   UNL     1     -12.158  12.722  65.939  1.00  0.00    -0.485 C  
HETATM    4  C   UNL     1     -10.766  14.397  64.687  1.00  0.00    -0.357 C  
ENDROOT
BRANCH   2   5
HETATM    5  C   UNL     1     -10.386  11.950  64.285  1.00  0.00    -0.321 C  
HETATM    6  O   UNL     1     -10.310  12.191  63.084  1.00  0.00    -0.389 OA 
BRANCH   5   7
HETATM    7  O   UNL     1     -10.232  10.703  64.813  1.00  0.00    -0.325 OA 
BRANCH   7   8
HETATM    8  C   UNL     1      -8.976  10.074  64.495  1.00  0.00    -0.226 C  
BRANCH   8   9
HETATM    9  O   UNL     1      -8.870   8.733  64.964  1.00  0.00    -0.180 OA 
HETATM   10  P   UNL     1      -7.939   8.535  66.284  1.00  0.00    -0.108 P  
HETATM   11  C   UNL     1      -8.775   9.471  67.587  1.00  0.00    -0.122 C  
HETATM   12  O   UNL     1      -6.500   8.877  66.065  1.00  0.00    -0.059 OA 
HETATM   13  O   UNL     1      -8.237   7.047  66.819  1.00  0.00    -0.107 OA 
BRANCH  13  14
HETATM   14  C   UNL     1      -7.713   5.894  66.224  1.00  0.00    -0.102 C  
BRANCH  14  15
HETATM   15  O   UNL     1      -8.762   5.212  65.495  1.00  0.00    -0.137 OA 
BRANCH  15  16
HETATM   16  C   UNL     1      -8.525   5.007  64.169  1.00  0.00    -0.136 C  
HETATM   17  O   UNL     1      -8.069   5.859  63.415  1.00  0.00    -0.116 OA 
BRANCH  16  18
HETATM   18  C   UNL     1      -8.906   3.580  63.718  1.00  0.00    -0.094 C  
HETATM   19  C   UNL     1      -8.249   3.276  62.356  1.00  0.00    -0.073 C  
HETATM   20  C   UNL     1     -10.427   3.461  63.556  1.00  0.00    -0.248 C  
HETATM   21  C   UNL     1      -8.408   2.537  64.729  1.00  0.00    -0.088 C  
ENDBRANCH  16  18
ENDBRANCH  15  16
ENDBRANCH  14  15
ENDBRANCH  13  14
BRANCH  11  22
HETATM   22  O   UNL     1     -10.085   8.901  67.649  1.00  0.00    -0.189 OA 
BRANCH  22  23
HETATM   23  C   UNL     1     -10.643   8.937  68.945  1.00  0.00    -0.165 C  
BRANCH  23  24
HETATM   24  C   UNL     1     -10.339  10.295  69.563  1.00  0.00    -0.242 C  
BRANCH  24  25
HETATM   25  N   UNL     1     -11.494  10.794  70.262  1.00  0.00    -0.313 NA 
HETATM   26  C   UNL     1     -11.912  12.090  70.249  1.00  0.00    -0.314 A  
HETATM   27  N   UNL     1     -11.467  13.090  69.470  1.00  0.00    -0.251 NA 
HETATM   28  H2  UNL     1     -13.849  13.340  73.426  1.00  0.00     0.000 HD 
HETATM   29  H1  UNL     1     -14.658  14.607  72.759  1.00  0.00     0.000 HD 
HETATM   30  C   UNL     1     -12.213  10.124  71.214  1.00  0.00    -0.398 A  
HETATM   31  N   UNL     1     -13.044  10.926  71.846  1.00  0.00    -0.487 NA 
HETATM   32  C   UNL     1     -12.844  12.168  71.267  1.00  0.00    -0.250 A  
HETATM   33  C   UNL     1     -13.374  13.438  71.537  1.00  0.00    -0.265 A  
HETATM   34  N   UNL     1     -14.272  13.683  72.564  1.00  0.00    -0.726 NA 
HETATM   35  N   UNL     1     -12.986  14.477  70.758  1.00  0.00    -0.359 NA 
HETATM   36  C   UNL     1     -12.073  14.249  69.787  1.00  0.00    -0.347 A  
ENDBRANCH  24  25
ENDBRANCH  23  24
ENDBRANCH  22  23
ENDBRANCH  11  22
ENDBRANCH   8   9
ENDBRANCH   7   8
ENDBRANCH   5   7
ENDBRANCH   2   5
TORSDOF 12
ENDMDL
MODEL      130
REMARK 921   NORMALIZED FREE ENERGY PREDICTED BY IDOCK:   -4.94 KCAL/MOL
REMARK 922        TOTAL FREE ENERGY PREDICTED BY IDOCK:  -10.00 KCAL/MOL
REMARK 923 INTER-LIGAND FREE ENERGY PREDICTED BY IDOCK:   -8.65 KCAL/MOL
REMARK 924 INTRA-LIGAND FREE ENERGY PREDICTED BY IDOCK:   -1.35 KCAL/MOL
REMARK 927      BINDING AFFINITY PREDICTED BY RF-SCORE:    0.00 PKD
ROOT
HETATM    1  C   UNL     1     -11.953  15.260  72.893  1.00  0.00    -0.519 C  
HETATM    2  C   UNL     1     -12.977  15.017  71.767  1.00  0.00    -0.429 C  
HETATM    3  C   UNL     1     -14.339  15.554  72.224  1.00  0.00    -0.556 C  
HETATM    4  C   UNL     1     -12.510  15.779  70.517  1.00  0.00    -0.371 C  
ENDROOT
BRANCH   2   5
HETATM    5  C   UNL     1     -13.027  13.512  71.460  1.00  0.00    -0.355 C  
HETATM    6  O   UNL     1     -13.556  12.691  72.203  1.00  0.00    -0.517 OA 
BRANCH   5   7
HETATM    7  O   UNL     1     -12.339  13.174  70.333  1.00  0.00    -0.328 OA 
BRANCH   7   8
HETATM    8  C   UNL     1     -12.002  11.777  70.240  1.00  0.00    -0.343 C  
BRANCH   8   9
HETATM    9  O   UNL     1     -11.807  11.322  68.904  1.00  0.00    -0.317 OA 
HETATM   10  P   UNL     1     -10.254  11.107  68.468  1.00  0.00    -0.211 P  
HETATM   11  C   UNL     1      -9.644   9.794  69.553  1.00  0.00    -0.210 C  
HETATM   12  O   UNL     1      -9.448  12.366  68.462  1.00  0.00    -0.184 OA 
HETATM   13  O   UNL     1     -10.290  10.286  67.084  1.00  0.00    -0.212 OA 
BRANCH  13  14
HETATM   14  C   UNL     1     -10.601  10.868  65.850  1.00  0.00    -0.178 C  
BRANCH  14  15
HETATM   15  O   UNL     1     -10.115  10.019  64.784  1.00  0.00    -0.296 OA 
BRANCH  15  16
HETATM   16  C   UNL     1      -9.107  10.537  64.025  1.00  0.00    -0.231 C  
HETATM   17  O   UNL     1      -9.264  11.420  63.189  1.00  0.00    -0.277 OA 
BRANCH  16  18
HETATM   18  C   UNL     1      -7.745   9.878  64.329  1.00  0.00    -0.139 C  
HETATM   19  C   UNL     1      -6.892   9.839  63.044  1.00  0.00    -0.113 C  
HETATM   20  C   UNL     1      -7.947   8.437  64.815  1.00  0.00    -0.138 C  
HETATM   21  C   UNL     1      -6.973  10.681  65.386  1.00  0.00    -0.013 C  
ENDBRANCH  16  18
ENDBRANCH  15  16
ENDBRANCH  14  15
ENDBRANCH  13  14
BRANCH  11  22
HETATM   22  O   UNL     1     -10.525   8.694  69.309  1.00  0.00    -0.220 OA 
BRANCH  22  23
HETATM   23  C   UNL     1     -10.736   7.891  70.451  1.00  0.00    -0.233 C  
BRANCH  23  24
HETATM   24  C   UNL     1     -11.427   6.606  70.016  1.00  0.00    -0.375 C  
BRANCH  24  25
HETATM   25  N   UNL     1     -10.450   5.589  69.727  1.00  0.00    -0.297 NA 
HETATM   26  C   UNL     1     -10.158   5.122  68.481  1.00  0.00    -0.144 A  
HETATM   27  N   UNL     1     -10.564   5.618  67.301  1.00  0.00    -0.257 NA 
HETATM   28  H2  UNL     1      -8.878   1.418  68.253  1.00  0.00     0.000 HD 
HETATM   29  H1  UNL     1      -8.095   1.499  66.810  1.00  0.00     0.000 HD 
HETATM   30  C   UNL     1      -9.832   4.779  70.641  1.00  0.00    -0.222 A  
HETATM   31  N   UNL     1      -9.191   3.790  70.056  1.00  0.00    -0.132 NA 
HETATM   32  C   UNL     1      -9.411   3.979  68.702  1.00  0.00    -0.154 A  
HETATM   33  C   UNL     1      -9.053   3.236  67.568  1.00  0.00    -0.173 A  
HETATM   34  N   UNL     1      -8.356   2.039  67.635  1.00  0.00    -0.066 NA 
HETATM   35  N   UNL     1      -9.407   3.710  66.348  1.00  0.00    -0.179 NA 
HETATM   36  C   UNL     1     -10.127   4.852  66.284  1.00  0.00    -0.257 A  
ENDBRANCH  24  25
ENDBRANCH  23  24
ENDBRANCH  22  23
ENDBRANCH  11  22
ENDBRANCH   8   9
ENDBRANCH   7   8
ENDBRANCH   5   7
ENDBRANCH   2   5
TORSDOF 12
ENDMDL
MODEL      131
REMARK 921   NORMALIZED FREE ENERGY PREDICTED BY IDOCK:   -4.93 KCAL/MOL
REMARK 922        TOTAL FREE ENERGY PREDICTED BY IDOCK:   -9.98 KCAL/MOL
REMARK 923 INTER-LIGAND FREE ENERGY PREDICTED BY IDOCK:   -8.50 KCAL/MOL
REMARK 924 INTRA-LIGAND FREE ENERGY PREDICTED BY IDOCK:   -1.48 KCAL/MOL
REMARK 927      BINDING AFFINITY PREDICTED BY RF-SCORE:    0.00 PKD
ROOT
HETATM    1  C   UNL     1     -11.869  12.352  63.871  1.00  0.00    -0.551 C  
HETATM    2  C   UNL     1     -11.717  13.291  65.084  1.00  0.00    -0.358 C  
HETATM    3  C   UNL     1     -10.684  14.370  64.739  1.00  0.00    -0.423 C  
HETATM    4  C   UNL     1     -13.079  13.944  65.363  1.00  0.00    -0.236 C  
ENDROOT
BRANCH   2   5
HETATM    5  C   UNL     1     -11.290  12.457  66.303  1.00  0.00    -0.340 C  
HETATM    6  O   UNL     1     -12.063  12.131  67.199  1.00  0.00    -0.575 OA 
BRANCH   5   7
HETATM    7  O   UNL     1      -9.951  12.206  66.336  1.00  0.00    -0.216 OA 
BRANCH   7   8
HETATM    8  C   UNL     1      -9.218  13.018  67.272  1.00  0.00    -0.213 C  
BRANCH   8   9
HETATM    9  O   UNL     1      -8.685  12.286  68.372  1.00  0.00    -0.182 OA 
HETATM   10  P   UNL     1      -7.069  12.093  68.354  1.00  0.00    -0.103 P  
HETATM   11  C   UNL     1      -6.398  13.768  68.479  1.00  0.00    -0.092 C  
HETATM   12  O   UNL     1      -6.570  11.281  67.203  1.00  0.00    -0.086 OA 
HETATM   13  O   UNL     1      -6.669  11.558  69.819  1.00  0.00    -0.122 OA 
BRANCH  13  14
HETATM   14  C   UNL     1      -6.866  10.238  70.238  1.00  0.00    -0.141 C  
BRANCH  14  15
HETATM   15  O   UNL     1      -8.272   9.907  70.138  1.00  0.00    -0.186 OA 
BRANCH  15  16
HETATM   16  C   UNL     1      -8.570   8.805  69.393  1.00  0.00    -0.133 C  
HETATM   17  O   UNL     1      -7.739   7.985  69.021  1.00  0.00    -0.096 OA 
BRANCH  16  18
HETATM   18  C   UNL     1     -10.075   8.711  69.060  1.00  0.00    -0.207 C  
HETATM   19  C   UNL     1     -10.831   9.858  69.762  1.00  0.00    -0.300 C  
HETATM   20  C   UNL     1     -10.649   7.380  69.561  1.00  0.00    -0.244 C  
HETATM   21  C   UNL     1     -10.310   8.843  67.548  1.00  0.00    -0.328 C  
ENDBRANCH  16  18
ENDBRANCH  15  16
ENDBRANCH  14  15
ENDBRANCH  13  14
BRANCH  11  22
HETATM   22  O   UNL     1      -6.958  14.285  69.689  1.00  0.00    -0.122 OA 
BRANCH  22  23
HETATM   23  C   UNL     1      -6.458  15.562  70.027  1.00  0.00    -0.105 C  
BRANCH  23  24
HETATM   24  C   UNL     1      -6.178  16.327  68.741  1.00  0.00    -0.122 C  
BRANCH  24  25
HETATM   25  N   UNL     1      -6.948  17.542  68.707  1.00  0.00    -0.228 NA 
HETATM   26  C   UNL     1      -8.240  17.634  68.285  1.00  0.00    -0.276 A  
HETATM   27  N   UNL     1      -9.085  16.629  68.003  1.00  0.00    -0.215 NA 
HETATM   28  H2  UNL     1      -9.343  21.072  66.748  1.00  0.00     0.000 HD 
HETATM   29  H1  UNL     1     -10.967  20.955  66.979  1.00  0.00     0.000 HD 
HETATM   30  C   UNL     1      -6.462  18.812  68.867  1.00  0.00    -0.263 A  
HETATM   31  N   UNL     1      -7.355  19.718  68.532  1.00  0.00    -0.324 NA 
HETATM   32  C   UNL     1      -8.466  18.990  68.139  1.00  0.00    -0.316 A  
HETATM   33  C   UNL     1      -9.711  19.365  67.617  1.00  0.00    -0.331 A  
HETATM   34  N   UNL     1     -10.060  20.682  67.359  1.00  0.00    -0.327 NA 
HETATM   35  N   UNL     1     -10.617  18.394  67.347  1.00  0.00    -0.420 NA 
HETATM   36  C   UNL     1     -10.261  17.106  67.552  1.00  0.00    -0.323 A  
ENDBRANCH  24  25
ENDBRANCH  23  24
ENDBRANCH  22  23
ENDBRANCH  11  22
ENDBRANCH   8   9
ENDBRANCH   7   8
ENDBRANCH   5   7
ENDBRANCH   2   5
TORSDOF 12
ENDMDL
MODEL      132
REMARK 921   NORMALIZED FREE ENERGY PREDICTED BY IDOCK:   -4.92 KCAL/MOL
REMARK 922        TOTAL FREE ENERGY PREDICTED BY IDOCK:   -9.97 KCAL/MOL
REMARK 923 INTER-LIGAND FREE ENERGY PREDICTED BY IDOCK:   -8.65 KCAL/MOL
REMARK 924 INTRA-LIGAND FREE ENERGY PREDICTED BY IDOCK:   -1.32 KCAL/MOL
REMARK 927      BINDING AFFINITY PREDICTED BY RF-SCORE:    0.00 PKD
ROOT
HETATM    1  C   UNL     1      -6.390   5.244  67.931  1.00  0.00    -0.040 C  
HETATM    2  C   UNL     1      -7.039   6.640  67.860  1.00  0.00    -0.085 C  
HETATM    3  C   UNL     1      -7.560   7.007  69.254  1.00  0.00    -0.096 C  
HETATM    4  C   UNL     1      -5.967   7.650  67.422  1.00  0.00    -0.047 C  
ENDROOT
BRANCH   2   5
HETATM    5  C   UNL     1      -8.167   6.608  66.816  1.00  0.00    -0.114 C  
HETATM    6  O   UNL     1      -8.865   5.620  66.608  1.00  0.00    -0.116 OA 
BRANCH   5   7
HETATM    7  O   UNL     1      -8.244   7.752  66.079  1.00  0.00    -0.110 OA 
BRANCH   7   8
HETATM    8  C   UNL     1      -9.375   8.586  66.394  1.00  0.00    -0.213 C  
BRANCH   8   9
HETATM    9  O   UNL     1      -9.019   9.906  66.798  1.00  0.00    -0.137 OA 
HETATM   10  P   UNL     1     -10.216  11.004  66.697  1.00  0.00    -0.251 P  
HETATM   11  C   UNL     1     -11.474  10.431  67.864  1.00  0.00    -0.036 C  
HETATM   12  O   UNL     1     -10.693  11.251  65.303  1.00  0.00    -0.281 OA 
HETATM   13  O   UNL     1      -9.701  12.298  67.505  1.00  0.00    -0.185 OA 
BRANCH  13  14
HETATM   14  C   UNL     1      -8.767  13.205  66.995  1.00  0.00    -0.189 C  
BRANCH  14  15
HETATM   15  O   UNL     1      -9.456  14.229  66.240  1.00  0.00    -0.284 OA 
BRANCH  15  16
HETATM   16  C   UNL     1     -10.253  15.065  66.964  1.00  0.00    -0.257 C  
HETATM   17  O   UNL     1     -11.417  14.817  67.259  1.00  0.00    -0.350 OA 
BRANCH  16  18
HETATM   18  C   UNL     1      -9.528  16.368  67.363  1.00  0.00    -0.227 C  
HETATM   19  C   UNL     1      -8.740  16.141  68.670  1.00  0.00    -0.214 C  
HETATM   20  C   UNL     1     -10.544  17.492  67.603  1.00  0.00    -0.355 C  
HETATM   21  C   UNL     1      -8.530  16.793  66.275  1.00  0.00    -0.342 C  
ENDBRANCH  16  18
ENDBRANCH  15  16
ENDBRANCH  14  15
ENDBRANCH  13  14
BRANCH  11  22
HETATM   22  O   UNL     1     -10.789  10.358  69.117  1.00  0.00    -0.207 OA 
BRANCH  22  23
HETATM   23  C   UNL     1     -11.547  10.871  70.192  1.00  0.00    -0.338 C  
BRANCH  23  24
HETATM   24  C   UNL     1     -12.198  12.173  69.745  1.00  0.00    -0.144 C  
BRANCH  24  25
HETATM   25  N   UNL     1     -12.686  12.903  70.885  1.00  0.00    -0.259 NA 
HETATM   26  C   UNL     1     -12.337  14.182  71.198  1.00  0.00    -0.372 A  
HETATM   27  N   UNL     1     -11.646  15.052  70.445  1.00  0.00    -0.269 NA 
HETATM   28  H2  UNL     1     -12.420  15.142  75.003  1.00  0.00     0.000 HD 
HETATM   29  H1  UNL     1     -12.569  16.772  74.860  1.00  0.00     0.000 HD 
HETATM   30  C   UNL     1     -13.378  12.380  71.944  1.00  0.00    -0.349 A  
HETATM   31  N   UNL     1     -13.460  13.237  72.939  1.00  0.00    -0.510 NA 
HETATM   32  C   UNL     1     -12.787  14.361  72.493  1.00  0.00    -0.368 A  
HETATM   33  C   UNL     1     -12.469  15.583  73.104  1.00  0.00    -0.460 A  
HETATM   34  N   UNL     1     -12.801  15.884  74.416  1.00  0.00    -0.580 NA 
HETATM   35  N   UNL     1     -11.803  16.513  72.377  1.00  0.00    -0.482 NA 
HETATM   36  C   UNL     1     -11.437  16.203  71.113  1.00  0.00    -0.382 A  
ENDBRANCH  24  25
ENDBRANCH  23  24
ENDBRANCH  22  23
ENDBRANCH  11  22
ENDBRANCH   8   9
ENDBRANCH   7   8
ENDBRANCH   5   7
ENDBRANCH   2   5
TORSDOF 12
ENDMDL
MODEL      133
REMARK 921   NORMALIZED FREE ENERGY PREDICTED BY IDOCK:   -4.92 KCAL/MOL
REMARK 922        TOTAL FREE ENERGY PREDICTED BY IDOCK:   -9.97 KCAL/MOL
REMARK 923 INTER-LIGAND FREE ENERGY PREDICTED BY IDOCK:   -8.12 KCAL/MOL
REMARK 924 INTRA-LIGAND FREE ENERGY PREDICTED BY IDOCK:   -1.85 KCAL/MOL
REMARK 927      BINDING AFFINITY PREDICTED BY RF-SCORE:    0.00 PKD
ROOT
HETATM    1  C   UNL     1      -9.468   3.889  64.424  1.00  0.00    -0.163 C  
HETATM    2  C   UNL     1      -9.275   4.493  65.828  1.00  0.00    -0.146 C  
HETATM    3  C   UNL     1     -10.602   5.113  66.279  1.00  0.00    -0.325 C  
HETATM    4  C   UNL     1      -8.875   3.362  66.790  1.00  0.00    -0.146 C  
ENDROOT
BRANCH   2   5
HETATM    5  C   UNL     1      -8.146   5.535  65.767  1.00  0.00    -0.112 C  
HETATM    6  O   UNL     1      -7.012   5.325  66.188  1.00  0.00    -0.060 OA 
BRANCH   5   7
HETATM    7  O   UNL     1      -8.561   6.743  65.292  1.00  0.00    -0.113 OA 
BRANCH   7   8
HETATM    8  C   UNL     1      -7.902   7.874  65.891  1.00  0.00    -0.101 C  
BRANCH   8   9
HETATM    9  O   UNL     1      -8.537   8.348  67.075  1.00  0.00    -0.119 OA 
HETATM   10  P   UNL     1      -7.696   9.463  67.911  1.00  0.00    -0.087 P  
HETATM   11  C   UNL     1      -7.566  10.881  66.795  1.00  0.00    -0.134 C  
HETATM   12  O   UNL     1      -6.403   8.955  68.464  1.00  0.00    -0.052 OA 
HETATM   13  O   UNL     1      -8.724  10.085  68.982  1.00  0.00    -0.137 OA 
BRANCH  13  14
HETATM   14  C   UNL     1      -9.105   9.429  70.157  1.00  0.00    -0.231 C  
BRANCH  14  15
HETATM   15  O   UNL     1     -10.335   8.702  69.923  1.00  0.00    -0.199 OA 
BRANCH  15  16
HETATM   16  C   UNL     1     -11.153   8.557  71.004  1.00  0.00    -0.260 C  
HETATM   17  O   UNL     1     -11.423   9.462  71.785  1.00  0.00    -0.380 OA 
BRANCH  16  18
HETATM   18  C   UNL     1     -11.695   7.118  71.141  1.00  0.00    -0.350 C  
HETATM   19  C   UNL     1     -11.389   6.326  69.853  1.00  0.00    -0.504 C  
HETATM   20  C   UNL     1     -13.216   7.138  71.343  1.00  0.00    -0.391 C  
HETATM   21  C   UNL     1     -11.025   6.391  72.316  1.00  0.00    -0.289 C  
ENDBRANCH  16  18
ENDBRANCH  15  16
ENDBRANCH  14  15
ENDBRANCH  13  14
BRANCH  11  22
HETATM   22  O   UNL     1      -8.922  11.215  66.487  1.00  0.00    -0.167 OA 
BRANCH  22  23
HETATM   23  C   UNL     1      -9.202  12.590  66.646  1.00  0.00    -0.223 C  
BRANCH  23  24
HETATM   24  C   UNL     1     -10.689  12.810  66.403  1.00  0.00    -0.262 C  
BRANCH  24  25
HETATM   25  N   UNL     1     -11.403  12.808  67.653  1.00  0.00    -0.290 NA 
HETATM   26  C   UNL     1     -11.662  13.915  68.403  1.00  0.00    -0.356 A  
HETATM   27  N   UNL     1     -11.480  15.200  68.060  1.00  0.00    -0.336 NA 
HETATM   28  H2  UNL     1     -11.999  13.370  72.275  1.00  0.00     0.000 HD 
HETATM   29  H1  UNL     1     -12.883  14.704  72.653  1.00  0.00     0.000 HD 
HETATM   30  C   UNL     1     -11.730  11.705  68.395  1.00  0.00    -0.307 A  
HETATM   31  N   UNL     1     -12.148  12.038  69.597  1.00  0.00    -0.264 NA 
HETATM   32  C   UNL     1     -12.084  13.420  69.623  1.00  0.00    -0.289 A  
HETATM   33  C   UNL     1     -12.331  14.364  70.630  1.00  0.00    -0.351 A  
HETATM   34  N   UNL     1     -12.703  14.017  71.920  1.00  0.00    -0.319 NA 
HETATM   35  N   UNL     1     -12.198  15.679  70.329  1.00  0.00    -0.396 NA 
HETATM   36  C   UNL     1     -11.789  16.017  69.085  1.00  0.00    -0.261 A  
ENDBRANCH  24  25
ENDBRANCH  23  24
ENDBRANCH  22  23
ENDBRANCH  11  22
ENDBRANCH   8   9
ENDBRANCH   7   8
ENDBRANCH   5   7
ENDBRANCH   2   5
TORSDOF 12
ENDMDL
MODEL      134
REMARK 921   NORMALIZED FREE ENERGY PREDICTED BY IDOCK:   -4.91 KCAL/MOL
REMARK 922        TOTAL FREE ENERGY PREDICTED BY IDOCK:   -9.95 KCAL/MOL
REMARK 923 INTER-LIGAND FREE ENERGY PREDICTED BY IDOCK:   -8.88 KCAL/MOL
REMARK 924 INTRA-LIGAND FREE ENERGY PREDICTED BY IDOCK:   -1.07 KCAL/MOL
REMARK 927      BINDING AFFINITY PREDICTED BY RF-SCORE:    0.00 PKD
ROOT
HETATM    1  C   UNL     1      -8.537   3.303  65.587  1.00  0.00    -0.115 C  
HETATM    2  C   UNL     1      -8.998   4.059  66.848  1.00  0.00    -0.141 C  
HETATM    3  C   UNL     1     -10.202   4.933  66.479  1.00  0.00    -0.305 C  
HETATM    4  C   UNL     1      -9.411   3.025  67.908  1.00  0.00    -0.255 C  
ENDROOT
BRANCH   2   5
HETATM    5  C   UNL     1      -7.824   4.895  67.381  1.00  0.00    -0.095 C  
HETATM    6  O   UNL     1      -7.048   4.494  68.244  1.00  0.00    -0.055 OA 
BRANCH   5   7
HETATM    7  O   UNL     1      -7.794   6.158  66.871  1.00  0.00    -0.102 OA 
BRANCH   7   8
HETATM    8  C   UNL     1      -7.619   7.193  67.857  1.00  0.00    -0.111 C  
BRANCH   8   9
HETATM    9  O   UNL     1      -8.758   7.388  68.691  1.00  0.00    -0.128 OA 
HETATM   10  P   UNL     1      -8.579   8.517  69.850  1.00  0.00    -0.138 P  
HETATM   11  C   UNL     1      -8.325  10.068  68.955  1.00  0.00    -0.130 C  
HETATM   12  O   UNL     1      -7.535   8.179  70.865  1.00  0.00    -0.056 OA 
HETATM   13  O   UNL     1     -10.055   8.802  70.425  1.00  0.00    -0.181 OA 
BRANCH  13  14
HETATM   14  C   UNL     1     -10.720   7.941  71.305  1.00  0.00    -0.228 C  
BRANCH  14  15
HETATM   15  O   UNL     1      -9.848   6.838  71.647  1.00  0.00    -0.167 OA 
BRANCH  15  16
HETATM   16  C   UNL     1     -10.311   5.595  71.330  1.00  0.00    -0.228 C  
HETATM   17  O   UNL     1     -10.841   5.314  70.261  1.00  0.00    -0.225 OA 
BRANCH  16  18
HETATM   18  C   UNL     1     -10.103   4.582  72.476  1.00  0.00    -0.233 C  
HETATM   19  C   UNL     1     -11.360   4.547  73.369  1.00  0.00    -0.376 C  
HETATM   20  C   UNL     1      -8.908   4.996  73.343  1.00  0.00    -0.113 C  
HETATM   21  C   UNL     1      -9.877   3.168  71.920  1.00  0.00    -0.238 C  
ENDBRANCH  16  18
ENDBRANCH  15  16
ENDBRANCH  14  15
ENDBRANCH  13  14
BRANCH  11  22
HETATM   22  O   UNL     1      -9.485  10.193  68.127  1.00  0.00    -0.141 OA 
BRANCH  22  23
HETATM   23  C   UNL     1     -10.180  11.405  68.330  1.00  0.00    -0.198 C  
BRANCH  23  24
HETATM   24  C   UNL     1     -11.549  11.291  67.674  1.00  0.00    -0.210 C  
BRANCH  24  25
HETATM   25  N   UNL     1     -11.914  12.542  67.062  1.00  0.00    -0.531 NA 
HETATM   26  C   UNL     1     -12.134  12.723  65.730  1.00  0.00    -0.448 A  
HETATM   27  N   UNL     1     -12.236  11.780  64.779  1.00  0.00    -0.162 NA 
HETATM   28  H2  UNL     1     -11.391  16.301  64.299  1.00  0.00     0.000 HD 
HETATM   29  H1  UNL     1     -12.336  16.248  62.955  1.00  0.00     0.000 HD 
HETATM   30  C   UNL     1     -11.876  13.774  67.658  1.00  0.00    -0.378 A  
HETATM   31  N   UNL     1     -12.018  14.741  66.778  1.00  0.00    -0.274 NA 
HETATM   32  C   UNL     1     -12.154  14.095  65.561  1.00  0.00    -0.414 A  
HETATM   33  C   UNL     1     -12.273  14.562  64.245  1.00  0.00    -0.415 A  
HETATM   34  N   UNL     1     -12.249  15.908  63.913  1.00  0.00    -0.750 NA 
HETATM   35  N   UNL     1     -12.416  13.655  63.248  1.00  0.00    -0.773 NA 
HETATM   36  C   UNL     1     -12.391  12.340  63.565  1.00  0.00    -0.565 A  
ENDBRANCH  24  25
ENDBRANCH  23  24
ENDBRANCH  22  23
ENDBRANCH  11  22
ENDBRANCH   8   9
ENDBRANCH   7   8
ENDBRANCH   5   7
ENDBRANCH   2   5
TORSDOF 12
ENDMDL
MODEL      135
REMARK 921   NORMALIZED FREE ENERGY PREDICTED BY IDOCK:   -4.90 KCAL/MOL
REMARK 922        TOTAL FREE ENERGY PREDICTED BY IDOCK:   -9.94 KCAL/MOL
REMARK 923 INTER-LIGAND FREE ENERGY PREDICTED BY IDOCK:   -8.29 KCAL/MOL
REMARK 924 INTRA-LIGAND FREE ENERGY PREDICTED BY IDOCK:   -1.65 KCAL/MOL
REMARK 927      BINDING AFFINITY PREDICTED BY RF-SCORE:    0.00 PKD
ROOT
HETATM    1  C   UNL     1      -7.854   3.459  71.764  1.00  0.00    -0.058 C  
HETATM    2  C   UNL     1      -7.578   4.920  72.167  1.00  0.00    -0.089 C  
HETATM    3  C   UNL     1      -8.918   5.605  72.463  1.00  0.00    -0.133 C  
HETATM    4  C   UNL     1      -6.704   4.916  73.431  1.00  0.00    -0.068 C  
ENDROOT
BRANCH   2   5
HETATM    5  C   UNL     1      -6.820   5.613  71.023  1.00  0.00    -0.057 C  
HETATM    6  O   UNL     1      -5.649   5.371  70.748  1.00  0.00    -0.008 OA 
BRANCH   5   7
HETATM    7  O   UNL     1      -7.549   6.592  70.416  1.00  0.00    -0.092 OA 
BRANCH   7   8
HETATM    8  C   UNL     1      -7.906   6.305  69.051  1.00  0.00    -0.109 C  
BRANCH   8   9
HETATM    9  O   UNL     1      -8.392   7.437  68.335  1.00  0.00    -0.124 OA 
HETATM   10  P   UNL     1     -10.011   7.519  68.188  1.00  0.00    -0.185 P  
HETATM   11  C   UNL     1     -10.624   7.680  69.882  1.00  0.00    -0.235 C  
HETATM   12  O   UNL     1     -10.601   6.401  67.391  1.00  0.00    -0.213 OA 
HETATM   13  O   UNL     1     -10.335   9.006  67.665  1.00  0.00    -0.226 OA 
BRANCH  13  14
HETATM   14  C   UNL     1     -10.151   9.416  66.340  1.00  0.00    -0.262 C  
BRANCH  14  15
HETATM   15  O   UNL     1     -10.945  10.600  66.090  1.00  0.00    -0.076 OA 
BRANCH  15  16
HETATM   16  C   UNL     1     -10.244  11.746  65.859  1.00  0.00    -0.237 C  
HETATM   17  O   UNL     1      -9.151  11.991  66.356  1.00  0.00    -0.211 OA 
BRANCH  16  18
HETATM   18  C   UNL     1     -10.989  12.709  64.909  1.00  0.00    -0.326 C  
HETATM   19  C   UNL     1     -12.493  12.712  65.252  1.00  0.00    -0.483 C  
HETATM   20  C   UNL     1     -10.829  12.250  63.454  1.00  0.00    -0.457 C  
HETATM   21  C   UNL     1     -10.464  14.143  65.063  1.00  0.00    -0.447 C  
ENDBRANCH  16  18
ENDBRANCH  15  16
ENDBRANCH  14  15
ENDBRANCH  13  14
BRANCH  11  22
HETATM   22  O   UNL     1      -9.977   8.853  70.383  1.00  0.00    -0.177 OA 
BRANCH  22  23
HETATM   23  C   UNL     1     -10.767   9.565  71.312  1.00  0.00    -0.316 C  
BRANCH  23  24
HETATM   24  C   UNL     1     -12.150   9.770  70.711  1.00  0.00    -0.279 C  
BRANCH  24  25
HETATM   25  N   UNL     1     -12.604  11.114  70.954  1.00  0.00    -0.381 NA 
HETATM   26  C   UNL     1     -12.152  12.220  70.298  1.00  0.00    -0.295 A  
HETATM   27  N   UNL     1     -11.365  12.265  69.211  1.00  0.00    -0.263 NA 
HETATM   28  H2  UNL     1     -12.260  15.604  72.283  1.00  0.00     0.000 HD 
HETATM   29  H1  UNL     1     -12.259  16.652  71.016  1.00  0.00     0.000 HD 
HETATM   30  C   UNL     1     -13.371  11.530  72.009  1.00  0.00    -0.292 A  
HETATM   31  N   UNL     1     -13.405  12.843  72.095  1.00  0.00    -0.530 NA 
HETATM   32  C   UNL     1     -12.622  13.286  71.043  1.00  0.00    -0.324 A  
HETATM   33  C   UNL     1     -12.214  14.563  70.634  1.00  0.00    -0.331 A  
HETATM   34  N   UNL     1     -12.556  15.722  71.314  1.00  0.00    -0.458 NA 
HETATM   35  N   UNL     1     -11.447  14.671  69.521  1.00  0.00    -0.281 NA 
HETATM   36  C   UNL     1     -11.074  13.538  68.884  1.00  0.00    -0.267 A  
ENDBRANCH  24  25
ENDBRANCH  23  24
ENDBRANCH  22  23
ENDBRANCH  11  22
ENDBRANCH   8   9
ENDBRANCH   7   8
ENDBRANCH   5   7
ENDBRANCH   2   5
TORSDOF 12
ENDMDL
MODEL      136
REMARK 921   NORMALIZED FREE ENERGY PREDICTED BY IDOCK:   -4.90 KCAL/MOL
REMARK 922        TOTAL FREE ENERGY PREDICTED BY IDOCK:   -9.93 KCAL/MOL
REMARK 923 INTER-LIGAND FREE ENERGY PREDICTED BY IDOCK:   -8.58 KCAL/MOL
REMARK 924 INTRA-LIGAND FREE ENERGY PREDICTED BY IDOCK:   -1.35 KCAL/MOL
REMARK 927      BINDING AFFINITY PREDICTED BY RF-SCORE:    0.00 PKD
ROOT
HETATM    1  C   UNL     1      -6.527   6.600  66.378  1.00  0.00    -0.043 C  
HETATM    2  C   UNL     1      -6.817   8.106  66.230  1.00  0.00    -0.058 C  
HETATM    3  C   UNL     1      -6.672   8.768  67.606  1.00  0.00    -0.066 C  
HETATM    4  C   UNL     1      -5.791   8.702  65.254  1.00  0.00    -0.048 C  
ENDROOT
BRANCH   2   5
HETATM    5  C   UNL     1      -8.231   8.283  65.655  1.00  0.00    -0.134 C  
HETATM    6  O   UNL     1      -9.045   7.367  65.577  1.00  0.00     0.022 OA 
BRANCH   5   7
HETATM    7  O   UNL     1      -8.451   9.530  65.152  1.00  0.00    -0.133 OA 
BRANCH   7   8
HETATM    8  C   UNL     1      -9.735  10.089  65.489  1.00  0.00    -0.289 C  
BRANCH   8   9
HETATM    9  O   UNL     1      -9.707  11.495  65.716  1.00  0.00    -0.221 OA 
HETATM   10  P   UNL     1     -11.103  12.134  66.259  1.00  0.00    -0.337 P  
HETATM   11  C   UNL     1     -11.374  11.359  67.870  1.00  0.00    -0.303 C  
HETATM   12  O   UNL     1     -12.235  12.023  65.290  1.00  0.00    -0.437 OA 
HETATM   13  O   UNL     1     -10.745  13.622  66.758  1.00  0.00    -0.271 OA 
BRANCH  13  14
HETATM   14  C   UNL     1     -10.540  14.699  65.889  1.00  0.00    -0.311 C  
BRANCH  14  15
HETATM   15  O   UNL     1     -10.811  15.937  66.587  1.00  0.00    -0.301 OA 
BRANCH  15  16
HETATM   16  C   UNL     1     -10.600  17.079  65.873  1.00  0.00    -0.216 C  
HETATM   17  O   UNL     1     -10.966  17.240  64.715  1.00  0.00    -0.950 OA 
BRANCH  16  18
HETATM   18  C   UNL     1      -9.836  18.147  66.686  1.00  0.00    -0.350 C  
HETATM   19  C   UNL     1     -10.502  19.524  66.484  1.00  0.00    -0.595 C  
HETATM   20  C   UNL     1      -8.382  18.241  66.208  1.00  0.00    -0.230 C  
HETATM   21  C   UNL     1      -9.870  17.820  68.186  1.00  0.00    -0.326 C  
ENDBRANCH  16  18
ENDBRANCH  15  16
ENDBRANCH  14  15
ENDBRANCH  13  14
BRANCH  11  22
HETATM   22  O   UNL     1     -10.199  11.680  68.620  1.00  0.00    -0.209 OA 
BRANCH  22  23
HETATM   23  C   UNL     1      -9.620  10.555  69.249  1.00  0.00    -0.181 C  
BRANCH  23  24
HETATM   24  C   UNL     1     -10.620   9.996  70.252  1.00  0.00    -0.295 C  
BRANCH  24  25
HETATM   25  N   UNL     1     -10.634   8.558  70.191  1.00  0.00    -0.228 NA 
HETATM   26  C   UNL     1     -10.704   7.734  71.274  1.00  0.00    -0.228 A  
HETATM   27  N   UNL     1     -10.953   8.073  72.549  1.00  0.00    -0.337 NA 
HETATM   28  H2  UNL     1      -9.037   4.200  70.900  1.00  0.00     0.000 HD 
HETATM   29  H1  UNL     1      -9.864   3.394  72.069  1.00  0.00     0.000 HD 
HETATM   30  C   UNL     1     -10.353   7.793  69.092  1.00  0.00    -0.215 A  
HETATM   31  N   UNL     1     -10.198   6.525  69.411  1.00  0.00    -0.175 NA 
HETATM   32  C   UNL     1     -10.389   6.481  70.781  1.00  0.00    -0.204 A  
HETATM   33  C   UNL     1     -10.295   5.444  71.720  1.00  0.00    -0.212 A  
HETATM   34  N   UNL     1      -9.931   4.148  71.386  1.00  0.00    -0.179 NA 
HETATM   35  N   UNL     1     -10.571   5.722  73.018  1.00  0.00    -0.226 NA 
HETATM   36  C   UNL     1     -10.880   6.995  73.353  1.00  0.00    -0.299 A  
ENDBRANCH  24  25
ENDBRANCH  23  24
ENDBRANCH  22  23
ENDBRANCH  11  22
ENDBRANCH   8   9
ENDBRANCH   7   8
ENDBRANCH   5   7
ENDBRANCH   2   5
TORSDOF 12
ENDMDL
MODEL      137
REMARK 921   NORMALIZED FREE ENERGY PREDICTED BY IDOCK:   -4.90 KCAL/MOL
REMARK 922        TOTAL FREE ENERGY PREDICTED BY IDOCK:   -9.93 KCAL/MOL
REMARK 923 INTER-LIGAND FREE ENERGY PREDICTED BY IDOCK:   -8.68 KCAL/MOL
REMARK 924 INTRA-LIGAND FREE ENERGY PREDICTED BY IDOCK:   -1.25 KCAL/MOL
REMARK 927      BINDING AFFINITY PREDICTED BY RF-SCORE:    0.00 PKD
ROOT
HETATM    1  C   UNL     1      -9.024   2.263  65.621  1.00  0.00    -0.118 C  
HETATM    2  C   UNL     1      -8.761   3.488  66.518  1.00  0.00    -0.124 C  
HETATM    3  C   UNL     1      -9.323   3.199  67.915  1.00  0.00    -0.252 C  
HETATM    4  C   UNL     1      -7.243   3.709  66.602  1.00  0.00    -0.067 C  
ENDROOT
BRANCH   2   5
HETATM    5  C   UNL     1      -9.422   4.720  65.878  1.00  0.00    -0.166 C  
HETATM    6  O   UNL     1     -10.638   4.886  65.836  1.00  0.00    -0.287 OA 
BRANCH   5   7
HETATM    7  O   UNL     1      -8.527   5.553  65.276  1.00  0.00    -0.139 OA 
BRANCH   7   8
HETATM    8  C   UNL     1      -8.612   6.925  65.705  1.00  0.00    -0.131 C  
BRANCH   8   9
HETATM    9  O   UNL     1      -8.766   7.077  67.113  1.00  0.00    -0.119 OA 
HETATM   10  P   UNL     1      -7.633   7.994  67.837  1.00  0.00    -0.116 P  
HETATM   11  C   UNL     1      -7.838   9.641  67.117  1.00  0.00    -0.091 C  
HETATM   12  O   UNL     1      -6.255   7.423  67.761  1.00  0.00    -0.040 OA 
HETATM   13  O   UNL     1      -8.189   8.301  69.317  1.00  0.00    -0.114 OA 
BRANCH  13  14
HETATM   14  C   UNL     1      -8.163   7.370  70.359  1.00  0.00    -0.121 C  
BRANCH  14  15
HETATM   15  O   UNL     1      -9.450   6.713  70.449  1.00  0.00    -0.165 OA 
BRANCH  15  16
HETATM   16  C   UNL     1      -9.598   5.836  71.482  1.00  0.00    -0.154 C  
HETATM   17  O   UNL     1      -8.879   4.860  71.659  1.00  0.00    -0.127 OA 
BRANCH  16  18
HETATM   18  C   UNL     1     -10.783   6.205  72.400  1.00  0.00    -0.267 C  
HETATM   19  C   UNL     1     -10.319   7.234  73.452  1.00  0.00    -0.410 C  
HETATM   20  C   UNL     1     -11.294   4.961  73.137  1.00  0.00    -0.395 C  
HETATM   21  C   UNL     1     -11.925   6.837  71.591  1.00  0.00    -0.391 C  
ENDBRANCH  16  18
ENDBRANCH  15  16
ENDBRANCH  14  15
ENDBRANCH  13  14
BRANCH  11  22
HETATM   22  O   UNL     1      -9.198   9.983  67.394  1.00  0.00    -0.137 OA 
BRANCH  22  23
HETATM   23  C   UNL     1      -9.946  10.265  66.230  1.00  0.00    -0.235 C  
BRANCH  23  24
HETATM   24  C   UNL     1     -11.106  11.174  66.610  1.00  0.00    -0.189 C  
BRANCH  24  25
HETATM   25  N   UNL     1     -11.256  12.223  65.636  1.00  0.00    -0.320 NA 
HETATM   26  C   UNL     1     -10.729  13.474  65.751  1.00  0.00    -0.275 A  
HETATM   27  N   UNL     1      -9.845  13.912  66.663  1.00  0.00    -0.276 NA 
HETATM   28  H2  UNL     1     -12.674  16.370  63.953  1.00  0.00     0.000 HD 
HETATM   29  H1  UNL     1     -11.450  17.457  63.806  1.00  0.00     0.000 HD 
HETATM   30  C   UNL     1     -12.117  12.221  64.573  1.00  0.00    -0.383 A  
HETATM   31  N   UNL     1     -12.207  13.412  64.020  1.00  0.00    -0.597 NA 
HETATM   32  C   UNL     1     -11.361  14.212  64.768  1.00  0.00    -0.371 A  
HETATM   33  C   UNL     1     -11.066  15.583  64.727  1.00  0.00    -0.407 A  
HETATM   34  N   UNL     1     -11.665  16.461  63.837  1.00  0.00    -1.024 NA 
HETATM   35  N   UNL     1     -10.154  16.073  65.601  1.00  0.00    -0.401 NA 
HETATM   36  C   UNL     1      -9.604  15.227  66.502  1.00  0.00    -0.271 A  
ENDBRANCH  24  25
ENDBRANCH  23  24
ENDBRANCH  22  23
ENDBRANCH  11  22
ENDBRANCH   8   9
ENDBRANCH   7   8
ENDBRANCH   5   7
ENDBRANCH   2   5
TORSDOF 12
ENDMDL
MODEL      138
REMARK 921   NORMALIZED FREE ENERGY PREDICTED BY IDOCK:   -4.90 KCAL/MOL
REMARK 922        TOTAL FREE ENERGY PREDICTED BY IDOCK:   -9.93 KCAL/MOL
REMARK 923 INTER-LIGAND FREE ENERGY PREDICTED BY IDOCK:   -8.32 KCAL/MOL
REMARK 924 INTRA-LIGAND FREE ENERGY PREDICTED BY IDOCK:   -1.61 KCAL/MOL
REMARK 927      BINDING AFFINITY PREDICTED BY RF-SCORE:    0.00 PKD
ROOT
HETATM    1  C   UNL     1      -9.708  11.839  62.974  1.00  0.00    -0.238 C  
HETATM    2  C   UNL     1     -10.423  12.081  64.317  1.00  0.00    -0.369 C  
HETATM    3  C   UNL     1     -10.313  13.570  64.666  1.00  0.00    -0.406 C  
HETATM    4  C   UNL     1     -11.901  11.693  64.154  1.00  0.00    -0.264 C  
ENDROOT
BRANCH   2   5
HETATM    5  C   UNL     1      -9.776  11.191  65.390  1.00  0.00    -0.231 C  
HETATM    6  O   UNL     1      -8.613  10.801  65.329  1.00  0.00    -0.183 OA 
BRANCH   5   7
HETATM    7  O   UNL     1     -10.652  10.799  66.358  1.00  0.00    -0.246 OA 
BRANCH   7   8
HETATM    8  C   UNL     1     -10.070  10.672  67.669  1.00  0.00    -0.177 C  
BRANCH   8   9
HETATM    9  O   UNL     1     -10.168  11.854  68.458  1.00  0.00    -0.213 OA 
HETATM   10  P   UNL     1     -11.683  12.398  68.701  1.00  0.00    -0.278 P  
HETATM   11  C   UNL     1     -12.504  11.085  69.636  1.00  0.00    -0.140 C  
HETATM   12  O   UNL     1     -12.377  12.830  67.450  1.00  0.00    -0.304 OA 
HETATM   13  O   UNL     1     -11.577  13.503  69.866  1.00  0.00    -0.261 OA 
BRANCH  13  14
HETATM   14  C   UNL     1     -11.098  14.800  69.658  1.00  0.00    -0.272 C  
BRANCH  14  15
HETATM   15  O   UNL     1     -10.491  14.883  68.346  1.00  0.00    -0.234 OA 
BRANCH  15  16
HETATM   16  C   UNL     1      -9.206  15.335  68.315  1.00  0.00    -0.189 C  
HETATM   17  O   UNL     1      -8.263  14.757  68.843  1.00  0.00    -0.159 OA 
BRANCH  16  18
HETATM   18  C   UNL     1      -9.071  16.668  67.547  1.00  0.00    -0.204 C  
HETATM   19  C   UNL     1     -10.407  17.000  66.852  1.00  0.00    -0.303 C  
HETATM   20  C   UNL     1      -7.984  16.554  66.470  1.00  0.00    -0.345 C  
HETATM   21  C   UNL     1      -8.735  17.820  68.505  1.00  0.00    -0.284 C  
ENDBRANCH  16  18
ENDBRANCH  15  16
ENDBRANCH  14  15
ENDBRANCH  13  14
BRANCH  11  22
HETATM   22  O   UNL     1     -11.697  10.925  70.806  1.00  0.00    -0.328 OA 
BRANCH  22  23
HETATM   23  C   UNL     1     -11.988   9.742  71.521  1.00  0.00    -0.407 C  
BRANCH  23  24
HETATM   24  C   UNL     1     -10.691   8.972  71.727  1.00  0.00    -0.367 C  
BRANCH  24  25
HETATM   25  N   UNL     1     -10.677   7.792  70.904  1.00  0.00    -0.219 NA 
HETATM   26  C   UNL     1      -9.746   7.520  69.947  1.00  0.00    -0.171 A  
HETATM   27  N   UNL     1      -8.596   8.173  69.712  1.00  0.00    -0.132 NA 
HETATM   28  H2  UNL     1     -10.926   5.309  66.927  1.00  0.00     0.000 HD 
HETATM   29  H1  UNL     1      -9.465   4.741  66.431  1.00  0.00     0.000 HD 
HETATM   30  C   UNL     1     -11.691   6.881  70.780  1.00  0.00    -0.369 A  
HETATM   31  N   UNL     1     -11.486   6.061  69.771  1.00  0.00    -0.305 NA 
HETATM   32  C   UNL     1     -10.281   6.471  69.224  1.00  0.00    -0.187 A  
HETATM   33  C   UNL     1      -9.555   6.048  68.102  1.00  0.00    -0.118 A  
HETATM   34  N   UNL     1      -9.994   5.048  67.247  1.00  0.00    -0.179 NA 
HETATM   35  N   UNL     1      -8.370   6.649  67.837  1.00  0.00    -0.119 NA 
HETATM   36  C   UNL     1      -7.964   7.657  68.641  1.00  0.00    -0.122 A  
ENDBRANCH  24  25
ENDBRANCH  23  24
ENDBRANCH  22  23
ENDBRANCH  11  22
ENDBRANCH   8   9
ENDBRANCH   7   8
ENDBRANCH   5   7
ENDBRANCH   2   5
TORSDOF 12
ENDMDL
MODEL      139
REMARK 921   NORMALIZED FREE ENERGY PREDICTED BY IDOCK:   -4.87 KCAL/MOL
REMARK 922        TOTAL FREE ENERGY PREDICTED BY IDOCK:   -9.89 KCAL/MOL
REMARK 923 INTER-LIGAND FREE ENERGY PREDICTED BY IDOCK:   -8.52 KCAL/MOL
REMARK 924 INTRA-LIGAND FREE ENERGY PREDICTED BY IDOCK:   -1.37 KCAL/MOL
REMARK 927      BINDING AFFINITY PREDICTED BY RF-SCORE:    0.00 PKD
ROOT
HETATM    1  C   UNL     1      -6.876   9.848  67.943  1.00  0.00    -0.076 C  
HETATM    2  C   UNL     1      -7.338   9.878  66.473  1.00  0.00    -0.099 C  
HETATM    3  C   UNL     1      -6.196  10.431  65.614  1.00  0.00    -0.126 C  
HETATM    4  C   UNL     1      -7.666   8.440  66.041  1.00  0.00    -0.090 C  
ENDROOT
BRANCH   2   5
HETATM    5  C   UNL     1      -8.604  10.743  66.371  1.00  0.00    -0.158 C  
HETATM    6  O   UNL     1      -9.466  10.578  65.512  1.00  0.00    -0.189 OA 
BRANCH   5   7
HETATM    7  O   UNL     1      -8.621  11.771  67.266  1.00  0.00    -0.149 OA 
BRANCH   7   8
HETATM    8  C   UNL     1      -8.824  13.069  66.675  1.00  0.00    -0.073 C  
BRANCH   8   9
HETATM    9  O   UNL     1      -9.478  13.996  67.537  1.00  0.00    -0.210 OA 
HETATM   10  P   UNL     1     -10.869  14.613  66.959  1.00  0.00    -0.318 P  
HETATM   11  C   UNL     1     -11.976  13.192  66.797  1.00  0.00    -0.373 C  
HETATM   12  O   UNL     1     -10.696  15.441  65.726  1.00  0.00    -0.321 OA 
HETATM   13  O   UNL     1     -11.582  15.343  68.204  1.00  0.00    -0.347 OA 
BRANCH  13  14
HETATM   14  C   UNL     1     -11.185  16.589  68.699  1.00  0.00    -0.297 C  
BRANCH  14  15
HETATM   15  O   UNL     1     -10.758  17.428  67.599  1.00  0.00    -0.363 OA 
BRANCH  15  16
HETATM   16  C   UNL     1      -9.587  18.100  67.785  1.00  0.00    -0.286 C  
HETATM   17  O   UNL     1      -8.571  17.590  68.244  1.00  0.00    -0.250 OA 
BRANCH  16  18
HETATM   18  C   UNL     1      -9.686  19.581  67.362  1.00  0.00    -0.449 C  
HETATM   19  C   UNL     1     -10.441  20.378  68.446  1.00  0.00    -0.120 C  
HETATM   20  C   UNL     1     -10.461  19.708  66.045  1.00  0.00    -0.622 C  
HETATM   21  C   UNL     1      -8.289  20.199  67.205  1.00  0.00    -0.394 C  
ENDBRANCH  16  18
ENDBRANCH  15  16
ENDBRANCH  14  15
ENDBRANCH  13  14
BRANCH  11  22
HETATM   22  O   UNL     1     -12.033  12.635  68.113  1.00  0.00    -0.322 OA 
BRANCH  22  23
HETATM   23  C   UNL     1     -11.836  11.237  68.130  1.00  0.00    -0.205 C  
BRANCH  23  24
HETATM   24  C   UNL     1     -11.260  10.847  69.484  1.00  0.00    -0.277 C  
BRANCH  24  25
HETATM   25  N   UNL     1     -11.064   9.423  69.551  1.00  0.00    -0.169 NA 
HETATM   26  C   UNL     1     -11.281   8.658  70.657  1.00  0.00    -0.252 A  
HETATM   27  N   UNL     1     -11.873   9.025  71.806  1.00  0.00    -0.348 NA 
HETATM   28  H2  UNL     1      -9.112   5.405  70.993  1.00  0.00     0.000 HD 
HETATM   29  H1  UNL     1     -10.080   4.547  72.008  1.00  0.00     0.000 HD 
HETATM   30  C   UNL     1     -10.427   8.651  68.618  1.00  0.00    -0.177 A  
HETATM   31  N   UNL     1     -10.184   7.441  69.076  1.00  0.00    -0.194 NA 
HETATM   32  C   UNL     1     -10.691   7.443  70.364  1.00  0.00    -0.237 A  
HETATM   33  C   UNL     1     -10.687   6.485  71.388  1.00  0.00    -0.238 A  
HETATM   34  N   UNL     1     -10.082   5.244  71.263  1.00  0.00    -0.204 NA 
HETATM   35  N   UNL     1     -11.302   6.788  72.557  1.00  0.00    -0.265 NA 
HETATM   36  C   UNL     1     -11.850   8.016  72.698  1.00  0.00    -0.321 A  
ENDBRANCH  24  25
ENDBRANCH  23  24
ENDBRANCH  22  23
ENDBRANCH  11  22
ENDBRANCH   8   9
ENDBRANCH   7   8
ENDBRANCH   5   7
ENDBRANCH   2   5
TORSDOF 12
ENDMDL
MODEL      140
REMARK 921   NORMALIZED FREE ENERGY PREDICTED BY IDOCK:   -4.86 KCAL/MOL
REMARK 922        TOTAL FREE ENERGY PREDICTED BY IDOCK:   -9.86 KCAL/MOL
REMARK 923 INTER-LIGAND FREE ENERGY PREDICTED BY IDOCK:   -8.07 KCAL/MOL
REMARK 924 INTRA-LIGAND FREE ENERGY PREDICTED BY IDOCK:   -1.79 KCAL/MOL
REMARK 927      BINDING AFFINITY PREDICTED BY RF-SCORE:    0.00 PKD
ROOT
HETATM    1  C   UNL     1     -11.930  12.780  63.529  1.00  0.00    -0.633 C  
HETATM    2  C   UNL     1     -11.575  13.361  64.911  1.00  0.00    -0.354 C  
HETATM    3  C   UNL     1     -10.629  14.551  64.712  1.00  0.00    -0.401 C  
HETATM    4  C   UNL     1     -12.873  13.834  65.585  1.00  0.00    -0.456 C  
ENDROOT
BRANCH   2   5
HETATM    5  C   UNL     1     -10.932  12.254  65.762  1.00  0.00    -0.301 C  
HETATM    6  O   UNL     1      -9.737  11.980  65.719  1.00  0.00    -0.240 OA 
BRANCH   5   7
HETATM    7  O   UNL     1     -11.841  11.546  66.491  1.00  0.00    -0.434 OA 
BRANCH   7   8
HETATM    8  C   UNL     1     -11.368  11.127  67.785  1.00  0.00    -0.293 C  
BRANCH   8   9
HETATM    9  O   UNL     1     -10.456  10.033  67.737  1.00  0.00    -0.200 OA 
HETATM   10  P   UNL     1      -9.368   9.988  68.946  1.00  0.00    -0.192 P  
HETATM   11  C   UNL     1     -10.351   9.772  70.449  1.00  0.00    -0.293 C  
HETATM   12  O   UNL     1      -8.424  11.146  68.952  1.00  0.00    -0.151 OA 
HETATM   13  O   UNL     1      -8.692   8.528  68.881  1.00  0.00    -0.130 OA 
BRANCH  13  14
HETATM   14  C   UNL     1      -7.724   8.167  67.938  1.00  0.00    -0.114 C  
BRANCH  14  15
HETATM   15  O   UNL     1      -8.336   7.351  66.911  1.00  0.00    -0.117 OA 
BRANCH  15  16
HETATM   16  C   UNL     1      -8.366   6.010  67.158  1.00  0.00    -0.105 C  
HETATM   17  O   UNL     1      -7.369   5.298  67.189  1.00  0.00    -0.080 OA 
BRANCH  16  18
HETATM   18  C   UNL     1      -9.801   5.487  67.384  1.00  0.00    -0.167 C  
HETATM   19  C   UNL     1     -10.816   6.515  66.846  1.00  0.00    -0.427 C  
HETATM   20  C   UNL     1     -10.065   5.289  68.882  1.00  0.00    -0.254 C  
HETATM   21  C   UNL     1     -10.024   4.164  66.637  1.00  0.00    -0.151 C  
ENDBRANCH  16  18
ENDBRANCH  15  16
ENDBRANCH  14  15
ENDBRANCH  13  14
BRANCH  11  22
HETATM   22  O   UNL     1     -11.090   8.569  70.220  1.00  0.00    -0.248 OA 
BRANCH  22  23
HETATM   23  C   UNL     1     -12.274   8.494  70.986  1.00  0.00    -0.168 C  
BRANCH  23  24
HETATM   24  C   UNL     1     -11.892   8.419  72.458  1.00  0.00    -0.358 C  
BRANCH  24  25
HETATM   25  N   UNL     1     -11.229   7.172  72.736  1.00  0.00    -0.286 NA 
HETATM   26  C   UNL     1      -9.932   7.051  73.135  1.00  0.00    -0.209 A  
HETATM   27  N   UNL     1      -9.096   8.031  73.516  1.00  0.00    -0.275 NA 
HETATM   28  H2  UNL     1      -8.091   3.732  72.137  1.00  0.00     0.000 HD 
HETATM   29  H1  UNL     1      -6.909   3.734  73.279  1.00  0.00     0.000 HD 
HETATM   30  C   UNL     1     -11.699   5.922  72.435  1.00  0.00    -0.253 A  
HETATM   31  N   UNL     1     -10.765   5.006  72.578  1.00  0.00    -0.215 NA 
HETATM   32  C   UNL     1      -9.645   5.707  72.991  1.00  0.00    -0.150 A  
HETATM   33  C   UNL     1      -8.323   5.318  73.249  1.00  0.00    -0.111 A  
HETATM   34  N   UNL     1      -7.870   4.016  73.091  1.00  0.00    -0.083 NA 
HETATM   35  N   UNL     1      -7.444   6.259  73.671  1.00  0.00    -0.091 NA 
HETATM   36  C   UNL     1      -7.871   7.537  73.779  1.00  0.00    -0.131 A  
ENDBRANCH  24  25
ENDBRANCH  23  24
ENDBRANCH  22  23
ENDBRANCH  11  22
ENDBRANCH   8   9
ENDBRANCH   7   8
ENDBRANCH   5   7
ENDBRANCH   2   5
TORSDOF 12
ENDMDL
MODEL      141
REMARK 921   NORMALIZED FREE ENERGY PREDICTED BY IDOCK:   -4.82 KCAL/MOL
REMARK 922        TOTAL FREE ENERGY PREDICTED BY IDOCK:   -9.80 KCAL/MOL
REMARK 923 INTER-LIGAND FREE ENERGY PREDICTED BY IDOCK:   -7.78 KCAL/MOL
REMARK 924 INTRA-LIGAND FREE ENERGY PREDICTED BY IDOCK:   -2.01 KCAL/MOL
REMARK 927      BINDING AFFINITY PREDICTED BY RF-SCORE:    0.00 PKD
ROOT
HETATM    1  C   UNL     1     -12.660   8.628  71.966  1.00  0.00    -0.434 C  
HETATM    2  C   UNL     1     -11.357   7.832  71.758  1.00  0.00    -0.302 C  
HETATM    3  C   UNL     1     -10.832   7.391  73.129  1.00  0.00    -0.435 C  
HETATM    4  C   UNL     1     -11.677   6.597  70.901  1.00  0.00    -0.431 C  
ENDROOT
BRANCH   2   5
HETATM    5  C   UNL     1     -10.347   8.722  71.016  1.00  0.00    -0.233 C  
HETATM    6  O   UNL     1      -9.447   9.335  71.581  1.00  0.00    -0.294 OA 
BRANCH   5   7
HETATM    7  O   UNL     1     -10.617   8.839  69.685  1.00  0.00    -0.219 OA 
BRANCH   7   8
HETATM    8  C   UNL     1      -9.770   9.771  68.987  1.00  0.00    -0.177 C  
BRANCH   8   9
HETATM    9  O   UNL     1     -10.036   9.854  67.590  1.00  0.00    -0.176 OA 
HETATM   10  P   UNL     1      -9.168  10.972  66.787  1.00  0.00    -0.168 P  
HETATM   11  C   UNL     1      -7.449  10.433  66.951  1.00  0.00    -0.107 C  
HETATM   12  O   UNL     1      -9.447  12.377  67.216  1.00  0.00    -0.183 OA 
HETATM   13  O   UNL     1      -9.377  10.658  65.222  1.00  0.00    -0.189 OA 
BRANCH  13  14
HETATM   14  C   UNL     1     -10.538  10.991  64.517  1.00  0.00    -0.313 C  
BRANCH  14  15
HETATM   15  O   UNL     1     -10.452  12.366  64.074  1.00  0.00    -0.356 OA 
BRANCH  15  16
HETATM   16  C   UNL     1     -11.634  13.042  64.006  1.00  0.00    -0.430 C  
HETATM   17  O   UNL     1     -12.582  12.695  63.310  1.00  0.00    -0.669 OA 
BRANCH  16  18
HETATM   18  C   UNL     1     -11.641  14.303  64.896  1.00  0.00    -0.384 C  
HETATM   19  C   UNL     1     -12.399  15.438  64.178  1.00  0.00    -0.015 C  
HETATM   20  C   UNL     1     -10.206  14.776  65.161  1.00  0.00    -0.410 C  
HETATM   21  C   UNL     1     -12.352  14.027  66.229  1.00  0.00    -0.482 C  
ENDBRANCH  16  18
ENDBRANCH  15  16
ENDBRANCH  14  15
ENDBRANCH  13  14
BRANCH  11  22
HETATM   22  O   UNL     1      -7.438   9.112  66.403  1.00  0.00    -0.091 OA 
BRANCH  22  23
HETATM   23  C   UNL     1      -6.848   8.161  67.264  1.00  0.00    -0.074 C  
BRANCH  23  24
HETATM   24  C   UNL     1      -7.845   7.033  67.491  1.00  0.00    -0.112 C  
BRANCH  24  25
HETATM   25  N   UNL     1      -7.712   6.513  68.826  1.00  0.00    -0.107 NA 
HETATM   26  C   UNL     1      -8.283   5.360  69.274  1.00  0.00    -0.093 A  
HETATM   27  N   UNL     1      -8.905   4.416  68.548  1.00  0.00    -0.100 NA 
HETATM   28  H2  UNL     1      -9.141   5.196  73.100  1.00  0.00     0.000 HD 
HETATM   29  H1  UNL     1      -9.178   3.564  73.291  1.00  0.00     0.000 HD 
HETATM   30  C   UNL     1      -7.200   7.180  69.906  1.00  0.00    -0.079 A  
HETATM   31  N   UNL     1      -7.445   6.542  71.030  1.00  0.00    -0.083 NA 
HETATM   32  C   UNL     1      -8.148   5.412  70.648  1.00  0.00    -0.110 A  
HETATM   33  C   UNL     1      -8.745   4.373  71.376  1.00  0.00    -0.112 A  
HETATM   34  N   UNL     1      -8.744   4.320  72.762  1.00  0.00    -0.104 NA 
HETATM   35  N   UNL     1      -9.355   3.374  70.693  1.00  0.00    -0.148 NA 
HETATM   36  C   UNL     1      -9.399   3.449  69.344  1.00  0.00    -0.166 A  
ENDBRANCH  24  25
ENDBRANCH  23  24
ENDBRANCH  22  23
ENDBRANCH  11  22
ENDBRANCH   8   9
ENDBRANCH   7   8
ENDBRANCH   5   7
ENDBRANCH   2   5
TORSDOF 12
ENDMDL
MODEL      142
REMARK 921   NORMALIZED FREE ENERGY PREDICTED BY IDOCK:   -4.75 KCAL/MOL
REMARK 922        TOTAL FREE ENERGY PREDICTED BY IDOCK:   -9.67 KCAL/MOL
REMARK 923 INTER-LIGAND FREE ENERGY PREDICTED BY IDOCK:   -8.01 KCAL/MOL
REMARK 924 INTRA-LIGAND FREE ENERGY PREDICTED BY IDOCK:   -1.66 KCAL/MOL
REMARK 927      BINDING AFFINITY PREDICTED BY RF-SCORE:    0.00 PKD
ROOT
HETATM    1  C   UNL     1      -6.364  13.752  70.186  1.00  0.00    -0.060 C  
HETATM    2  C   UNL     1      -6.774  13.724  68.700  1.00  0.00    -0.099 C  
HETATM    3  C   UNL     1      -7.984  14.647  68.512  1.00  0.00    -0.136 C  
HETATM    4  C   UNL     1      -5.592  14.239  67.864  1.00  0.00    -0.101 C  
ENDROOT
BRANCH   2   5
HETATM    5  C   UNL     1      -7.090  12.274  68.301  1.00  0.00    -0.093 C  
HETATM    6  O   UNL     1      -7.799  11.530  68.972  1.00  0.00    -0.100 OA 
BRANCH   5   7
HETATM    7  O   UNL     1      -6.423  11.871  67.183  1.00  0.00    -0.125 OA 
BRANCH   7   8
HETATM    8  C   UNL     1      -6.996  10.722  66.532  1.00  0.00    -0.130 C  
BRANCH   8   9
HETATM    9  O   UNL     1      -8.213  10.999  65.845  1.00  0.00    -0.160 OA 
HETATM   10  P   UNL     1      -8.477  10.096  64.517  1.00  0.00    -0.190 P  
HETATM   11  C   UNL     1      -8.607   8.398  65.127  1.00  0.00    -0.132 C  
HETATM   12  O   UNL     1      -7.478  10.316  63.428  1.00  0.00    -0.147 OA 
HETATM   13  O   UNL     1     -10.019  10.333  64.118  1.00  0.00    -0.315 OA 
BRANCH  13  14
HETATM   14  C   UNL     1     -10.481  11.487  63.477  1.00  0.00    -0.428 C  
BRANCH  14  15
HETATM   15  O   UNL     1     -11.734  11.898  64.074  1.00  0.00    -0.384 OA 
BRANCH  15  16
HETATM   16  C   UNL     1     -11.665  12.315  65.371  1.00  0.00    -0.370 C  
HETATM   17  O   UNL     1     -11.712  11.560  66.335  1.00  0.00    -0.422 OA 
BRANCH  16  18
HETATM   18  C   UNL     1     -11.533  13.848  65.488  1.00  0.00    -0.319 C  
HETATM   19  C   UNL     1     -12.393  14.526  64.402  1.00  0.00    -0.437 C  
HETATM   20  C   UNL     1     -10.074  14.274  65.281  1.00  0.00    -0.378 C  
HETATM   21  C   UNL     1     -12.027  14.336  66.858  1.00  0.00    -0.467 C  
ENDBRANCH  16  18
ENDBRANCH  15  16
ENDBRANCH  14  15
ENDBRANCH  13  14
BRANCH  11  22
HETATM   22  O   UNL     1      -9.671   8.444  66.081  1.00  0.00    -0.224 OA 
BRANCH  22  23
HETATM   23  C   UNL     1     -10.038   7.167  66.561  1.00  0.00    -0.084 C  
BRANCH  23  24
HETATM   24  C   UNL     1      -9.231   6.876  67.818  1.00  0.00    -0.119 C  
BRANCH  24  25
HETATM   25  N   UNL     1     -10.100   6.814  68.964  1.00  0.00    -0.159 NA 
HETATM   26  C   UNL     1     -10.495   7.890  69.701  1.00  0.00    -0.226 A  
HETATM   27  N   UNL     1     -10.318   9.191  69.415  1.00  0.00    -0.210 NA 
HETATM   28  H2  UNL     1     -11.308   7.226  73.482  1.00  0.00     0.000 HD 
HETATM   29  H1  UNL     1     -12.282   8.518  73.773  1.00  0.00     0.000 HD 
HETATM   30  C   UNL     1     -10.479   5.681  69.631  1.00  0.00    -0.304 A  
HETATM   31  N   UNL     1     -11.061   5.965  70.776  1.00  0.00    -0.282 NA 
HETATM   32  C   UNL     1     -11.052   7.348  70.843  1.00  0.00    -0.263 A  
HETATM   33  C   UNL     1     -11.462   8.254  71.832  1.00  0.00    -0.310 A  
HETATM   34  N   UNL     1     -11.984   7.858  73.054  1.00  0.00    -0.132 NA 
HETATM   35  N   UNL     1     -11.339   9.580  71.582  1.00  0.00    -0.382 NA 
HETATM   36  C   UNL     1     -10.786   9.967  70.410  1.00  0.00    -0.318 A  
ENDBRANCH  24  25
ENDBRANCH  23  24
ENDBRANCH  22  23
ENDBRANCH  11  22
ENDBRANCH   8   9
ENDBRANCH   7   8
ENDBRANCH   5   7
ENDBRANCH   2   5
TORSDOF 12
ENDMDL
MODEL      143
REMARK 921   NORMALIZED FREE ENERGY PREDICTED BY IDOCK:   -4.73 KCAL/MOL
REMARK 922        TOTAL FREE ENERGY PREDICTED BY IDOCK:   -9.65 KCAL/MOL
REMARK 923 INTER-LIGAND FREE ENERGY PREDICTED BY IDOCK:   -8.61 KCAL/MOL
REMARK 924 INTRA-LIGAND FREE ENERGY PREDICTED BY IDOCK:   -1.04 KCAL/MOL
REMARK 927      BINDING AFFINITY PREDICTED BY RF-SCORE:    0.00 PKD
ROOT
HETATM    1  C   UNL     1     -11.997   6.915  70.965  1.00  0.00    -0.422 C  
HETATM    2  C   UNL     1     -11.668   8.047  71.957  1.00  0.00    -0.375 C  
HETATM    3  C   UNL     1     -12.984   8.662  72.447  1.00  0.00    -0.403 C  
HETATM    4  C   UNL     1     -10.902   7.442  73.143  1.00  0.00    -0.435 C  
ENDROOT
BRANCH   2   5
HETATM    5  C   UNL     1     -10.780   9.082  71.249  1.00  0.00    -0.309 C  
HETATM    6  O   UNL     1      -9.630   9.334  71.597  1.00  0.00    -0.277 OA 
BRANCH   5   7
HETATM    7  O   UNL     1     -11.433   9.760  70.263  1.00  0.00    -0.253 OA 
BRANCH   7   8
HETATM    8  C   UNL     1     -10.622  10.058  69.110  1.00  0.00    -0.218 C  
BRANCH   8   9
HETATM    9  O   UNL     1     -11.283  10.861  68.136  1.00  0.00    -0.255 OA 
HETATM   10  P   UNL     1     -10.331  11.930  67.361  1.00  0.00    -0.216 P  
HETATM   11  C   UNL     1      -9.129  10.918  66.464  1.00  0.00    -0.169 C  
HETATM   12  O   UNL     1      -9.753  12.981  68.253  1.00  0.00    -0.222 OA 
HETATM   13  O   UNL     1     -11.189  12.462  66.108  1.00  0.00    -0.291 OA 
BRANCH  13  14
HETATM   14  C   UNL     1     -12.221  13.399  66.222  1.00  0.00    -0.398 C  
BRANCH  14  15
HETATM   15  O   UNL     1     -11.702  14.615  66.810  1.00  0.00    -0.373 OA 
BRANCH  15  16
HETATM   16  C   UNL     1     -11.006  15.431  65.968  1.00  0.00    -0.286 C  
HETATM   17  O   UNL     1     -11.126  15.419  64.748  1.00  0.00    -0.416 OA 
BRANCH  16  18
HETATM   18  C   UNL     1     -10.038  16.367  66.724  1.00  0.00    -0.287 C  
HETATM   19  C   UNL     1     -10.265  16.226  68.243  1.00  0.00    -0.253 C  
HETATM   20  C   UNL     1     -10.295  17.827  66.332  1.00  0.00    -0.351 C  
HETATM   21  C   UNL     1      -8.577  15.998  66.426  1.00  0.00    -0.369 C  
ENDBRANCH  16  18
ENDBRANCH  15  16
ENDBRANCH  14  15
ENDBRANCH  13  14
BRANCH  11  22
HETATM   22  O   UNL     1      -9.928  10.069  65.636  1.00  0.00    -0.272 OA 
BRANCH  22  23
HETATM   23  C   UNL     1      -9.297   8.843  65.330  1.00  0.00    -0.088 C  
BRANCH  23  24
HETATM   24  C   UNL     1      -9.037   8.097  66.632  1.00  0.00    -0.165 C  
BRANCH  24  25
HETATM   25  N   UNL     1      -9.351   6.701  66.476  1.00  0.00    -0.161 NA 
HETATM   26  C   UNL     1      -8.557   5.789  65.849  1.00  0.00    -0.146 A  
HETATM   27  N   UNL     1      -7.292   5.953  65.429  1.00  0.00    -0.074 NA 
HETATM   28  H2  UNL     1     -10.374   2.747  64.162  1.00  0.00     0.000 HD 
HETATM   29  H1  UNL     1      -9.123   1.681  64.124  1.00  0.00     0.000 HD 
HETATM   30  C   UNL     1     -10.564   6.114  66.717  1.00  0.00    -0.283 A  
HETATM   31  N   UNL     1     -10.611   4.888  66.244  1.00  0.00    -0.305 NA 
HETATM   32  C   UNL     1      -9.366   4.682  65.672  1.00  0.00    -0.160 A  
HETATM   33  C   UNL     1      -8.816   3.612  64.954  1.00  0.00    -0.121 A  
HETATM   34  N   UNL     1      -9.524   2.460  64.647  1.00  0.00    -0.135 NA 
HETATM   35  N   UNL     1      -7.530   3.708  64.537  1.00  0.00    -0.071 NA 
HETATM   36  C   UNL     1      -6.853   4.850  64.793  1.00  0.00    -0.049 A  
ENDBRANCH  24  25
ENDBRANCH  23  24
ENDBRANCH  22  23
ENDBRANCH  11  22
ENDBRANCH   8   9
ENDBRANCH   7   8
ENDBRANCH   5   7
ENDBRANCH   2   5
TORSDOF 12
ENDMDL
MODEL      144
REMARK 921   NORMALIZED FREE ENERGY PREDICTED BY IDOCK:   -4.72 KCAL/MOL
REMARK 922        TOTAL FREE ENERGY PREDICTED BY IDOCK:   -9.63 KCAL/MOL
REMARK 923 INTER-LIGAND FREE ENERGY PREDICTED BY IDOCK:   -7.93 KCAL/MOL
REMARK 924 INTRA-LIGAND FREE ENERGY PREDICTED BY IDOCK:   -1.70 KCAL/MOL
REMARK 927      BINDING AFFINITY PREDICTED BY RF-SCORE:    0.00 PKD
ROOT
HETATM    1  C   UNL     1     -12.427   7.111  70.766  1.00  0.00    -0.232 C  
HETATM    2  C   UNL     1     -11.494   8.161  71.398  1.00  0.00    -0.301 C  
HETATM    3  C   UNL     1     -12.223   9.510  71.421  1.00  0.00    -0.455 C  
HETATM    4  C   UNL     1     -11.171   7.719  72.834  1.00  0.00    -0.434 C  
ENDROOT
BRANCH   2   5
HETATM    5  C   UNL     1     -10.195   8.225  70.579  1.00  0.00    -0.198 C  
HETATM    6  O   UNL     1      -9.097   7.917  71.033  1.00  0.00    -0.140 OA 
BRANCH   5   7
HETATM    7  O   UNL     1     -10.374   8.753  69.335  1.00  0.00    -0.206 OA 
BRANCH   7   8
HETATM    8  C   UNL     1      -9.193   8.744  68.511  1.00  0.00    -0.141 C  
BRANCH   8   9
HETATM    9  O   UNL     1      -8.476   9.975  68.522  1.00  0.00    -0.109 OA 
HETATM   10  P   UNL     1      -6.855   9.830  68.548  1.00  0.00    -0.055 P  
HETATM   11  C   UNL     1      -6.436   9.005  66.994  1.00  0.00    -0.061 C  
HETATM   12  O   UNL     1      -6.327   9.181  69.786  1.00  0.00    -0.038 OA 
HETATM   13  O   UNL     1      -6.272  11.293  68.216  1.00  0.00    -0.046 OA 
BRANCH  13  14
HETATM   14  C   UNL     1      -6.237  12.339  69.144  1.00  0.00    -0.089 C  
BRANCH  14  15
HETATM   15  O   UNL     1      -6.902  13.498  68.588  1.00  0.00    -0.085 OA 
BRANCH  15  16
HETATM   16  C   UNL     1      -6.831  14.637  69.332  1.00  0.00    -0.159 C  
HETATM   17  O   UNL     1      -6.093  14.777  70.301  1.00  0.00    -0.149 OA 
BRANCH  16  18
HETATM   18  C   UNL     1      -7.795  15.731  68.825  1.00  0.00    -0.180 C  
HETATM   19  C   UNL     1      -7.201  17.123  69.126  1.00  0.00    -0.197 C  
HETATM   20  C   UNL     1      -9.148  15.622  69.537  1.00  0.00    -0.240 C  
HETATM   21  C   UNL     1      -7.996  15.620  67.306  1.00  0.00    -0.227 C  
ENDBRANCH  16  18
ENDBRANCH  15  16
ENDBRANCH  14  15
ENDBRANCH  13  14
BRANCH  11  22
HETATM   22  O   UNL     1      -6.976   9.859  65.982  1.00  0.00    -0.094 OA 
BRANCH  22  23
HETATM   23  C   UNL     1      -7.630   9.150  64.951  1.00  0.00    -0.107 C  
BRANCH  23  24
HETATM   24  C   UNL     1      -9.133   9.263  65.166  1.00  0.00    -0.206 C  
BRANCH  24  25
HETATM   25  N   UNL     1      -9.631  10.475  64.570  1.00  0.00    -0.273 NA 
HETATM   26  C   UNL     1     -10.482  11.348  65.177  1.00  0.00    -0.295 A  
HETATM   27  N   UNL     1     -10.867  11.359  66.464  1.00  0.00    -0.281 NA 
HETATM   28  H2  UNL     1     -12.852  13.411  62.825  1.00  0.00     0.000 HD 
HETATM   29  H1  UNL     1     -13.178  14.675  63.824  1.00  0.00     0.000 HD 
HETATM   30  C   UNL     1      -9.526  10.830  63.253  1.00  0.00    -0.326 A  
HETATM   31  N   UNL     1     -10.294  11.860  62.966  1.00  0.00    -0.266 NA 
HETATM   32  C   UNL     1     -10.919  12.176  64.160  1.00  0.00    -0.361 A  
HETATM   33  C   UNL     1     -11.893  13.125  64.500  1.00  0.00    -0.377 A  
HETATM   34  N   UNL     1     -12.470  13.984  63.577  1.00  0.00    -0.799 NA 
HETATM   35  N   UNL     1     -12.294  13.205  65.792  1.00  0.00    -0.450 NA 
HETATM   36  C   UNL     1     -11.768  12.335  66.685  1.00  0.00    -0.349 A  
ENDBRANCH  24  25
ENDBRANCH  23  24
ENDBRANCH  22  23
ENDBRANCH  11  22
ENDBRANCH   8   9
ENDBRANCH   7   8
ENDBRANCH   5   7
ENDBRANCH   2   5
TORSDOF 12
ENDMDL
MODEL      145
REMARK 921   NORMALIZED FREE ENERGY PREDICTED BY IDOCK:   -4.69 KCAL/MOL
REMARK 922        TOTAL FREE ENERGY PREDICTED BY IDOCK:   -9.58 KCAL/MOL
REMARK 923 INTER-LIGAND FREE ENERGY PREDICTED BY IDOCK:   -8.07 KCAL/MOL
REMARK 924 INTRA-LIGAND FREE ENERGY PREDICTED BY IDOCK:   -1.51 KCAL/MOL
REMARK 927      BINDING AFFINITY PREDICTED BY RF-SCORE:    0.00 PKD
ROOT
HETATM    1  C   UNL     1     -11.896  13.032  63.582  1.00  0.00    -0.580 C  
HETATM    2  C   UNL     1     -11.652  13.619  64.986  1.00  0.00    -0.345 C  
HETATM    3  C   UNL     1     -10.744  14.847  64.850  1.00  0.00    -0.426 C  
HETATM    4  C   UNL     1     -13.008  14.036  65.577  1.00  0.00    -0.353 C  
ENDROOT
BRANCH   2   5
HETATM    5  C   UNL     1     -11.020  12.533  65.872  1.00  0.00    -0.279 C  
HETATM    6  O   UNL     1      -9.811  12.326  65.924  1.00  0.00    -0.247 OA 
BRANCH   5   7
HETATM    7  O   UNL     1     -11.944  11.763  66.513  1.00  0.00    -0.545 OA 
BRANCH   7   8
HETATM    8  C   UNL     1     -11.520  11.274  67.799  1.00  0.00    -0.275 C  
BRANCH   8   9
HETATM    9  O   UNL     1     -10.874  10.006  67.746  1.00  0.00    -0.264 OA 
HETATM   10  P   UNL     1      -9.644   9.813  68.796  1.00  0.00    -0.167 P  
HETATM   11  C   UNL     1     -10.407   9.933  70.432  1.00  0.00    -0.260 C  
HETATM   12  O   UNL     1      -8.491  10.732  68.551  1.00  0.00    -0.128 OA 
HETATM   13  O   UNL     1      -9.304   8.239  68.797  1.00  0.00    -0.144 OA 
BRANCH  13  14
HETATM   14  C   UNL     1      -8.589   7.604  67.777  1.00  0.00    -0.121 C  
BRANCH  14  15
HETATM   15  O   UNL     1      -9.504   7.198  66.731  1.00  0.00    -0.155 OA 
BRANCH  15  16
HETATM   16  C   UNL     1     -10.219   6.063  66.976  1.00  0.00    -0.205 C  
HETATM   17  O   UNL     1     -11.131   5.991  67.792  1.00  0.00    -0.300 OA 
BRANCH  16  18
HETATM   18  C   UNL     1      -9.744   4.873  66.115  1.00  0.00    -0.200 C  
HETATM   19  C   UNL     1      -8.613   5.335  65.174  1.00  0.00    -0.151 C  
HETATM   20  C   UNL     1     -10.898   4.342  65.256  1.00  0.00    -0.088 C  
HETATM   21  C   UNL     1      -9.193   3.744  67.000  1.00  0.00    -0.202 C  
ENDBRANCH  16  18
ENDBRANCH  15  16
ENDBRANCH  14  15
ENDBRANCH  13  14
BRANCH  11  22
HETATM   22  O   UNL     1     -11.405   8.909  70.435  1.00  0.00    -0.257 OA 
BRANCH  22  23
HETATM   23  C   UNL     1     -11.539   8.271  71.688  1.00  0.00    -0.284 C  
BRANCH  23  24
HETATM   24  C   UNL     1     -10.148   8.057  72.270  1.00  0.00    -0.246 C  
BRANCH  24  25
HETATM   25  N   UNL     1     -10.061   6.756  72.881  1.00  0.00    -0.173 NA 
HETATM   26  C   UNL     1      -9.932   5.583  72.201  1.00  0.00    -0.178 A  
HETATM   27  N   UNL     1      -9.682   5.416  70.891  1.00  0.00    -0.172 NA 
HETATM   28  H2  UNL     1     -11.417   2.384  73.922  1.00  0.00     0.000 HD 
HETATM   29  H1  UNL     1     -10.533   1.235  73.148  1.00  0.00     0.000 HD 
HETATM   30  C   UNL     1     -10.317   6.461  74.193  1.00  0.00    -0.317 A  
HETATM   31  N   UNL     1     -10.401   5.162  74.389  1.00  0.00    -0.272 NA 
HETATM   32  C   UNL     1     -10.188   4.603  73.141  1.00  0.00    -0.170 A  
HETATM   33  C   UNL     1     -10.214   3.280  72.676  1.00  0.00    -0.156 A  
HETATM   34  N   UNL     1     -10.514   2.197  73.487  1.00  0.00    -0.114 NA 
HETATM   35  N   UNL     1      -9.934   3.050  71.369  1.00  0.00    -0.092 NA 
HETATM   36  C   UNL     1      -9.688   4.110  70.567  1.00  0.00    -0.200 A  
ENDBRANCH  24  25
ENDBRANCH  23  24
ENDBRANCH  22  23
ENDBRANCH  11  22
ENDBRANCH   8   9
ENDBRANCH   7   8
ENDBRANCH   5   7
ENDBRANCH   2   5
TORSDOF 12
ENDMDL
MODEL      146
REMARK 921   NORMALIZED FREE ENERGY PREDICTED BY IDOCK:   -4.69 KCAL/MOL
REMARK 922        TOTAL FREE ENERGY PREDICTED BY IDOCK:   -9.57 KCAL/MOL
REMARK 923 INTER-LIGAND FREE ENERGY PREDICTED BY IDOCK:   -8.27 KCAL/MOL
REMARK 924 INTRA-LIGAND FREE ENERGY PREDICTED BY IDOCK:   -1.31 KCAL/MOL
REMARK 927      BINDING AFFINITY PREDICTED BY RF-SCORE:    0.00 PKD
ROOT
HETATM    1  C   UNL     1      -6.750   6.302  74.298  1.00  0.00    -0.078 C  
HETATM    2  C   UNL     1      -7.918   5.472  73.730  1.00  0.00    -0.108 C  
HETATM    3  C   UNL     1      -7.702   5.294  72.223  1.00  0.00    -0.101 C  
HETATM    4  C   UNL     1      -7.917   4.100  74.422  1.00  0.00    -0.091 C  
ENDROOT
BRANCH   2   5
HETATM    5  C   UNL     1      -9.237   6.199  74.039  1.00  0.00    -0.135 C  
HETATM    6  O   UNL     1     -10.267   5.616  74.365  1.00  0.00    -0.248 OA 
BRANCH   5   7
HETATM    7  O   UNL     1      -9.170   7.542  73.817  1.00  0.00    -0.236 OA 
BRANCH   7   8
HETATM    8  C   UNL     1     -10.185   8.047  72.929  1.00  0.00    -0.314 C  
BRANCH   8   9
HETATM    9  O   UNL     1     -10.082   7.552  71.597  1.00  0.00    -0.180 OA 
HETATM   10  P   UNL     1     -11.410   7.757  70.679  1.00  0.00    -0.189 P  
HETATM   11  C   UNL     1     -11.612   9.550  70.547  1.00  0.00    -0.254 C  
HETATM   12  O   UNL     1     -12.606   7.008  71.171  1.00  0.00    -0.377 OA 
HETATM   13  O   UNL     1     -10.957   7.447  69.166  1.00  0.00    -0.155 OA 
BRANCH  13  14
HETATM   14  C   UNL     1     -10.761   6.155  68.669  1.00  0.00    -0.307 C  
BRANCH  14  15
HETATM   15  O   UNL     1      -9.745   6.186  67.638  1.00  0.00    -0.114 OA 
BRANCH  15  16
HETATM   16  C   UNL     1      -9.401   4.979  67.107  1.00  0.00    -0.125 C  
HETATM   17  O   UNL     1     -10.120   4.334  66.352  1.00  0.00    -0.227 OA 
BRANCH  16  18
HETATM   18  C   UNL     1      -8.006   4.508  67.572  1.00  0.00    -0.100 C  
HETATM   19  C   UNL     1      -7.325   3.714  66.438  1.00  0.00    -0.072 C  
HETATM   20  C   UNL     1      -8.134   3.590  68.793  1.00  0.00    -0.070 C  
HETATM   21  C   UNL     1      -7.111   5.709  67.914  1.00  0.00    -0.071 C  
ENDBRANCH  16  18
ENDBRANCH  15  16
ENDBRANCH  14  15
ENDBRANCH  13  14
BRANCH  11  22
HETATM   22  O   UNL     1     -10.379  10.005  69.982  1.00  0.00    -0.253 OA 
BRANCH  22  23
HETATM   23  C   UNL     1     -10.557  10.762  68.803  1.00  0.00    -0.200 C  
BRANCH  23  24
HETATM   24  C   UNL     1     -11.828  11.588  68.949  1.00  0.00    -0.341 C  
BRANCH  24  25
HETATM   25  N   UNL     1     -11.670  12.862  68.298  1.00  0.00    -0.333 NA 
HETATM   26  C   UNL     1     -11.842  13.082  66.965  1.00  0.00    -0.377 A  
HETATM   27  N   UNL     1     -12.353  12.239  66.053  1.00  0.00    -0.494 NA 
HETATM   28  H2  UNL     1      -9.751  16.004  65.384  1.00  0.00     0.000 HD 
HETATM   29  H1  UNL     1     -10.681  16.307  64.062  1.00  0.00     0.000 HD 
HETATM   30  C   UNL     1     -11.112  13.986  68.846  1.00  0.00    -0.268 A  
HETATM   31  N   UNL     1     -10.877  14.904  67.932  1.00  0.00    -0.269 NA 
HETATM   32  C   UNL     1     -11.306  14.337  66.744  1.00  0.00    -0.348 A  
HETATM   33  C   UNL     1     -11.268  14.777  65.413  1.00  0.00    -0.347 A  
HETATM   34  N   UNL     1     -10.708  15.986  65.030  1.00  0.00    -0.593 NA 
HETATM   35  N   UNL     1     -11.802  13.982  64.455  1.00  0.00    -0.414 NA 
HETATM   36  C   UNL     1     -12.306  12.781  64.821  1.00  0.00    -0.478 A  
ENDBRANCH  24  25
ENDBRANCH  23  24
ENDBRANCH  22  23
ENDBRANCH  11  22
ENDBRANCH   8   9
ENDBRANCH   7   8
ENDBRANCH   5   7
ENDBRANCH   2   5
TORSDOF 12
ENDMDL
MODEL      147
REMARK 921   NORMALIZED FREE ENERGY PREDICTED BY IDOCK:   -4.68 KCAL/MOL
REMARK 922        TOTAL FREE ENERGY PREDICTED BY IDOCK:   -9.56 KCAL/MOL
REMARK 923 INTER-LIGAND FREE ENERGY PREDICTED BY IDOCK:   -8.08 KCAL/MOL
REMARK 924 INTRA-LIGAND FREE ENERGY PREDICTED BY IDOCK:   -1.49 KCAL/MOL
REMARK 927      BINDING AFFINITY PREDICTED BY RF-SCORE:    0.00 PKD
ROOT
HETATM    1  C   UNL     1     -12.228   8.264  72.410  1.00  0.00    -0.412 C  
HETATM    2  C   UNL     1     -11.084   7.308  72.020  1.00  0.00    -0.277 C  
HETATM    3  C   UNL     1     -10.910   6.275  73.139  1.00  0.00    -0.281 C  
HETATM    4  C   UNL     1     -11.471   6.599  70.713  1.00  0.00    -0.407 C  
ENDROOT
BRANCH   2   5
HETATM    5  C   UNL     1      -9.806   8.132  71.796  1.00  0.00    -0.194 C  
HETATM    6  O   UNL     1      -9.203   8.700  72.702  1.00  0.00    -0.299 OA 
BRANCH   5   7
HETATM    7  O   UNL     1      -9.470   8.248  70.480  1.00  0.00    -0.163 OA 
BRANCH   7   8
HETATM    8  C   UNL     1      -9.118   9.584  70.073  1.00  0.00    -0.227 C  
BRANCH   8   9
HETATM    9  O   UNL     1     -10.194  10.305  69.480  1.00  0.00    -0.216 OA 
HETATM   10  P   UNL     1      -9.782  11.245  68.217  1.00  0.00    -0.209 P  
HETATM   11  C   UNL     1      -9.179  10.095  66.958  1.00  0.00    -0.146 C  
HETATM   12  O   UNL     1      -8.852  12.360  68.572  1.00  0.00    -0.151 OA 
HETATM   13  O   UNL     1     -11.164  11.677  67.514  1.00  0.00    -0.254 OA 
BRANCH  13  14
HETATM   14  C   UNL     1     -12.014  12.663  68.026  1.00  0.00    -0.245 C  
BRANCH  14  15
HETATM   15  O   UNL     1     -12.099  13.759  67.084  1.00  0.00    -0.398 OA 
BRANCH  15  16
HETATM   16  C   UNL     1     -12.212  13.407  65.772  1.00  0.00    -0.458 C  
HETATM   17  O   UNL     1     -13.106  12.694  65.330  1.00  0.00    -0.611 OA 
BRANCH  16  18
HETATM   18  C   UNL     1     -11.080  13.999  64.905  1.00  0.00    -0.378 C  
HETATM   19  C   UNL     1     -10.649  12.965  63.844  1.00  0.00    -0.367 C  
HETATM   20  C   UNL     1      -9.862  14.332  65.775  1.00  0.00    -0.314 C  
HETATM   21  C   UNL     1     -11.557  15.261  64.171  1.00  0.00    -0.078 C  
ENDBRANCH  16  18
ENDBRANCH  15  16
ENDBRANCH  14  15
ENDBRANCH  13  14
BRANCH  11  22
HETATM   22  O   UNL     1     -10.271   9.197  66.745  1.00  0.00    -0.248 OA 
BRANCH  22  23
HETATM   23  C   UNL     1      -9.854   7.887  66.419  1.00  0.00    -0.147 C  
BRANCH  23  24
HETATM   24  C   UNL     1     -10.736   6.900  67.172  1.00  0.00    -0.366 C  
BRANCH  24  25
HETATM   25  N   UNL     1     -10.284   5.553  66.941  1.00  0.00    -0.206 NA 
HETATM   26  C   UNL     1      -9.393   4.885  67.726  1.00  0.00    -0.131 A  
HETATM   27  N   UNL     1      -8.917   5.256  68.926  1.00  0.00    -0.102 NA 
HETATM   28  H2  UNL     1      -7.201   2.152  65.958  1.00  0.00     0.000 HD 
HETATM   29  H1  UNL     1      -6.805   1.243  67.270  1.00  0.00     0.000 HD 
HETATM   30  C   UNL     1     -10.483   4.818  65.804  1.00  0.00    -0.238 A  
HETATM   31  N   UNL     1      -9.740   3.732  65.793  1.00  0.00    -0.166 NA 
HETATM   32  C   UNL     1      -9.031   3.778  66.982  1.00  0.00    -0.143 A  
HETATM   33  C   UNL     1      -8.036   2.954  67.528  1.00  0.00    -0.076 A  
HETATM   34  N   UNL     1      -7.529   1.843  66.873  1.00  0.00    -0.059 NA 
HETATM   35  N   UNL     1      -7.545   3.261  68.753  1.00  0.00    -0.049 NA 
HETATM   36  C   UNL     1      -8.004   4.372  69.372  1.00  0.00    -0.061 A  
ENDBRANCH  24  25
ENDBRANCH  23  24
ENDBRANCH  22  23
ENDBRANCH  11  22
ENDBRANCH   8   9
ENDBRANCH   7   8
ENDBRANCH   5   7
ENDBRANCH   2   5
TORSDOF 12
ENDMDL
MODEL      148
REMARK 921   NORMALIZED FREE ENERGY PREDICTED BY IDOCK:   -4.66 KCAL/MOL
REMARK 922        TOTAL FREE ENERGY PREDICTED BY IDOCK:   -9.53 KCAL/MOL
REMARK 923 INTER-LIGAND FREE ENERGY PREDICTED BY IDOCK:   -8.00 KCAL/MOL
REMARK 924 INTRA-LIGAND FREE ENERGY PREDICTED BY IDOCK:   -1.53 KCAL/MOL
REMARK 927      BINDING AFFINITY PREDICTED BY RF-SCORE:    0.00 PKD
ROOT
HETATM    1  C   UNL     1     -11.120  14.549  67.358  1.00  0.00    -0.320 C  
HETATM    2  C   UNL     1     -10.260  13.769  66.345  1.00  0.00    -0.292 C  
HETATM    3  C   UNL     1     -10.373  14.456  64.979  1.00  0.00    -0.449 C  
HETATM    4  C   UNL     1      -8.801  13.801  66.825  1.00  0.00    -0.156 C  
ENDROOT
BRANCH   2   5
HETATM    5  C   UNL     1     -10.751  12.313  66.297  1.00  0.00    -0.259 C  
HETATM    6  O   UNL     1     -11.930  12.005  66.150  1.00  0.00    -0.581 OA 
BRANCH   5   7
HETATM    7  O   UNL     1      -9.760  11.408  66.535  1.00  0.00    -0.193 OA 
BRANCH   7   8
HETATM    8  C   UNL     1      -9.664  10.361  65.551  1.00  0.00    -0.249 C  
BRANCH   8   9
HETATM    9  O   UNL     1      -9.970   9.066  66.060  1.00  0.00    -0.283 OA 
HETATM   10  P   UNL     1      -8.700   8.055  66.184  1.00  0.00    -0.158 P  
HETATM   11  C   UNL     1      -7.600   8.835  67.390  1.00  0.00    -0.090 C  
HETATM   12  O   UNL     1      -8.075   7.707  64.871  1.00  0.00    -0.134 OA 
HETATM   13  O   UNL     1      -9.204   6.814  67.076  1.00  0.00    -0.129 OA 
BRANCH  13  14
HETATM   14  C   UNL     1     -10.024   5.793  66.584  1.00  0.00    -0.176 C  
BRANCH  14  15
HETATM   15  O   UNL     1     -10.205   4.788  67.609  1.00  0.00    -0.125 OA 
BRANCH  15  16
HETATM   16  C   UNL     1      -9.793   5.135  68.861  1.00  0.00    -0.172 C  
HETATM   17  O   UNL     1     -10.247   6.082  69.493  1.00  0.00    -0.177 OA 
BRANCH  16  18
HETATM   18  C   UNL     1      -8.678   4.207  69.391  1.00  0.00    -0.124 C  
HETATM   19  C   UNL     1      -7.935   3.562  68.203  1.00  0.00    -0.071 C  
HETATM   20  C   UNL     1      -9.281   3.087  70.247  1.00  0.00    -0.213 C  
HETATM   21  C   UNL     1      -7.654   5.000  70.217  1.00  0.00    -0.063 C  
ENDBRANCH  16  18
ENDBRANCH  15  16
ENDBRANCH  14  15
ENDBRANCH  13  14
BRANCH  11  22
HETATM   22  O   UNL     1      -8.406   8.981  68.562  1.00  0.00    -0.121 OA 
BRANCH  22  23
HETATM   23  C   UNL     1      -7.736   8.595  69.745  1.00  0.00    -0.088 C  
BRANCH  23  24
HETATM   24  C   UNL     1      -8.267   9.438  70.896  1.00  0.00    -0.051 C  
BRANCH  24  25
HETATM   25  N   UNL     1      -9.574   8.978  71.286  1.00  0.00    -0.284 NA 
HETATM   26  C   UNL     1     -10.748   9.556  70.908  1.00  0.00    -0.333 A  
HETATM   27  N   UNL     1     -10.932  10.515  69.984  1.00  0.00    -0.291 NA 
HETATM   28  H2  UNL     1     -13.765   9.191  73.392  1.00  0.00     0.000 HD 
HETATM   29  H1  UNL     1     -15.004   9.425  72.337  1.00  0.00     0.000 HD 
HETATM   30  C   UNL     1      -9.849   8.056  72.260  1.00  0.00    -0.236 A  
HETATM   31  N   UNL     1     -11.130   8.036  72.559  1.00  0.00    -0.348 NA 
HETATM   32  C   UNL     1     -11.700   8.992  71.736  1.00  0.00    -0.369 A  
HETATM   33  C   UNL     1     -13.006   9.489  71.619  1.00  0.00    -0.396 A  
HETATM   34  N   UNL     1     -14.054   9.064  72.422  1.00  0.00    -0.466 NA 
HETATM   35  N   UNL     1     -13.256  10.432  70.679  1.00  0.00    -0.264 NA 
HETATM   36  C   UNL     1     -12.226  10.883  69.928  1.00  0.00    -0.336 A  
ENDBRANCH  24  25
ENDBRANCH  23  24
ENDBRANCH  22  23
ENDBRANCH  11  22
ENDBRANCH   8   9
ENDBRANCH   7   8
ENDBRANCH   5   7
ENDBRANCH   2   5
TORSDOF 12
ENDMDL
MODEL      149
REMARK 921   NORMALIZED FREE ENERGY PREDICTED BY IDOCK:   -4.65 KCAL/MOL
REMARK 922        TOTAL FREE ENERGY PREDICTED BY IDOCK:   -9.52 KCAL/MOL
REMARK 923 INTER-LIGAND FREE ENERGY PREDICTED BY IDOCK:   -8.23 KCAL/MOL
REMARK 924 INTRA-LIGAND FREE ENERGY PREDICTED BY IDOCK:   -1.29 KCAL/MOL
REMARK 927      BINDING AFFINITY PREDICTED BY RF-SCORE:    0.00 PKD
ROOT
HETATM    1  C   UNL     1      -5.801   3.047  70.063  1.00  0.00    -0.018 C  
HETATM    2  C   UNL     1      -6.926   4.099  70.020  1.00  0.00    -0.041 C  
HETATM    3  C   UNL     1      -8.147   3.480  69.328  1.00  0.00    -0.064 C  
HETATM    4  C   UNL     1      -7.285   4.482  71.464  1.00  0.00    -0.059 C  
ENDROOT
BRANCH   2   5
HETATM    5  C   UNL     1      -6.413   5.341  69.275  1.00  0.00    -0.035 C  
HETATM    6  O   UNL     1      -5.304   5.402  68.751  1.00  0.00    -0.003 OA 
BRANCH   5   7
HETATM    7  O   UNL     1      -7.273   6.397  69.341  1.00  0.00    -0.080 OA 
BRANCH   7   8
HETATM    8  C   UNL     1      -7.658   6.931  68.061  1.00  0.00    -0.108 C  
BRANCH   8   9
HETATM    9  O   UNL     1      -8.481   8.090  68.147  1.00  0.00    -0.122 OA 
HETATM   10  P   UNL     1      -9.627   8.210  66.997  1.00  0.00    -0.238 P  
HETATM   11  C   UNL     1     -10.712   6.788  67.271  1.00  0.00    -0.353 C  
HETATM   12  O   UNL     1      -9.082   8.348  65.612  1.00  0.00    -0.172 OA 
HETATM   13  O   UNL     1     -10.623   9.378  67.482  1.00  0.00    -0.262 OA 
BRANCH  13  14
HETATM   14  C   UNL     1     -10.321  10.740  67.383  1.00  0.00    -0.211 C  
BRANCH  14  15
HETATM   15  O   UNL     1     -11.473  11.451  66.871  1.00  0.00    -0.445 OA 
BRANCH  15  16
HETATM   16  C   UNL     1     -11.363  12.809  66.831  1.00  0.00    -0.321 C  
HETATM   17  O   UNL     1     -11.064  13.500  67.798  1.00  0.00    -0.255 OA 
BRANCH  16  18
HETATM   18  C   UNL     1     -11.668  13.382  65.430  1.00  0.00    -0.354 C  
HETATM   19  C   UNL     1     -10.407  14.072  64.869  1.00  0.00    -0.434 C  
HETATM   20  C   UNL     1     -12.790  14.425  65.514  1.00  0.00    -0.243 C  
HETATM   21  C   UNL     1     -12.069  12.263  64.458  1.00  0.00    -0.462 C  
ENDBRANCH  16  18
ENDBRANCH  15  16
ENDBRANCH  14  15
ENDBRANCH  13  14
BRANCH  11  22
HETATM   22  O   UNL     1     -11.156   6.937  68.622  1.00  0.00    -0.175 OA 
BRANCH  22  23
HETATM   23  C   UNL     1     -11.132   5.726  69.348  1.00  0.00    -0.189 C  
BRANCH  23  24
HETATM   24  C   UNL     1     -10.438   5.976  70.680  1.00  0.00    -0.246 C  
BRANCH  24  25
HETATM   25  N   UNL     1     -10.736   7.302  71.154  1.00  0.00    -0.227 NA 
HETATM   26  C   UNL     1     -11.983   7.760  71.455  1.00  0.00    -0.306 A  
HETATM   27  N   UNL     1     -13.119   7.049  71.547  1.00  0.00    -0.371 NA 
HETATM   28  H2  UNL     1     -12.590  11.612  71.016  1.00  0.00     0.000 HD 
HETATM   29  H1  UNL     1     -13.876  11.792  72.025  1.00  0.00     0.000 HD 
HETATM   30  C   UNL     1      -9.878   8.368  71.164  1.00  0.00    -0.192 A  
HETATM   31  N   UNL     1     -10.509   9.495  71.413  1.00  0.00    -0.276 NA 
HETATM   32  C   UNL     1     -11.835   9.129  71.571  1.00  0.00    -0.358 A  
HETATM   33  C   UNL     1     -13.006   9.870  71.788  1.00  0.00    -0.449 A  
HETATM   34  N   UNL     1     -13.024  11.254  71.866  1.00  0.00    -0.437 NA 
HETATM   35  N   UNL     1     -14.177   9.200  71.924  1.00  0.00    -0.275 NA 
HETATM   36  C   UNL     1     -14.168   7.854  71.799  1.00  0.00    -0.451 A  
ENDBRANCH  24  25
ENDBRANCH  23  24
ENDBRANCH  22  23
ENDBRANCH  11  22
ENDBRANCH   8   9
ENDBRANCH   7   8
ENDBRANCH   5   7
ENDBRANCH   2   5
TORSDOF 12
ENDMDL
MODEL      150
REMARK 921   NORMALIZED FREE ENERGY PREDICTED BY IDOCK:   -4.65 KCAL/MOL
REMARK 922        TOTAL FREE ENERGY PREDICTED BY IDOCK:   -9.50 KCAL/MOL
REMARK 923 INTER-LIGAND FREE ENERGY PREDICTED BY IDOCK:   -7.92 KCAL/MOL
REMARK 924 INTRA-LIGAND FREE ENERGY PREDICTED BY IDOCK:   -1.58 KCAL/MOL
REMARK 927      BINDING AFFINITY PREDICTED BY RF-SCORE:    0.00 PKD
ROOT
HETATM    1  C   UNL     1     -12.478  12.765  65.822  1.00  0.00    -0.253 C  
HETATM    2  C   UNL     1     -11.691  12.440  64.538  1.00  0.00    -0.427 C  
HETATM    3  C   UNL     1     -12.690  12.095  63.428  1.00  0.00    -0.508 C  
HETATM    4  C   UNL     1     -10.879  13.683  64.141  1.00  0.00    -0.178 C  
ENDROOT
BRANCH   2   5
HETATM    5  C   UNL     1     -10.731  11.275  64.829  1.00  0.00    -0.285 C  
HETATM    6  O   UNL     1     -10.118  10.673  63.952  1.00  0.00    -0.328 OA 
BRANCH   5   7
HETATM    7  O   UNL     1     -10.710  10.917  66.144  1.00  0.00    -0.235 OA 
BRANCH   7   8
HETATM    8  C   UNL     1      -9.448  11.143  66.800  1.00  0.00    -0.184 C  
BRANCH   8   9
HETATM    9  O   UNL     1      -8.873  12.416  66.516  1.00  0.00    -0.191 OA 
HETATM   10  P   UNL     1      -8.710  13.402  67.801  1.00  0.00    -0.225 P  
HETATM   11  C   UNL     1      -7.552  12.548  68.898  1.00  0.00     0.047 C  
HETATM   12  O   UNL     1     -10.009  13.806  68.421  1.00  0.00    -0.224 OA 
HETATM   13  O   UNL     1      -7.754  14.604  67.320  1.00  0.00    -0.194 OA 
BRANCH  13  14
HETATM   14  C   UNL     1      -8.189  15.659  66.512  1.00  0.00    -0.192 C  
BRANCH  14  15
HETATM   15  O   UNL     1      -8.293  16.863  67.309  1.00  0.00    -0.178 OA 
BRANCH  15  16
HETATM   16  C   UNL     1      -8.456  18.023  66.613  1.00  0.00    -0.262 C  
HETATM   17  O   UNL     1      -7.765  18.350  65.655  1.00  0.00    -0.518 OA 
BRANCH  16  18
HETATM   18  C   UNL     1      -9.606  18.888  67.175  1.00  0.00    -0.344 C  
HETATM   19  C   UNL     1     -10.482  19.399  66.013  1.00  0.00    -0.596 C  
HETATM   20  C   UNL     1      -9.043  20.102  67.923  1.00  0.00    -0.352 C  
HETATM   21  C   UNL     1     -10.499  18.065  68.115  1.00  0.00    -0.373 C  
ENDBRANCH  16  18
ENDBRANCH  15  16
ENDBRANCH  14  15
ENDBRANCH  13  14
BRANCH  11  22
HETATM   22  O   UNL     1      -6.382  12.356  68.098  1.00  0.00    -0.055 OA 
BRANCH  22  23
HETATM   23  C   UNL     1      -5.965  11.007  68.045  1.00  0.00    -0.049 C  
BRANCH  23  24
HETATM   24  C   UNL     1      -6.527  10.281  69.259  1.00  0.00    -0.049 C  
BRANCH  24  25
HETATM   25  N   UNL     1      -7.467   9.273  68.845  1.00  0.00    -0.074 NA 
HETATM   26  C   UNL     1      -8.633   8.984  69.488  1.00  0.00    -0.138 A  
HETATM   27  N   UNL     1      -9.211   9.670  70.488  1.00  0.00    -0.220 NA 
HETATM   28  H2  UNL     1      -9.946   5.299  69.166  1.00  0.00     0.000 HD 
HETATM   29  H1  UNL     1     -11.536   5.557  69.494  1.00  0.00     0.000 HD 
HETATM   30  C   UNL     1      -7.252   8.307  67.900  1.00  0.00    -0.095 A  
HETATM   31  N   UNL     1      -8.193   7.387  67.926  1.00  0.00    -0.119 NA 
HETATM   32  C   UNL     1      -9.050   7.787  68.937  1.00  0.00    -0.141 A  
HETATM   33  C   UNL     1     -10.197   7.205  69.496  1.00  0.00    -0.195 A  
HETATM   34  N   UNL     1     -10.701   5.980  69.088  1.00  0.00    -0.296 NA 
HETATM   35  N   UNL     1     -10.842   7.872  70.484  1.00  0.00    -0.238 NA 
HETATM   36  C   UNL     1     -10.324   9.044  70.915  1.00  0.00    -0.256 A  
ENDBRANCH  24  25
ENDBRANCH  23  24
ENDBRANCH  22  23
ENDBRANCH  11  22
ENDBRANCH   8   9
ENDBRANCH   7   8
ENDBRANCH   5   7
ENDBRANCH   2   5
TORSDOF 12
ENDMDL
MODEL      151
REMARK 921   NORMALIZED FREE ENERGY PREDICTED BY IDOCK:   -4.64 KCAL/MOL
REMARK 922        TOTAL FREE ENERGY PREDICTED BY IDOCK:   -9.49 KCAL/MOL
REMARK 923 INTER-LIGAND FREE ENERGY PREDICTED BY IDOCK:   -8.18 KCAL/MOL
REMARK 924 INTRA-LIGAND FREE ENERGY PREDICTED BY IDOCK:   -1.31 KCAL/MOL
REMARK 927      BINDING AFFINITY PREDICTED BY RF-SCORE:    0.00 PKD
ROOT
HETATM    1  C   UNL     1      -8.967   5.498  65.926  1.00  0.00    -0.158 C  
HETATM    2  C   UNL     1      -8.015   6.709  65.984  1.00  0.00    -0.112 C  
HETATM    3  C   UNL     1      -6.658   6.237  66.518  1.00  0.00    -0.048 C  
HETATM    4  C   UNL     1      -7.850   7.262  64.559  1.00  0.00    -0.121 C  
ENDROOT
BRANCH   2   5
HETATM    5  C   UNL     1      -8.641   7.788  66.881  1.00  0.00    -0.130 C  
HETATM    6  O   UNL     1      -8.407   7.884  68.083  1.00  0.00    -0.122 OA 
BRANCH   5   7
HETATM    7  O   UNL     1      -9.556   8.560  66.229  1.00  0.00    -0.225 OA 
BRANCH   7   8
HETATM    8  C   UNL     1     -10.513   9.202  67.091  1.00  0.00    -0.255 C  
BRANCH   8   9
HETATM    9  O   UNL     1     -10.090  10.476  67.570  1.00  0.00    -0.176 OA 
HETATM   10  P   UNL     1     -11.289  11.542  67.847  1.00  0.00    -0.301 P  
HETATM   11  C   UNL     1     -12.277  10.799  69.168  1.00  0.00    -0.051 C  
HETATM   12  O   UNL     1     -12.044  11.934  66.618  1.00  0.00    -0.587 OA 
HETATM   13  O   UNL     1     -10.626  12.748  68.682  1.00  0.00    -0.247 OA 
BRANCH  13  14
HETATM   14  C   UNL     1      -9.823  13.736  68.105  1.00  0.00    -0.239 C  
BRANCH  14  15
HETATM   15  O   UNL     1     -10.661  14.808  67.611  1.00  0.00    -0.256 OA 
BRANCH  15  16
HETATM   16  C   UNL     1     -10.014  15.814  66.956  1.00  0.00    -0.239 C  
HETATM   17  O   UNL     1      -9.614  15.731  65.800  1.00  0.00    -0.330 OA 
BRANCH  16  18
HETATM   18  C   UNL     1      -9.831  17.068  67.838  1.00  0.00    -0.269 C  
HETATM   19  C   UNL     1     -10.481  16.829  69.216  1.00  0.00    -0.331 C  
HETATM   20  C   UNL     1     -10.511  18.279  67.188  1.00  0.00    -0.417 C  
HETATM   21  C   UNL     1      -8.341  17.366  68.062  1.00  0.00    -0.231 C  
ENDBRANCH  16  18
ENDBRANCH  15  16
ENDBRANCH  14  15
ENDBRANCH  13  14
BRANCH  11  22
HETATM   22  O   UNL     1     -11.348  10.603  70.237  1.00  0.00    -0.298 OA 
BRANCH  22  23
HETATM   23  C   UNL     1     -11.969  10.203  71.441  1.00  0.00    -0.358 C  
BRANCH  23  24
HETATM   24  C   UNL     1     -12.492   8.784  71.266  1.00  0.00    -0.260 C  
BRANCH  24  25
HETATM   25  N   UNL     1     -11.509   7.833  71.714  1.00  0.00    -0.257 NA 
HETATM   26  C   UNL     1     -11.029   6.800  70.968  1.00  0.00    -0.255 A  
HETATM   27  N   UNL     1     -11.221   6.574  69.658  1.00  0.00    -0.369 NA 
HETATM   28  H2  UNL     1      -9.833   3.621  72.936  1.00  0.00     0.000 HD 
HETATM   29  H1  UNL     1      -8.821   2.981  71.811  1.00  0.00     0.000 HD 
HETATM   30  C   UNL     1     -11.075   7.666  73.001  1.00  0.00    -0.381 A  
HETATM   31  N   UNL     1     -10.374   6.561  73.136  1.00  0.00    -0.214 NA 
HETATM   32  C   UNL     1     -10.361   5.995  71.872  1.00  0.00    -0.209 A  
HETATM   33  C   UNL     1      -9.841   4.791  71.375  1.00  0.00    -0.187 A  
HETATM   34  N   UNL     1      -9.199   3.856  72.173  1.00  0.00    -0.115 NA 
HETATM   35  N   UNL     1      -9.975   4.528  70.053  1.00  0.00    -0.228 NA 
HETATM   36  C   UNL     1     -10.643   5.416  69.283  1.00  0.00    -0.201 A  
ENDBRANCH  24  25
ENDBRANCH  23  24
ENDBRANCH  22  23
ENDBRANCH  11  22
ENDBRANCH   8   9
ENDBRANCH   7   8
ENDBRANCH   5   7
ENDBRANCH   2   5
TORSDOF 12
ENDMDL
MODEL      152
REMARK 921   NORMALIZED FREE ENERGY PREDICTED BY IDOCK:   -4.63 KCAL/MOL
REMARK 922        TOTAL FREE ENERGY PREDICTED BY IDOCK:   -9.47 KCAL/MOL
REMARK 923 INTER-LIGAND FREE ENERGY PREDICTED BY IDOCK:   -8.00 KCAL/MOL
REMARK 924 INTRA-LIGAND FREE ENERGY PREDICTED BY IDOCK:   -1.46 KCAL/MOL
REMARK 927      BINDING AFFINITY PREDICTED BY RF-SCORE:    0.00 PKD
ROOT
HETATM    1  C   UNL     1     -10.741   6.693  70.410  1.00  0.00    -0.297 C  
HETATM    2  C   UNL     1      -9.788   6.172  69.317  1.00  0.00    -0.182 C  
HETATM    3  C   UNL     1      -8.346   6.311  69.822  1.00  0.00    -0.125 C  
HETATM    4  C   UNL     1     -10.110   4.691  69.061  1.00  0.00    -0.117 C  
ENDROOT
BRANCH   2   5
HETATM    5  C   UNL     1     -10.024   6.977  68.029  1.00  0.00    -0.154 C  
HETATM    6  O   UNL     1     -10.581   6.513  67.039  1.00  0.00    -0.255 OA 
BRANCH   5   7
HETATM    7  O   UNL     1      -9.465   8.219  68.066  1.00  0.00    -0.139 OA 
BRANCH   7   8
HETATM    8  C   UNL     1      -9.518   8.931  66.815  1.00  0.00    -0.187 C  
BRANCH   8   9
HETATM    9  O   UNL     1     -10.165  10.198  66.903  1.00  0.00    -0.215 OA 
HETATM   10  P   UNL     1     -10.044  10.936  68.349  1.00  0.00    -0.200 P  
HETATM   11  C   UNL     1      -8.275  11.246  68.567  1.00  0.00    -0.150 C  
HETATM   12  O   UNL     1     -10.712  10.196  69.462  1.00  0.00    -0.215 OA 
HETATM   13  O   UNL     1     -10.533  12.452  68.116  1.00  0.00    -0.206 OA 
BRANCH  13  14
HETATM   14  C   UNL     1     -11.877  12.818  67.993  1.00  0.00    -0.336 C  
BRANCH  14  15
HETATM   15  O   UNL     1     -11.987  13.941  67.086  1.00  0.00    -0.392 OA 
BRANCH  15  16
HETATM   16  C   UNL     1     -12.262  13.631  65.788  1.00  0.00    -0.464 C  
HETATM   17  O   UNL     1     -13.259  13.015  65.428  1.00  0.00    -0.538 OA 
BRANCH  16  18
HETATM   18  C   UNL     1     -11.170  14.134  64.819  1.00  0.00    -0.379 C  
HETATM   19  C   UNL     1     -11.672  15.395  64.086  1.00  0.00    -0.109 C  
HETATM   20  C   UNL     1     -10.854  13.061  63.770  1.00  0.00    -0.266 C  
HETATM   21  C   UNL     1      -9.892  14.506  65.584  1.00  0.00    -0.337 C  
ENDBRANCH  16  18
ENDBRANCH  15  16
ENDBRANCH  14  15
ENDBRANCH  13  14
BRANCH  11  22
HETATM   22  O   UNL     1      -7.909  12.028  67.427  1.00  0.00    -0.144 OA 
BRANCH  22  23
HETATM   23  C   UNL     1      -6.847  12.922  67.689  1.00  0.00    -0.149 C  
BRANCH  23  24
HETATM   24  C   UNL     1      -7.210  13.756  68.909  1.00  0.00    -0.095 C  
BRANCH  24  25
HETATM   25  N   UNL     1      -7.367  15.138  68.539  1.00  0.00    -0.115 NA 
HETATM   26  C   UNL     1      -8.500  15.871  68.725  1.00  0.00    -0.204 A  
HETATM   27  N   UNL     1      -9.592  15.530  69.429  1.00  0.00    -0.266 NA 
HETATM   28  H2  UNL     1      -9.137  18.794  66.184  1.00  0.00     0.000 HD 
HETATM   29  H1  UNL     1     -10.144  19.720  67.096  1.00  0.00     0.000 HD 
HETATM   30  C   UNL     1      -6.516  15.865  67.752  1.00  0.00    -0.156 A  
HETATM   31  N   UNL     1      -7.053  17.009  67.385  1.00  0.00    -0.149 NA 
HETATM   32  C   UNL     1      -8.309  17.011  67.968  1.00  0.00    -0.211 A  
HETATM   33  C   UNL     1      -9.384  17.910  67.906  1.00  0.00    -0.271 A  
HETATM   34  N   UNL     1      -9.362  19.066  67.141  1.00  0.00    -0.301 NA 
HETATM   35  N   UNL     1     -10.498  17.633  68.625  1.00  0.00    -0.347 NA 
HETATM   36  C   UNL     1     -10.539  16.482  69.333  1.00  0.00    -0.329 A  
ENDBRANCH  24  25
ENDBRANCH  23  24
ENDBRANCH  22  23
ENDBRANCH  11  22
ENDBRANCH   8   9
ENDBRANCH   7   8
ENDBRANCH   5   7
ENDBRANCH   2   5
TORSDOF 12
ENDMDL
MODEL      153
REMARK 921   NORMALIZED FREE ENERGY PREDICTED BY IDOCK:   -4.60 KCAL/MOL
REMARK 922        TOTAL FREE ENERGY PREDICTED BY IDOCK:   -9.42 KCAL/MOL
REMARK 923 INTER-LIGAND FREE ENERGY PREDICTED BY IDOCK:   -7.55 KCAL/MOL
REMARK 924 INTRA-LIGAND FREE ENERGY PREDICTED BY IDOCK:   -1.87 KCAL/MOL
REMARK 927      BINDING AFFINITY PREDICTED BY RF-SCORE:    0.00 PKD
ROOT
HETATM    1  C   UNL     1     -10.985  12.713  63.590  1.00  0.00    -0.464 C  
HETATM    2  C   UNL     1     -11.196  13.559  64.861  1.00  0.00    -0.353 C  
HETATM    3  C   UNL     1     -10.046  14.567  64.971  1.00  0.00    -0.325 C  
HETATM    4  C   UNL     1     -12.533  14.305  64.728  1.00  0.00    -0.390 C  
ENDROOT
BRANCH   2   5
HETATM    5  C   UNL     1     -11.254  12.619  66.075  1.00  0.00    -0.306 C  
HETATM    6  O   UNL     1     -12.295  12.117  66.490  1.00  0.00    -0.474 OA 
BRANCH   5   7
HETATM    7  O   UNL     1     -10.052  12.483  66.702  1.00  0.00    -0.224 OA 
BRANCH   7   8
HETATM    8  C   UNL     1      -9.372  11.245  66.419  1.00  0.00    -0.192 C  
BRANCH   8   9
HETATM    9  O   UNL     1      -9.019  10.505  67.584  1.00  0.00    -0.137 OA 
HETATM   10  P   UNL     1     -10.187   9.530  68.163  1.00  0.00    -0.214 P  
HETATM   11  C   UNL     1     -10.474   8.318  66.851  1.00  0.00    -0.295 C  
HETATM   12  O   UNL     1     -11.399  10.260  68.644  1.00  0.00    -0.234 OA 
HETATM   13  O   UNL     1      -9.471   8.567  69.236  1.00  0.00    -0.157 OA 
BRANCH  13  14
HETATM   14  C   UNL     1      -9.116   8.979  70.525  1.00  0.00    -0.221 C  
BRANCH  14  15
HETATM   15  O   UNL     1      -9.728   8.096  71.496  1.00  0.00    -0.160 OA 
BRANCH  15  16
HETATM   16  C   UNL     1     -11.079   8.214  71.637  1.00  0.00    -0.255 C  
HETATM   17  O   UNL     1     -11.650   9.264  71.907  1.00  0.00    -0.372 OA 
BRANCH  16  18
HETATM   18  C   UNL     1     -11.810   6.870  71.428  1.00  0.00    -0.373 C  
HETATM   19  C   UNL     1     -13.333   7.090  71.533  1.00  0.00    -0.370 C  
HETATM   20  C   UNL     1     -11.393   5.864  72.508  1.00  0.00    -0.352 C  
HETATM   21  C   UNL     1     -11.509   6.295  70.036  1.00  0.00    -0.460 C  
ENDBRANCH  16  18
ENDBRANCH  15  16
ENDBRANCH  14  15
ENDBRANCH  13  14
BRANCH  11  22
HETATM   22  O   UNL     1      -9.196   7.713  66.641  1.00  0.00    -0.153 OA 
BRANCH  22  23
HETATM   23  C   UNL     1      -9.264   6.309  66.508  1.00  0.00    -0.154 C  
BRANCH  23  24
HETATM   24  C   UNL     1      -7.853   5.747  66.606  1.00  0.00    -0.101 C  
BRANCH  24  25
HETATM   25  N   UNL     1      -7.368   5.852  67.958  1.00  0.00    -0.079 NA 
HETATM   26  C   UNL     1      -7.826   5.115  69.008  1.00  0.00    -0.081 A  
HETATM   27  N   UNL     1      -8.653   4.057  68.971  1.00  0.00    -0.081 NA 
HETATM   28  H2  UNL     1      -7.590   6.781  72.554  1.00  0.00     0.000 HD 
HETATM   29  H1  UNL     1      -7.620   5.426  73.484  1.00  0.00     0.000 HD 
HETATM   30  C   UNL     1      -6.557   6.837  68.451  1.00  0.00    -0.059 A  
HETATM   31  N   UNL     1      -6.498   6.803  69.765  1.00  0.00    -0.042 NA 
HETATM   32  C   UNL     1      -7.312   5.743  70.127  1.00  0.00    -0.073 A  
HETATM   33  C   UNL     1      -7.714   5.235  71.371  1.00  0.00    -0.106 A  
HETATM   34  N   UNL     1      -7.329   5.796  72.579  1.00  0.00    -0.093 NA 
HETATM   35  N   UNL     1      -8.520   4.146  71.393  1.00  0.00    -0.095 NA 
HETATM   36  C   UNL     1      -8.935   3.627  70.216  1.00  0.00    -0.103 A  
ENDBRANCH  24  25
ENDBRANCH  23  24
ENDBRANCH  22  23
ENDBRANCH  11  22
ENDBRANCH   8   9
ENDBRANCH   7   8
ENDBRANCH   5   7
ENDBRANCH   2   5
TORSDOF 12
ENDMDL
MODEL      154
REMARK 921   NORMALIZED FREE ENERGY PREDICTED BY IDOCK:   -4.60 KCAL/MOL
REMARK 922        TOTAL FREE ENERGY PREDICTED BY IDOCK:   -9.42 KCAL/MOL
REMARK 923 INTER-LIGAND FREE ENERGY PREDICTED BY IDOCK:   -7.58 KCAL/MOL
REMARK 924 INTRA-LIGAND FREE ENERGY PREDICTED BY IDOCK:   -1.84 KCAL/MOL
REMARK 927      BINDING AFFINITY PREDICTED BY RF-SCORE:    0.00 PKD
ROOT
HETATM    1  C   UNL     1     -10.346  17.911  66.820  1.00  0.00    -0.357 C  
HETATM    2  C   UNL     1      -9.727  17.068  67.952  1.00  0.00    -0.263 C  
HETATM    3  C   UNL     1      -8.437  17.753  68.419  1.00  0.00    -0.295 C  
HETATM    4  C   UNL     1     -10.733  17.005  69.113  1.00  0.00    -0.253 C  
ENDROOT
BRANCH   2   5
HETATM    5  C   UNL     1      -9.465  15.649  67.425  1.00  0.00    -0.215 C  
HETATM    6  O   UNL     1      -8.421  15.318  66.872  1.00  0.00    -0.218 OA 
BRANCH   5   7
HETATM    7  O   UNL     1     -10.546  14.827  67.546  1.00  0.00    -0.254 OA 
BRANCH   7   8
HETATM    8  C   UNL     1     -10.372  13.527  66.952  1.00  0.00    -0.265 C  
BRANCH   8   9
HETATM    9  O   UNL     1      -9.997  12.516  67.884  1.00  0.00    -0.200 OA 
HETATM   10  P   UNL     1     -10.785  11.101  67.722  1.00  0.00    -0.262 P  
HETATM   11  C   UNL     1     -10.313  10.491  66.086  1.00  0.00    -0.210 C  
HETATM   12  O   UNL     1     -12.254  11.195  67.977  1.00  0.00    -0.584 OA 
HETATM   13  O   UNL     1      -9.979  10.038  68.624  1.00  0.00    -0.155 OA 
BRANCH  13  14
HETATM   14  C   UNL     1     -10.074   9.980  70.018  1.00  0.00    -0.239 C  
BRANCH  14  15
HETATM   15  O   UNL     1     -11.186   9.131  70.388  1.00  0.00    -0.245 OA 
BRANCH  15  16
HETATM   16  C   UNL     1     -10.956   8.266  71.416  1.00  0.00    -0.249 C  
HETATM   17  O   UNL     1     -10.186   8.494  72.342  1.00  0.00    -0.312 OA 
BRANCH  16  18
HETATM   18  C   UNL     1     -11.769   6.961  71.279  1.00  0.00    -0.371 C  
HETATM   19  C   UNL     1     -13.258   7.247  71.561  1.00  0.00    -0.434 C  
HETATM   20  C   UNL     1     -11.279   5.919  72.293  1.00  0.00    -0.343 C  
HETATM   21  C   UNL     1     -11.655   6.394  69.856  1.00  0.00    -0.422 C  
ENDBRANCH  16  18
ENDBRANCH  15  16
ENDBRANCH  14  15
ENDBRANCH  13  14
BRANCH  11  22
HETATM   22  O   UNL     1      -8.886  10.416  66.133  1.00  0.00    -0.150 OA 
BRANCH  22  23
HETATM   23  C   UNL     1      -8.378   9.215  65.592  1.00  0.00    -0.125 C  
BRANCH  23  24
HETATM   24  C   UNL     1      -7.542   8.521  66.659  1.00  0.00    -0.082 C  
BRANCH  24  25
HETATM   25  N   UNL     1      -8.191   7.311  67.090  1.00  0.00    -0.117 NA 
HETATM   26  C   UNL     1      -8.134   6.805  68.353  1.00  0.00    -0.119 A  
HETATM   27  N   UNL     1      -7.641   7.396  69.454  1.00  0.00    -0.094 NA 
HETATM   28  H2  UNL     1      -8.471   2.910  68.699  1.00  0.00     0.000 HD 
HETATM   29  H1  UNL     1      -8.972   2.827  70.263  1.00  0.00     0.000 HD 
HETATM   30  C   UNL     1      -8.765   6.369  66.280  1.00  0.00    -0.143 A  
HETATM   31  N   UNL     1      -9.044   5.267  66.942  1.00  0.00    -0.113 NA 
HETATM   32  C   UNL     1      -8.628   5.519  68.238  1.00  0.00    -0.096 A  
HETATM   33  C   UNL     1      -8.592   4.728  69.395  1.00  0.00    -0.082 A  
HETATM   34  N   UNL     1      -8.997   3.402  69.421  1.00  0.00    -0.102 NA 
HETATM   35  N   UNL     1      -8.137   5.285  70.544  1.00  0.00    -0.101 NA 
HETATM   36  C   UNL     1      -7.697   6.563  70.510  1.00  0.00    -0.105 A  
ENDBRANCH  24  25
ENDBRANCH  23  24
ENDBRANCH  22  23
ENDBRANCH  11  22
ENDBRANCH   8   9
ENDBRANCH   7   8
ENDBRANCH   5   7
ENDBRANCH   2   5
TORSDOF 12
ENDMDL
MODEL      155
REMARK 921   NORMALIZED FREE ENERGY PREDICTED BY IDOCK:   -4.59 KCAL/MOL
REMARK 922        TOTAL FREE ENERGY PREDICTED BY IDOCK:   -9.41 KCAL/MOL
REMARK 923 INTER-LIGAND FREE ENERGY PREDICTED BY IDOCK:   -8.19 KCAL/MOL
REMARK 924 INTRA-LIGAND FREE ENERGY PREDICTED BY IDOCK:   -1.22 KCAL/MOL
REMARK 927      BINDING AFFINITY PREDICTED BY RF-SCORE:    0.00 PKD
ROOT
HETATM    1  C   UNL     1     -12.320  15.148  72.885  1.00  0.00    -0.495 C  
HETATM    2  C   UNL     1     -13.193  14.414  71.850  1.00  0.00    -0.444 C  
HETATM    3  C   UNL     1     -13.659  13.086  72.459  1.00  0.00    -0.537 C  
HETATM    4  C   UNL     1     -14.410  15.296  71.532  1.00  0.00    -0.633 C  
ENDROOT
BRANCH   2   5
HETATM    5  C   UNL     1     -12.369  14.200  70.570  1.00  0.00    -0.364 C  
HETATM    6  O   UNL     1     -11.956  15.122  69.873  1.00  0.00    -0.298 OA 
BRANCH   5   7
HETATM    7  O   UNL     1     -12.230  12.885  70.238  1.00  0.00    -0.339 OA 
BRANCH   7   8
HETATM    8  C   UNL     1     -11.376  12.647  69.104  1.00  0.00    -0.282 C  
BRANCH   8   9
HETATM    9  O   UNL     1     -10.628  11.438  69.193  1.00  0.00    -0.211 OA 
HETATM   10  P   UNL     1     -10.031  10.889  67.781  1.00  0.00    -0.185 P  
HETATM   11  C   UNL     1      -8.875  12.170  67.236  1.00  0.00    -0.186 C  
HETATM   12  O   UNL     1     -11.081  10.503  66.791  1.00  0.00    -0.151 OA 
HETATM   13  O   UNL     1      -8.966   9.744  68.164  1.00  0.00    -0.120 OA 
BRANCH  13  14
HETATM   14  C   UNL     1      -9.332   8.453  68.561  1.00  0.00    -0.139 C  
BRANCH  14  15
HETATM   15  O   UNL     1      -8.160   7.748  69.036  1.00  0.00    -0.121 OA 
BRANCH  15  16
HETATM   16  C   UNL     1      -8.357   6.919  70.100  1.00  0.00    -0.135 C  
HETATM   17  O   UNL     1      -9.451   6.474  70.427  1.00  0.00    -0.161 OA 
BRANCH  16  18
HETATM   18  C   UNL     1      -7.046   6.613  70.856  1.00  0.00    -0.069 C  
HETATM   19  C   UNL     1      -6.004   6.043  69.872  1.00  0.00    -0.025 C  
HETATM   20  C   UNL     1      -7.295   5.568  71.952  1.00  0.00    -0.092 C  
HETATM   21  C   UNL     1      -6.463   7.890  71.478  1.00  0.00    -0.039 C  
ENDBRANCH  16  18
ENDBRANCH  15  16
ENDBRANCH  14  15
ENDBRANCH  13  14
BRANCH  11  22
HETATM   22  O   UNL     1      -7.941  12.287  68.313  1.00  0.00    -0.149 OA 
BRANCH  22  23
HETATM   23  C   UNL     1      -7.523  13.617  68.539  1.00  0.00    -0.119 C  
BRANCH  23  24
HETATM   24  C   UNL     1      -8.688  14.548  68.233  1.00  0.00    -0.173 C  
BRANCH  24  25
HETATM   25  N   UNL     1      -8.311  15.914  68.480  1.00  0.00    -0.173 NA 
HETATM   26  C   UNL     1      -8.975  17.004  68.003  1.00  0.00    -0.230 A  
HETATM   27  N   UNL     1     -10.170  17.034  67.389  1.00  0.00    -0.306 NA 
HETATM   28  H2  UNL     1      -6.836  20.239  67.404  1.00  0.00     0.000 HD 
HETATM   29  H1  UNL     1      -8.034  21.363  67.469  1.00  0.00     0.000 HD 
HETATM   30  C   UNL     1      -7.130  16.341  69.024  1.00  0.00    -0.196 A  
HETATM   31  N   UNL     1      -6.976  17.641  68.887  1.00  0.00    -0.245 NA 
HETATM   32  C   UNL     1      -8.115  18.063  68.224  1.00  0.00    -0.291 A  
HETATM   33  C   UNL     1      -8.521  19.313  67.733  1.00  0.00    -0.305 A  
HETATM   34  N   UNL     1      -7.739  20.454  67.826  1.00  0.00    -0.265 NA 
HETATM   35  N   UNL     1      -9.733  19.408  67.135  1.00  0.00    -0.319 NA 
HETATM   36  C   UNL     1     -10.476  18.286  67.000  1.00  0.00    -0.385 A  
ENDBRANCH  24  25
ENDBRANCH  23  24
ENDBRANCH  22  23
ENDBRANCH  11  22
ENDBRANCH   8   9
ENDBRANCH   7   8
ENDBRANCH   5   7
ENDBRANCH   2   5
TORSDOF 12
ENDMDL
MODEL      156
REMARK 921   NORMALIZED FREE ENERGY PREDICTED BY IDOCK:   -4.59 KCAL/MOL
REMARK 922        TOTAL FREE ENERGY PREDICTED BY IDOCK:   -9.40 KCAL/MOL
REMARK 923 INTER-LIGAND FREE ENERGY PREDICTED BY IDOCK:   -7.70 KCAL/MOL
REMARK 924 INTRA-LIGAND FREE ENERGY PREDICTED BY IDOCK:   -1.70 KCAL/MOL
REMARK 927      BINDING AFFINITY PREDICTED BY RF-SCORE:    0.00 PKD
ROOT
HETATM    1  C   UNL     1     -13.079   7.289  71.657  1.00  0.00    -0.417 C  
HETATM    2  C   UNL     1     -11.608   6.845  71.535  1.00  0.00    -0.329 C  
HETATM    3  C   UNL     1     -11.328   5.787  72.609  1.00  0.00    -0.349 C  
HETATM    4  C   UNL     1     -11.402   6.238  70.139  1.00  0.00    -0.476 C  
ENDROOT
BRANCH   2   5
HETATM    5  C   UNL     1     -10.705   8.078  71.695  1.00  0.00    -0.232 C  
HETATM    6  O   UNL     1     -10.979   9.023  72.429  1.00  0.00    -0.198 OA 
BRANCH   5   7
HETATM    7  O   UNL     1      -9.624   8.059  70.865  1.00  0.00    -0.160 OA 
BRANCH   7   8
HETATM    8  C   UNL     1      -9.353   9.314  70.214  1.00  0.00    -0.239 C  
BRANCH   8   9
HETATM    9  O   UNL     1      -8.272   9.258  69.288  1.00  0.00    -0.101 OA 
HETATM   10  P   UNL     1      -8.687   8.856  67.766  1.00  0.00    -0.124 P  
HETATM   11  C   UNL     1      -9.771  10.193  67.210  1.00  0.00    -0.167 C  
HETATM   12  O   UNL     1      -9.245   7.476  67.637  1.00  0.00    -0.128 OA 
HETATM   13  O   UNL     1      -7.402   9.185  66.853  1.00  0.00    -0.088 OA 
BRANCH  13  14
HETATM   14  C   UNL     1      -6.264   8.374  66.803  1.00  0.00    -0.055 C  
BRANCH  14  15
HETATM   15  O   UNL     1      -6.466   7.324  65.828  1.00  0.00    -0.043 OA 
BRANCH  15  16
HETATM   16  C   UNL     1      -6.291   6.050  66.283  1.00  0.00    -0.042 C  
HETATM   17  O   UNL     1      -5.478   5.737  67.145  1.00  0.00    -0.008 OA 
BRANCH  16  18
HETATM   18  C   UNL     1      -7.228   5.043  65.583  1.00  0.00    -0.068 C  
HETATM   19  C   UNL     1      -8.206   5.802  64.662  1.00  0.00    -0.126 C  
HETATM   20  C   UNL     1      -8.048   4.267  66.621  1.00  0.00    -0.102 C  
HETATM   21  C   UNL     1      -6.425   4.062  64.716  1.00  0.00    -0.042 C  
ENDBRANCH  16  18
ENDBRANCH  15  16
ENDBRANCH  14  15
ENDBRANCH  13  14
BRANCH  11  22
HETATM   22  O   UNL     1      -8.980  11.375  67.356  1.00  0.00    -0.150 OA 
BRANCH  22  23
HETATM   23  C   UNL     1      -9.548  12.313  68.247  1.00  0.00    -0.212 C  
BRANCH  23  24
HETATM   24  C   UNL     1     -11.038  12.415  67.953  1.00  0.00    -0.239 C  
BRANCH  24  25
HETATM   25  N   UNL     1     -11.777  12.574  69.179  1.00  0.00    -0.309 NA 
HETATM   26  C   UNL     1     -12.082  13.770  69.754  1.00  0.00    -0.340 A  
HETATM   27  N   UNL     1     -11.930  14.997  69.229  1.00  0.00    -0.305 NA 
HETATM   28  H2  UNL     1     -12.480  13.788  73.659  1.00  0.00     0.000 HD 
HETATM   29  H1  UNL     1     -13.409  15.135  73.822  1.00  0.00     0.000 HD 
HETATM   30  C   UNL     1     -12.088  11.582  70.069  1.00  0.00    -0.331 A  
HETATM   31  N   UNL     1     -12.539  12.074  71.203  1.00  0.00    -0.336 NA 
HETATM   32  C   UNL     1     -12.514  13.447  71.027  1.00  0.00    -0.353 A  
HETATM   33  C   UNL     1     -12.808  14.520  71.880  1.00  0.00    -0.338 A  
HETATM   34  N   UNL     1     -13.195  14.354  73.201  1.00  0.00    -0.614 NA 
HETATM   35  N   UNL     1     -12.706  15.780  71.392  1.00  0.00    -0.464 NA 
HETATM   36  C   UNL     1     -12.282  15.945  70.118  1.00  0.00    -0.218 A  
ENDBRANCH  24  25
ENDBRANCH  23  24
ENDBRANCH  22  23
ENDBRANCH  11  22
ENDBRANCH   8   9
ENDBRANCH   7   8
ENDBRANCH   5   7
ENDBRANCH   2   5
TORSDOF 12
ENDMDL
MODEL      157
REMARK 921   NORMALIZED FREE ENERGY PREDICTED BY IDOCK:   -4.58 KCAL/MOL
REMARK 922        TOTAL FREE ENERGY PREDICTED BY IDOCK:   -9.39 KCAL/MOL
REMARK 923 INTER-LIGAND FREE ENERGY PREDICTED BY IDOCK:   -8.06 KCAL/MOL
REMARK 924 INTRA-LIGAND FREE ENERGY PREDICTED BY IDOCK:   -1.33 KCAL/MOL
REMARK 927      BINDING AFFINITY PREDICTED BY RF-SCORE:    0.00 PKD
ROOT
HETATM    1  C   UNL     1      -5.125   4.737  69.167  1.00  0.00     0.000 C  
HETATM    2  C   UNL     1      -5.715   6.099  69.583  1.00  0.00    -0.017 C  
HETATM    3  C   UNL     1      -5.296   6.390  71.029  1.00  0.00    -0.019 C  
HETATM    4  C   UNL     1      -5.144   7.177  68.648  1.00  0.00    -0.017 C  
ENDROOT
BRANCH   2   5
HETATM    5  C   UNL     1      -7.243   6.044  69.427  1.00  0.00    -0.074 C  
HETATM    6  O   UNL     1      -7.986   5.527  70.256  1.00  0.00    -0.096 OA 
BRANCH   5   7
HETATM    7  O   UNL     1      -7.675   6.538  68.232  1.00  0.00    -0.101 OA 
BRANCH   7   8
HETATM    8  C   UNL     1      -8.856   7.357  68.321  1.00  0.00    -0.128 C  
BRANCH   8   9
HETATM    9  O   UNL     1      -8.581   8.738  68.540  1.00  0.00    -0.132 OA 
HETATM   10  P   UNL     1      -9.712   9.764  67.976  1.00  0.00    -0.152 P  
HETATM   11  C   UNL     1     -11.203   9.380  68.925  1.00  0.00     0.140 C  
HETATM   12  O   UNL     1      -9.866   9.736  66.490  1.00  0.00    -0.196 OA 
HETATM   13  O   UNL     1      -9.371  11.199  68.623  1.00  0.00    -0.184 OA 
BRANCH  13  14
HETATM   14  C   UNL     1      -8.335  12.023  68.170  1.00  0.00    -0.165 C  
BRANCH  14  15
HETATM   15  O   UNL     1      -8.772  12.737  66.989  1.00  0.00    -0.202 OA 
BRANCH  15  16
HETATM   16  C   UNL     1      -9.170  14.026  67.189  1.00  0.00    -0.235 C  
HETATM   17  O   UNL     1      -8.630  14.794  67.977  1.00  0.00    -0.155 OA 
BRANCH  16  18
HETATM   18  C   UNL     1     -10.386  14.407  66.318  1.00  0.00    -0.300 C  
HETATM   19  C   UNL     1     -10.428  15.938  66.132  1.00  0.00    -0.336 C  
HETATM   20  C   UNL     1     -11.688  13.969  67.000  1.00  0.00    -0.425 C  
HETATM   21  C   UNL     1     -10.285  13.763  64.927  1.00  0.00    -0.374 C  
ENDBRANCH  16  18
ENDBRANCH  15  16
ENDBRANCH  14  15
ENDBRANCH  13  14
BRANCH  11  22
HETATM   22  O   UNL     1     -10.813   9.560  70.288  1.00  0.00    -0.232 OA 
BRANCH  22  23
HETATM   23  C   UNL     1     -11.747  10.310  71.037  1.00  0.00    -0.370 C  
BRANCH  23  24
HETATM   24  C   UNL     1     -12.265  11.444  70.162  1.00  0.00    -0.321 C  
BRANCH  24  25
HETATM   25  N   UNL     1     -12.858  12.470  70.978  1.00  0.00    -0.223 NA 
HETATM   26  C   UNL     1     -12.435  13.763  71.033  1.00  0.00    -0.380 A  
HETATM   27  N   UNL     1     -11.538  14.369  70.236  1.00  0.00    -0.268 NA 
HETATM   28  H2  UNL     1     -13.058  15.672  74.405  1.00  0.00     0.000 HD 
HETATM   29  H1  UNL     1     -13.008  17.217  73.846  1.00  0.00     0.000 HD 
HETATM   30  C   UNL     1     -13.771  12.279  71.980  1.00  0.00    -0.052 A  
HETATM   31  N   UNL     1     -13.929  13.366  72.705  1.00  0.00    -0.743 NA 
HETATM   32  C   UNL     1     -13.075  14.296  72.136  1.00  0.00    -0.382 A  
HETATM   33  C   UNL     1     -12.738  15.612  72.482  1.00  0.00    -0.433 A  
HETATM   34  N   UNL     1     -13.253  16.259  73.595  1.00  0.00    -0.648 NA 
HETATM   35  N   UNL     1     -11.865  16.283  71.692  1.00  0.00    -0.472 NA 
HETATM   36  C   UNL     1     -11.325  15.637  70.634  1.00  0.00    -0.368 A  
ENDBRANCH  24  25
ENDBRANCH  23  24
ENDBRANCH  22  23
ENDBRANCH  11  22
ENDBRANCH   8   9
ENDBRANCH   7   8
ENDBRANCH   5   7
ENDBRANCH   2   5
TORSDOF 12
ENDMDL
MODEL      158
REMARK 921   NORMALIZED FREE ENERGY PREDICTED BY IDOCK:   -4.58 KCAL/MOL
REMARK 922        TOTAL FREE ENERGY PREDICTED BY IDOCK:   -9.38 KCAL/MOL
REMARK 923 INTER-LIGAND FREE ENERGY PREDICTED BY IDOCK:   -7.39 KCAL/MOL
REMARK 924 INTRA-LIGAND FREE ENERGY PREDICTED BY IDOCK:   -1.99 KCAL/MOL
REMARK 927      BINDING AFFINITY PREDICTED BY RF-SCORE:    0.00 PKD
ROOT
HETATM    1  C   UNL     1      -7.314   2.594  70.739  1.00  0.00    -0.033 C  
HETATM    2  C   UNL     1      -7.942   3.785  71.489  1.00  0.00    -0.065 C  
HETATM    3  C   UNL     1      -9.460   3.753  71.270  1.00  0.00    -0.229 C  
HETATM    4  C   UNL     1      -7.629   3.633  72.985  1.00  0.00    -0.065 C  
ENDROOT
BRANCH   2   5
HETATM    5  C   UNL     1      -7.314   5.086  70.964  1.00  0.00    -0.072 C  
HETATM    6  O   UNL     1      -6.162   5.427  71.216  1.00  0.00    -0.031 OA 
BRANCH   5   7
HETATM    7  O   UNL     1      -8.197   5.865  70.278  1.00  0.00    -0.110 OA 
BRANCH   7   8
HETATM    8  C   UNL     1      -7.829   6.114  68.908  1.00  0.00    -0.101 C  
BRANCH   8   9
HETATM    9  O   UNL     1      -8.437   7.276  68.352  1.00  0.00    -0.124 OA 
HETATM   10  P   UNL     1      -9.697   6.990  67.363  1.00  0.00    -0.164 P  
HETATM   11  C   UNL     1     -10.946   6.209  68.414  1.00  0.00    -0.305 C  
HETATM   12  O   UNL     1      -9.334   6.237  66.124  1.00  0.00    -0.155 OA 
HETATM   13  O   UNL     1     -10.418   8.412  67.138  1.00  0.00    -0.294 OA 
BRANCH  13  14
HETATM   14  C   UNL     1      -9.919   9.403  66.286  1.00  0.00    -0.283 C  
BRANCH  14  15
HETATM   15  O   UNL     1     -10.468  10.686  66.671  1.00  0.00    -0.237 OA 
BRANCH  15  16
HETATM   16  C   UNL     1     -10.865  11.493  65.646  1.00  0.00    -0.252 C  
HETATM   17  O   UNL     1     -10.846  11.160  64.466  1.00  0.00    -0.326 OA 
BRANCH  16  18
HETATM   18  C   UNL     1     -11.331  12.880  66.137  1.00  0.00    -0.356 C  
HETATM   19  C   UNL     1     -10.178  13.894  65.991  1.00  0.00    -0.317 C  
HETATM   20  C   UNL     1     -11.729  12.814  67.617  1.00  0.00    -0.422 C  
HETATM   21  C   UNL     1     -12.516  13.385  65.301  1.00  0.00    -0.532 C  
ENDBRANCH  16  18
ENDBRANCH  15  16
ENDBRANCH  14  15
ENDBRANCH  13  14
BRANCH  11  22
HETATM   22  O   UNL     1     -11.170   7.156  69.461  1.00  0.00    -0.188 OA 
BRANCH  22  23
HETATM   23  C   UNL     1     -11.758   6.581  70.610  1.00  0.00    -0.374 C  
BRANCH  23  24
HETATM   24  C   UNL     1     -11.914   7.666  71.666  1.00  0.00    -0.299 C  
BRANCH  24  25
HETATM   25  N   UNL     1     -10.773   7.674  72.543  1.00  0.00    -0.268 NA 
HETATM   26  C   UNL     1      -9.565   8.229  72.245  1.00  0.00    -0.285 A  
HETATM   27  N   UNL     1      -9.256   9.011  71.197  1.00  0.00    -0.251 NA 
HETATM   28  H2  UNL     1      -6.424   6.623  73.966  1.00  0.00     0.000 HD 
HETATM   29  H1  UNL     1      -5.387   7.894  73.860  1.00  0.00     0.000 HD 
HETATM   30  C   UNL     1     -10.634   6.948  73.695  1.00  0.00    -0.340 A  
HETATM   31  N   UNL     1      -9.394   6.970  74.135  1.00  0.00    -0.228 NA 
HETATM   32  C   UNL     1      -8.708   7.748  73.218  1.00  0.00    -0.207 A  
HETATM   33  C   UNL     1      -7.356   8.095  73.089  1.00  0.00    -0.124 A  
HETATM   34  N   UNL     1      -6.371   7.641  73.953  1.00  0.00    -0.076 NA 
HETATM   35  N   UNL     1      -6.994   8.912  72.070  1.00  0.00    -0.291 NA 
HETATM   36  C   UNL     1      -7.945   9.317  71.199  1.00  0.00     0.011 A  
ENDBRANCH  24  25
ENDBRANCH  23  24
ENDBRANCH  22  23
ENDBRANCH  11  22
ENDBRANCH   8   9
ENDBRANCH   7   8
ENDBRANCH   5   7
ENDBRANCH   2   5
TORSDOF 12
ENDMDL
MODEL      159
REMARK 921   NORMALIZED FREE ENERGY PREDICTED BY IDOCK:   -4.57 KCAL/MOL
REMARK 922        TOTAL FREE ENERGY PREDICTED BY IDOCK:   -9.38 KCAL/MOL
REMARK 923 INTER-LIGAND FREE ENERGY PREDICTED BY IDOCK:   -7.73 KCAL/MOL
REMARK 924 INTRA-LIGAND FREE ENERGY PREDICTED BY IDOCK:   -1.65 KCAL/MOL
REMARK 927      BINDING AFFINITY PREDICTED BY RF-SCORE:    0.00 PKD
ROOT
HETATM    1  C   UNL     1     -13.472   7.420  71.541  1.00  0.00    -0.445 C  
HETATM    2  C   UNL     1     -11.969   7.154  71.755  1.00  0.00    -0.348 C  
HETATM    3  C   UNL     1     -11.396   8.275  72.630  1.00  0.00    -0.421 C  
HETATM    4  C   UNL     1     -11.815   5.804  72.472  1.00  0.00    -0.222 C  
ENDROOT
BRANCH   2   5
HETATM    5  C   UNL     1     -11.279   7.086  70.384  1.00  0.00    -0.299 C  
HETATM    6  O   UNL     1     -11.618   6.309  69.497  1.00  0.00    -0.423 OA 
BRANCH   5   7
HETATM    7  O   UNL     1     -10.192   7.904  70.293  1.00  0.00    -0.195 OA 
BRANCH   7   8
HETATM    8  C   UNL     1      -9.742   8.145  68.946  1.00  0.00    -0.156 C  
BRANCH   8   9
HETATM    9  O   UNL     1      -9.912   9.493  68.517  1.00  0.00    -0.158 OA 
HETATM   10  P   UNL     1      -8.532  10.333  68.317  1.00  0.00    -0.129 P  
HETATM   11  C   UNL     1      -7.655   9.476  66.987  1.00  0.00    -0.091 C  
HETATM   12  O   UNL     1      -7.756  10.530  69.579  1.00  0.00    -0.146 OA 
HETATM   13  O   UNL     1      -8.938  11.673  67.522  1.00  0.00    -0.158 OA 
BRANCH  13  14
HETATM   14  C   UNL     1      -9.566  12.766  68.126  1.00  0.00    -0.223 C  
BRANCH  14  15
HETATM   15  O   UNL     1     -10.412  13.429  67.156  1.00  0.00    -0.247 OA 
BRANCH  15  16
HETATM   16  C   UNL     1     -11.215  12.614  66.414  1.00  0.00    -0.305 C  
HETATM   17  O   UNL     1     -11.874  11.692  66.882  1.00  0.00    -0.577 OA 
BRANCH  16  18
HETATM   18  C   UNL     1     -11.194  12.976  64.913  1.00  0.00    -0.329 C  
HETATM   19  C   UNL     1     -10.117  12.138  64.195  1.00  0.00    -0.335 C  
HETATM   20  C   UNL     1     -10.851  14.460  64.728  1.00  0.00    -0.415 C  
HETATM   21  C   UNL     1     -12.549  12.670  64.258  1.00  0.00    -0.453 C  
ENDBRANCH  16  18
ENDBRANCH  15  16
ENDBRANCH  14  15
ENDBRANCH  13  14
BRANCH  11  22
HETATM   22  O   UNL     1      -8.570   9.497  65.888  1.00  0.00    -0.125 OA 
BRANCH  22  23
HETATM   23  C   UNL     1      -7.959   9.178  64.655  1.00  0.00    -0.125 C  
BRANCH  23  24
HETATM   24  C   UNL     1      -7.129   7.916  64.840  1.00  0.00    -0.067 C  
BRANCH  24  25
HETATM   25  N   UNL     1      -7.869   6.764  64.395  1.00  0.00    -0.113 NA 
HETATM   26  C   UNL     1      -8.489   5.872  65.218  1.00  0.00    -0.144 A  
HETATM   27  N   UNL     1      -8.689   5.977  66.542  1.00  0.00    -0.124 NA 
HETATM   28  H2  UNL     1      -8.835   2.199  63.878  1.00  0.00     0.000 HD 
HETATM   29  H1  UNL     1     -10.099   1.700  64.803  1.00  0.00     0.000 HD 
HETATM   30  C   UNL     1      -7.884   6.253  63.126  1.00  0.00    -0.103 A  
HETATM   31  N   UNL     1      -8.441   5.062  63.090  1.00  0.00    -0.118 NA 
HETATM   32  C   UNL     1      -8.801   4.801  64.401  1.00  0.00    -0.142 A  
HETATM   33  C   UNL     1      -9.372   3.683  65.026  1.00  0.00    -0.156 A  
HETATM   34  N   UNL     1      -9.684   2.513  64.349  1.00  0.00    -0.128 NA 
HETATM   35  N   UNL     1      -9.628   3.747  66.355  1.00  0.00    -0.186 NA 
HETATM   36  C   UNL     1      -9.281   4.868  67.025  1.00  0.00    -0.123 A  
ENDBRANCH  24  25
ENDBRANCH  23  24
ENDBRANCH  22  23
ENDBRANCH  11  22
ENDBRANCH   8   9
ENDBRANCH   7   8
ENDBRANCH   5   7
ENDBRANCH   2   5
TORSDOF 12
ENDMDL
MODEL      160
REMARK 921   NORMALIZED FREE ENERGY PREDICTED BY IDOCK:   -4.57 KCAL/MOL
REMARK 922        TOTAL FREE ENERGY PREDICTED BY IDOCK:   -9.37 KCAL/MOL
REMARK 923 INTER-LIGAND FREE ENERGY PREDICTED BY IDOCK:   -7.89 KCAL/MOL
REMARK 924 INTRA-LIGAND FREE ENERGY PREDICTED BY IDOCK:   -1.48 KCAL/MOL
REMARK 927      BINDING AFFINITY PREDICTED BY RF-SCORE:    0.00 PKD
ROOT
HETATM    1  C   UNL     1     -11.840  12.396  68.974  1.00  0.00    -0.349 C  
HETATM    2  C   UNL     1     -11.389  13.368  67.866  1.00  0.00    -0.322 C  
HETATM    3  C   UNL     1     -11.982  14.751  68.160  1.00  0.00    -0.265 C  
HETATM    4  C   UNL     1      -9.854  13.444  67.885  1.00  0.00    -0.237 C  
ENDROOT
BRANCH   2   5
HETATM    5  C   UNL     1     -11.857  12.820  66.508  1.00  0.00    -0.405 C  
HETATM    6  O   UNL     1     -12.458  13.497  65.679  1.00  0.00    -0.454 OA 
BRANCH   5   7
HETATM    7  O   UNL     1     -11.624  11.485  66.363  1.00  0.00    -0.412 OA 
BRANCH   7   8
HETATM    8  C   UNL     1     -10.707  11.154  65.304  1.00  0.00    -0.203 C  
BRANCH   8   9
HETATM    9  O   UNL     1     -10.159   9.843  65.408  1.00  0.00    -0.313 OA 
HETATM   10  P   UNL     1      -8.552   9.745  65.166  1.00  0.00    -0.187 P  
HETATM   11  C   UNL     1      -7.820  10.717  66.505  1.00  0.00    -0.140 C  
HETATM   12  O   UNL     1      -8.125  10.125  63.785  1.00  0.00    -0.154 OA 
HETATM   13  O   UNL     1      -8.117   8.276  65.660  1.00  0.00    -0.109 OA 
BRANCH  13  14
HETATM   14  C   UNL     1      -8.343   7.114  64.917  1.00  0.00    -0.013 C  
BRANCH  14  15
HETATM   15  O   UNL     1      -8.121   5.956  65.757  1.00  0.00    -0.110 OA 
BRANCH  15  16
HETATM   16  C   UNL     1      -8.514   6.083  67.057  1.00  0.00    -0.108 C  
HETATM   17  O   UNL     1      -7.819   6.579  67.936  1.00  0.00    -0.105 OA 
BRANCH  16  18
HETATM   18  C   UNL     1      -9.931   5.520  67.300  1.00  0.00    -0.190 C  
HETATM   19  C   UNL     1     -10.256   4.460  66.227  1.00  0.00    -0.211 C  
HETATM   20  C   UNL     1     -10.973   6.640  67.201  1.00  0.00    -0.478 C  
HETATM   21  C   UNL     1     -10.021   4.845  68.676  1.00  0.00    -0.195 C  
ENDBRANCH  16  18
ENDBRANCH  15  16
ENDBRANCH  14  15
ENDBRANCH  13  14
BRANCH  11  22
HETATM   22  O   UNL     1      -8.316  10.106  67.699  1.00  0.00    -0.114 OA 
BRANCH  22  23
HETATM   23  C   UNL     1      -7.294   9.778  68.617  1.00  0.00    -0.074 C  
BRANCH  23  24
HETATM   24  C   UNL     1      -7.689  10.310  69.988  1.00  0.00    -0.074 C  
BRANCH  24  25
HETATM   25  N   UNL     1      -8.099   9.226  70.842  1.00  0.00    -0.265 NA 
HETATM   26  C   UNL     1      -9.372   9.017  71.278  1.00  0.00    -0.254 A  
HETATM   27  N   UNL     1     -10.492   9.638  70.872  1.00  0.00    -0.306 NA 
HETATM   28  H2  UNL     1      -9.767   7.205  74.737  1.00  0.00     0.000 HD 
HETATM   29  H1  UNL     1     -11.295   6.626  74.558  1.00  0.00     0.000 HD 
HETATM   30  C   UNL     1      -7.270   8.382  71.530  1.00  0.00    -0.088 A  
HETATM   31  N   UNL     1      -7.932   7.668  72.416  1.00  0.00    -0.101 NA 
HETATM   32  C   UNL     1      -9.249   8.078  72.285  1.00  0.00    -0.182 A  
HETATM   33  C   UNL     1     -10.420   7.747  72.981  1.00  0.00    -0.369 A  
HETATM   34  N   UNL     1     -10.443   6.867  74.052  1.00  0.00    -0.341 NA 
HETATM   35  N   UNL     1     -11.586   8.316  72.589  1.00  0.00    -0.392 NA 
HETATM   36  C   UNL     1     -11.558   9.211  71.576  1.00  0.00    -0.368 A  
ENDBRANCH  24  25
ENDBRANCH  23  24
ENDBRANCH  22  23
ENDBRANCH  11  22
ENDBRANCH   8   9
ENDBRANCH   7   8
ENDBRANCH   5   7
ENDBRANCH   2   5
TORSDOF 12
ENDMDL
MODEL      161
REMARK 921   NORMALIZED FREE ENERGY PREDICTED BY IDOCK:   -4.57 KCAL/MOL
REMARK 922        TOTAL FREE ENERGY PREDICTED BY IDOCK:   -9.37 KCAL/MOL
REMARK 923 INTER-LIGAND FREE ENERGY PREDICTED BY IDOCK:   -8.26 KCAL/MOL
REMARK 924 INTRA-LIGAND FREE ENERGY PREDICTED BY IDOCK:   -1.11 KCAL/MOL
REMARK 927      BINDING AFFINITY PREDICTED BY RF-SCORE:    0.00 PKD
ROOT
HETATM    1  C   UNL     1     -11.797   7.428  70.529  1.00  0.00    -0.187 C  
HETATM    2  C   UNL     1     -11.324   8.657  71.331  1.00  0.00    -0.350 C  
HETATM    3  C   UNL     1     -12.558   9.405  71.849  1.00  0.00    -0.481 C  
HETATM    4  C   UNL     1     -10.478   8.164  72.515  1.00  0.00    -0.409 C  
ENDROOT
BRANCH   2   5
HETATM    5  C   UNL     1     -10.460   9.540  70.417  1.00  0.00    -0.278 C  
HETATM    6  O   UNL     1      -9.281   9.303  70.171  1.00  0.00    -0.188 OA 
BRANCH   5   7
HETATM    7  O   UNL     1     -11.106  10.662  69.993  1.00  0.00    -0.281 OA 
BRANCH   7   8
HETATM    8  C   UNL     1     -10.505  11.297  68.848  1.00  0.00    -0.206 C  
BRANCH   8   9
HETATM    9  O   UNL     1     -11.075  12.563  68.529  1.00  0.00    -0.232 OA 
HETATM   10  P   UNL     1     -10.046  13.635  67.864  1.00  0.00    -0.256 P  
HETATM   11  C   UNL     1      -9.545  12.887  66.295  1.00  0.00    -0.243 C  
HETATM   12  O   UNL     1      -8.930  14.043  68.770  1.00  0.00    -0.141 OA 
HETATM   13  O   UNL     1     -10.959  14.829  67.288  1.00  0.00    -0.301 OA 
BRANCH  13  14
HETATM   14  C   UNL     1     -11.535  15.816  68.092  1.00  0.00    -0.302 C  
BRANCH  14  15
HETATM   15  O   UNL     1     -10.537  16.813  68.417  1.00  0.00    -0.316 OA 
BRANCH  15  16
HETATM   16  C   UNL     1     -10.180  17.649  67.401  1.00  0.00    -0.345 C  
HETATM   17  O   UNL     1     -10.629  17.573  66.263  1.00  0.00    -0.300 OA 
BRANCH  16  18
HETATM   18  C   UNL     1      -9.137  18.697  67.843  1.00  0.00    -0.314 C  
HETATM   19  C   UNL     1      -8.046  18.014  68.693  1.00  0.00    -0.293 C  
HETATM   20  C   UNL     1      -9.802  19.784  68.697  1.00  0.00    -0.491 C  
HETATM   21  C   UNL     1      -8.457  19.338  66.624  1.00  0.00    -0.329 C  
ENDBRANCH  16  18
ENDBRANCH  15  16
ENDBRANCH  14  15
ENDBRANCH  13  14
BRANCH  11  22
HETATM   22  O   UNL     1     -10.773  12.674  65.595  1.00  0.00    -0.261 OA 
BRANCH  22  23
HETATM   23  C   UNL     1     -10.711  11.595  64.686  1.00  0.00    -0.315 C  
BRANCH  23  24
HETATM   24  C   UNL     1     -10.228  10.361  65.435  1.00  0.00    -0.259 C  
BRANCH  24  25
HETATM   25  N   UNL     1      -9.152   9.731  64.715  1.00  0.00    -0.226 NA 
HETATM   26  C   UNL     1      -8.525   8.585  65.099  1.00  0.00    -0.175 A  
HETATM   27  N   UNL     1      -8.885   7.740  66.079  1.00  0.00    -0.164 NA 
HETATM   28  H2  UNL     1      -4.782   8.178  63.990  1.00  0.00     0.000 HD 
HETATM   29  H1  UNL     1      -4.658   6.541  64.078  1.00  0.00     0.000 HD 
HETATM   30  C   UNL     1      -8.442  10.280  63.682  1.00  0.00    -0.183 A  
HETATM   31  N   UNL     1      -7.367   9.572  63.405  1.00  0.00    -0.103 NA 
HETATM   32  C   UNL     1      -7.395   8.521  64.305  1.00  0.00    -0.102 A  
HETATM   33  C   UNL     1      -6.506   7.468  64.563  1.00  0.00    -0.044 A  
HETATM   34  N   UNL     1      -5.304   7.307  63.891  1.00  0.00    -0.029 NA 
HETATM   35  N   UNL     1      -6.836   6.565  65.519  1.00  0.00    -0.047 NA 
HETATM   36  C   UNL     1      -7.984   6.747  66.209  1.00  0.00    -0.108 A  
ENDBRANCH  24  25
ENDBRANCH  23  24
ENDBRANCH  22  23
ENDBRANCH  11  22
ENDBRANCH   8   9
ENDBRANCH   7   8
ENDBRANCH   5   7
ENDBRANCH   2   5
TORSDOF 12
ENDMDL
MODEL      162
REMARK 921   NORMALIZED FREE ENERGY PREDICTED BY IDOCK:   -4.54 KCAL/MOL
REMARK 922        TOTAL FREE ENERGY PREDICTED BY IDOCK:   -9.33 KCAL/MOL
REMARK 923 INTER-LIGAND FREE ENERGY PREDICTED BY IDOCK:   -8.07 KCAL/MOL
REMARK 924 INTRA-LIGAND FREE ENERGY PREDICTED BY IDOCK:   -1.26 KCAL/MOL
REMARK 927      BINDING AFFINITY PREDICTED BY RF-SCORE:    0.00 PKD
ROOT
HETATM    1  C   UNL     1      -9.813  13.716  66.573  1.00  0.00    -0.295 C  
HETATM    2  C   UNL     1     -11.309  13.877  66.239  1.00  0.00    -0.329 C  
HETATM    3  C   UNL     1     -12.076  14.116  67.545  1.00  0.00    -0.363 C  
HETATM    4  C   UNL     1     -11.469  15.092  65.312  1.00  0.00    -0.308 C  
ENDROOT
BRANCH   2   5
HETATM    5  C   UNL     1     -11.793  12.612  65.513  1.00  0.00    -0.431 C  
HETATM    6  O   UNL     1     -12.906  12.511  65.007  1.00  0.00    -0.742 OA 
BRANCH   5   7
HETATM    7  O   UNL     1     -10.899  11.585  65.578  1.00  0.00    -0.282 OA 
BRANCH   7   8
HETATM    8  C   UNL     1     -10.292  11.246  64.317  1.00  0.00    -0.340 C  
BRANCH   8   9
HETATM    9  O   UNL     1      -9.652   9.973  64.311  1.00  0.00    -0.297 OA 
HETATM   10  P   UNL     1      -8.031  10.016  64.174  1.00  0.00    -0.139 P  
HETATM   11  C   UNL     1      -7.460  10.872  65.662  1.00  0.00     0.042 C  
HETATM   12  O   UNL     1      -7.550  10.584  62.877  1.00  0.00    -0.139 OA 
HETATM   13  O   UNL     1      -7.515   8.533  64.529  1.00  0.00    -0.095 OA 
BRANCH  13  14
HETATM   14  C   UNL     1      -7.605   7.453  63.645  1.00  0.00    -0.121 C  
BRANCH  14  15
HETATM   15  O   UNL     1      -7.523   6.215  64.390  1.00  0.00    -0.068 OA 
BRANCH  15  16
HETATM   16  C   UNL     1      -8.664   5.830  65.029  1.00  0.00    -0.031 C  
HETATM   17  O   UNL     1      -9.240   6.510  65.870  1.00  0.00    -0.108 OA 
BRANCH  16  18
HETATM   18  C   UNL     1      -9.146   4.434  64.579  1.00  0.00    -0.152 C  
HETATM   19  C   UNL     1      -8.167   3.359  65.096  1.00  0.00    -0.094 C  
HETATM   20  C   UNL     1      -9.186   4.351  63.048  1.00  0.00    -0.130 C  
HETATM   21  C   UNL     1     -10.536   4.125  65.154  1.00  0.00    -0.174 C  
ENDBRANCH  16  18
ENDBRANCH  15  16
ENDBRANCH  14  15
ENDBRANCH  13  14
BRANCH  11  22
HETATM   22  O   UNL     1      -7.980  10.092  66.741  1.00  0.00    -0.113 OA 
BRANCH  22  23
HETATM   23  C   UNL     1      -8.258  10.860  67.894  1.00  0.00    -0.114 C  
BRANCH  23  24
HETATM   24  C   UNL     1      -8.483   9.910  69.062  1.00  0.00    -0.136 C  
BRANCH  24  25
HETATM   25  N   UNL     1      -9.781  10.134  69.642  1.00  0.00    -0.234 NA 
HETATM   26  C   UNL     1     -10.278   9.467  70.721  1.00  0.00    -0.293 A  
HETATM   27  N   UNL     1      -9.621   8.635  71.545  1.00  0.00    -0.230 NA 
HETATM   28  H2  UNL     1     -14.179   9.078  70.900  1.00  0.00     0.000 HD 
HETATM   29  H1  UNL     1     -14.346   8.837  72.517  1.00  0.00     0.000 HD 
HETATM   30  C   UNL     1     -10.798  10.865  69.089  1.00  0.00    -0.235 A  
HETATM   31  N   UNL     1     -11.933  10.675  69.727  1.00  0.00    -0.299 NA 
HETATM   32  C   UNL     1     -11.625   9.779  70.736  1.00  0.00    -0.339 A  
HETATM   33  C   UNL     1     -12.405   9.137  71.709  1.00  0.00    -0.372 A  
HETATM   34  N   UNL     1     -13.778   9.303  71.810  1.00  0.00    -0.390 NA 
HETATM   35  N   UNL     1     -11.789   8.313  72.590  1.00  0.00    -0.381 NA 
HETATM   36  C   UNL     1     -10.458   8.112  72.463  1.00  0.00    -0.339 A  
ENDBRANCH  24  25
ENDBRANCH  23  24
ENDBRANCH  22  23
ENDBRANCH  11  22
ENDBRANCH   8   9
ENDBRANCH   7   8
ENDBRANCH   5   7
ENDBRANCH   2   5
TORSDOF 12
ENDMDL
MODEL      163
REMARK 921   NORMALIZED FREE ENERGY PREDICTED BY IDOCK:   -4.54 KCAL/MOL
REMARK 922        TOTAL FREE ENERGY PREDICTED BY IDOCK:   -9.32 KCAL/MOL
REMARK 923 INTER-LIGAND FREE ENERGY PREDICTED BY IDOCK:   -8.46 KCAL/MOL
REMARK 924 INTRA-LIGAND FREE ENERGY PREDICTED BY IDOCK:   -0.86 KCAL/MOL
REMARK 927      BINDING AFFINITY PREDICTED BY RF-SCORE:    0.00 PKD
ROOT
HETATM    1  C   UNL     1     -12.539  13.355  70.852  1.00  0.00    -0.406 C  
HETATM    2  C   UNL     1     -12.769  14.824  71.259  1.00  0.00    -0.407 C  
HETATM    3  C   UNL     1     -14.274  15.113  71.210  1.00  0.00    -0.527 C  
HETATM    4  C   UNL     1     -12.248  15.016  72.691  1.00  0.00    -0.439 C  
ENDROOT
BRANCH   2   5
HETATM    5  C   UNL     1     -11.979  15.731  70.302  1.00  0.00    -0.361 C  
HETATM    6  O   UNL     1     -12.451  16.190  69.266  1.00  0.00     0.016 OA 
BRANCH   5   7
HETATM    7  O   UNL     1     -10.677  15.890  70.671  1.00  0.00    -0.269 OA 
BRANCH   7   8
HETATM    8  C   UNL     1      -9.736  15.167  69.854  1.00  0.00    -0.007 C  
BRANCH   8   9
HETATM    9  O   UNL     1     -10.071  15.153  68.469  1.00  0.00    -0.218 OA 
HETATM   10  P   UNL     1      -8.812  15.332  67.453  1.00  0.00    -0.201 P  
HETATM   11  C   UNL     1      -7.769  13.883  67.744  1.00  0.00    -0.172 C  
HETATM   12  O   UNL     1      -8.126  16.655  67.568  1.00  0.00    -0.162 OA 
HETATM   13  O   UNL     1      -9.364  14.949  65.990  1.00  0.00    -0.294 OA 
BRANCH  13  14
HETATM   14  C   UNL     1     -10.162  15.800  65.219  1.00  0.00    -0.289 C  
BRANCH  14  15
HETATM   15  O   UNL     1     -11.106  15.012  64.456  1.00  0.00    -0.328 OA 
BRANCH  15  16
HETATM   16  C   UNL     1     -10.848  13.675  64.392  1.00  0.00    -0.361 C  
HETATM   17  O   UNL     1      -9.844  13.196  63.878  1.00  0.00    -0.157 OA 
BRANCH  16  18
HETATM   18  C   UNL     1     -11.970  12.829  65.032  1.00  0.00    -0.456 C  
HETATM   19  C   UNL     1     -12.584  13.600  66.219  1.00  0.00    -0.346 C  
HETATM   20  C   UNL     1     -11.403  11.505  65.561  1.00  0.00    -0.151 C  
HETATM   21  C   UNL     1     -13.088  12.548  64.018  1.00  0.00    -0.062 C  
ENDBRANCH  16  18
ENDBRANCH  15  16
ENDBRANCH  14  15
ENDBRANCH  13  14
BRANCH  11  22
HETATM   22  O   UNL     1      -8.630  12.770  67.491  1.00  0.00    -0.165 OA 
BRANCH  22  23
HETATM   23  C   UNL     1      -8.559  11.777  68.494  1.00  0.00    -0.123 C  
BRANCH  23  24
HETATM   24  C   UNL     1      -9.899  11.057  68.554  1.00  0.00    -0.192 C  
BRANCH  24  25
HETATM   25  N   UNL     1      -9.727   9.730  69.085  1.00  0.00    -0.175 NA 
HETATM   26  C   UNL     1     -10.149   8.587  68.477  1.00  0.00    -0.194 A  
HETATM   27  N   UNL     1     -10.623   8.449  67.227  1.00  0.00    -0.298 NA 
HETATM   28  H2  UNL     1     -11.061   5.581  70.829  1.00  0.00     0.000 HD 
HETATM   29  H1  UNL     1     -10.884   4.346  69.758  1.00  0.00     0.000 HD 
HETATM   30  C   UNL     1      -9.332   9.414  70.357  1.00  0.00    -0.268 A  
HETATM   31  N   UNL     1      -9.514   8.137  70.617  1.00  0.00    -0.161 NA 
HETATM   32  C   UNL     1     -10.052   7.614  69.453  1.00  0.00    -0.196 A  
HETATM   33  C   UNL     1     -10.521   6.337  69.114  1.00  0.00    -0.239 A  
HETATM   34  N   UNL     1     -10.543   5.275  70.005  1.00  0.00    -0.286 NA 
HETATM   35  N   UNL     1     -10.978   6.131  67.854  1.00  0.00    -0.328 NA 
HETATM   36  C   UNL     1     -11.002   7.177  66.998  1.00  0.00    -0.234 A  
ENDBRANCH  24  25
ENDBRANCH  23  24
ENDBRANCH  22  23
ENDBRANCH  11  22
ENDBRANCH   8   9
ENDBRANCH   7   8
ENDBRANCH   5   7
ENDBRANCH   2   5
TORSDOF 12
ENDMDL
MODEL      164
REMARK 921   NORMALIZED FREE ENERGY PREDICTED BY IDOCK:   -4.54 KCAL/MOL
REMARK 922        TOTAL FREE ENERGY PREDICTED BY IDOCK:   -9.32 KCAL/MOL
REMARK 923 INTER-LIGAND FREE ENERGY PREDICTED BY IDOCK:   -8.80 KCAL/MOL
REMARK 924 INTRA-LIGAND FREE ENERGY PREDICTED BY IDOCK:   -0.52 KCAL/MOL
REMARK 927      BINDING AFFINITY PREDICTED BY RF-SCORE:    0.00 PKD
ROOT
HETATM    1  C   UNL     1      -5.211   8.154  63.404  1.00  0.00    -0.050 C  
HETATM    2  C   UNL     1      -6.537   8.797  63.855  1.00  0.00    -0.087 C  
HETATM    3  C   UNL     1      -6.223   9.894  64.879  1.00  0.00    -0.105 C  
HETATM    4  C   UNL     1      -7.218   9.413  62.623  1.00  0.00    -0.100 C  
ENDROOT
BRANCH   2   5
HETATM    5  C   UNL     1      -7.441   7.703  64.445  1.00  0.00    -0.099 C  
HETATM    6  O   UNL     1      -7.030   6.594  64.772  1.00  0.00    -0.051 OA 
BRANCH   5   7
HETATM    7  O   UNL     1      -8.757   8.056  64.472  1.00  0.00     0.064 OA 
BRANCH   7   8
HETATM    8  C   UNL     1      -9.119   8.913  65.571  1.00  0.00    -0.190 C  
BRANCH   8   9
HETATM    9  O   UNL     1     -10.044   8.322  66.479  1.00  0.00    -0.273 OA 
HETATM   10  P   UNL     1      -9.464   8.048  67.975  1.00  0.00    -0.151 P  
HETATM   11  C   UNL     1      -9.075   9.688  68.632  1.00  0.00    -0.132 C  
HETATM   12  O   UNL     1      -8.348   7.054  68.016  1.00  0.00    -0.118 OA 
HETATM   13  O   UNL     1     -10.742   7.711  68.893  1.00  0.00    -0.188 OA 
BRANCH  13  14
HETATM   14  C   UNL     1     -11.401   6.477  68.875  1.00  0.00    -0.184 C  
BRANCH  14  15
HETATM   15  O   UNL     1     -11.188   5.802  70.138  1.00  0.00    -0.319 OA 
BRANCH  15  16
HETATM   16  C   UNL     1     -11.562   6.494  71.251  1.00  0.00    -0.327 C  
HETATM   17  O   UNL     1     -12.547   7.221  71.307  1.00  0.00    -0.355 OA 
BRANCH  16  18
HETATM   18  C   UNL     1     -10.596   6.267  72.435  1.00  0.00    -0.241 C  
HETATM   19  C   UNL     1     -10.491   7.560  73.270  1.00  0.00    -0.426 C  
HETATM   20  C   UNL     1      -9.196   5.912  71.919  1.00  0.00    -0.155 C  
HETATM   21  C   UNL     1     -11.112   5.149  73.353  1.00  0.00    -0.385 C  
ENDBRANCH  16  18
ENDBRANCH  15  16
ENDBRANCH  14  15
ENDBRANCH  13  14
BRANCH  11  22
HETATM   22  O   UNL     1     -10.311  10.402  68.557  1.00  0.00    -0.161 OA 
BRANCH  22  23
HETATM   23  C   UNL     1     -10.217  11.592  67.803  1.00  0.00    -0.186 C  
BRANCH  23  24
HETATM   24  C   UNL     1     -10.958  12.694  68.547  1.00  0.00    -0.261 C  
BRANCH  24  25
HETATM   25  N   UNL     1     -11.231  13.796  67.662  1.00  0.00    -0.283 NA 
HETATM   26  C   UNL     1     -11.780  13.680  66.421  1.00  0.00    -0.373 A  
HETATM   27  N   UNL     1     -12.329  12.587  65.864  1.00  0.00    -0.603 NA 
HETATM   28  H2  UNL     1     -10.794  16.431  63.801  1.00  0.00     0.000 HD 
HETATM   29  H1  UNL     1     -12.073  16.290  62.778  1.00  0.00     0.000 HD 
HETATM   30  C   UNL     1     -10.787  15.082  67.812  1.00  0.00    -0.284 A  
HETATM   31  N   UNL     1     -10.983  15.792  66.721  1.00  0.00    -0.251 NA 
HETATM   32  C   UNL     1     -11.581  14.915  65.832  1.00  0.00    -0.228 A  
HETATM   33  C   UNL     1     -11.975  15.041  64.492  1.00  0.00    -0.371 A  
HETATM   34  N   UNL     1     -11.785  16.198  63.752  1.00  0.00    -0.818 NA 
HETATM   35  N   UNL     1     -12.568  13.981  63.891  1.00  0.00    -0.746 NA 
HETATM   36  C   UNL     1     -12.710  12.836  64.597  1.00  0.00    -0.362 A  
ENDBRANCH  24  25
ENDBRANCH  23  24
ENDBRANCH  22  23
ENDBRANCH  11  22
ENDBRANCH   8   9
ENDBRANCH   7   8
ENDBRANCH   5   7
ENDBRANCH   2   5
TORSDOF 12
ENDMDL
MODEL      165
REMARK 921   NORMALIZED FREE ENERGY PREDICTED BY IDOCK:   -4.53 KCAL/MOL
REMARK 922        TOTAL FREE ENERGY PREDICTED BY IDOCK:   -9.31 KCAL/MOL
REMARK 923 INTER-LIGAND FREE ENERGY PREDICTED BY IDOCK:   -8.28 KCAL/MOL
REMARK 924 INTRA-LIGAND FREE ENERGY PREDICTED BY IDOCK:   -1.03 KCAL/MOL
REMARK 927      BINDING AFFINITY PREDICTED BY RF-SCORE:    0.00 PKD
ROOT
HETATM    1  C   UNL     1      -6.507   9.919  64.972  1.00  0.00    -0.106 C  
HETATM    2  C   UNL     1      -7.598   8.919  64.543  1.00  0.00    -0.109 C  
HETATM    3  C   UNL     1      -7.208   8.326  63.184  1.00  0.00    -0.094 C  
HETATM    4  C   UNL     1      -7.673   7.804  65.597  1.00  0.00    -0.101 C  
ENDROOT
BRANCH   2   5
HETATM    5  C   UNL     1      -8.946   9.655  64.482  1.00  0.00    -0.235 C  
HETATM    6  O   UNL     1      -9.424  10.099  63.442  1.00  0.00    -0.290 OA 
BRANCH   5   7
HETATM    7  O   UNL     1      -9.503   9.851  65.710  1.00  0.00    -0.185 OA 
BRANCH   7   8
HETATM    8  C   UNL     1     -10.263  11.068  65.830  1.00  0.00    -0.254 C  
BRANCH   8   9
HETATM    9  O   UNL     1      -9.630  12.063  66.630  1.00  0.00    -0.205 OA 
HETATM   10  P   UNL     1     -10.498  13.420  66.860  1.00  0.00    -0.277 P  
HETATM   11  C   UNL     1     -11.965  12.884  67.773  1.00  0.00    -0.283 C  
HETATM   12  O   UNL     1     -10.763  14.188  65.605  1.00  0.00    -0.294 OA 
HETATM   13  O   UNL     1      -9.756  14.228  68.038  1.00  0.00    -0.212 OA 
BRANCH  13  14
HETATM   14  C   UNL     1      -8.581  14.962  67.848  1.00  0.00    -0.160 C  
BRANCH  14  15
HETATM   15  O   UNL     1      -8.503  16.010  68.844  1.00  0.00    -0.204 OA 
BRANCH  15  16
HETATM   16  C   UNL     1      -8.474  17.285  68.362  1.00  0.00    -0.254 C  
HETATM   17  O   UNL     1      -9.469  17.901  67.996  1.00  0.00    -0.265 OA 
BRANCH  16  18
HETATM   18  C   UNL     1      -7.044  17.864  68.318  1.00  0.00    -0.232 C  
HETATM   19  C   UNL     1      -6.484  17.748  66.885  1.00  0.00    -0.203 C  
HETATM   20  C   UNL     1      -6.122  17.078  69.259  1.00  0.00    -0.213 C  
HETATM   21  C   UNL     1      -7.043  19.349  68.709  1.00  0.00    -0.382 C  
ENDBRANCH  16  18
ENDBRANCH  15  16
ENDBRANCH  14  15
ENDBRANCH  13  14
BRANCH  11  22
HETATM   22  O   UNL     1     -11.443  12.263  68.950  1.00  0.00    -0.257 OA 
BRANCH  22  23
HETATM   23  C   UNL     1     -12.187  11.132  69.354  1.00  0.00    -0.259 C  
BRANCH  23  24
HETATM   24  C   UNL     1     -12.429  11.226  70.854  1.00  0.00    -0.394 C  
BRANCH  24  25
HETATM   25  N   UNL     1     -12.488   9.909  71.432  1.00  0.00    -0.367 NA 
HETATM   26  C   UNL     1     -11.411   9.100  71.639  1.00  0.00    -0.376 A  
HETATM   27  N   UNL     1     -10.111   9.420  71.528  1.00  0.00    -0.229 NA 
HETATM   28  H2  UNL     1     -12.076   5.234  71.549  1.00  0.00     0.000 HD 
HETATM   29  H1  UNL     1     -10.780   4.723  72.423  1.00  0.00     0.000 HD 
HETATM   30  C   UNL     1     -13.620   9.172  71.650  1.00  0.00    -0.390 A  
HETATM   31  N   UNL     1     -13.335   7.922  71.947  1.00  0.00    -0.310 NA 
HETATM   32  C   UNL     1     -11.952   7.859  71.916  1.00  0.00    -0.305 A  
HETATM   33  C   UNL     1     -11.045   6.802  72.080  1.00  0.00    -0.250 A  
HETATM   34  N   UNL     1     -11.440   5.492  72.303  1.00  0.00    -0.208 NA 
HETATM   35  N   UNL     1      -9.719   7.074  72.014  1.00  0.00    -0.156 NA 
HETATM   36  C   UNL     1      -9.334   8.342  71.748  1.00  0.00    -0.226 A  
ENDBRANCH  24  25
ENDBRANCH  23  24
ENDBRANCH  22  23
ENDBRANCH  11  22
ENDBRANCH   8   9
ENDBRANCH   7   8
ENDBRANCH   5   7
ENDBRANCH   2   5
TORSDOF 12
ENDMDL
MODEL      166
REMARK 921   NORMALIZED FREE ENERGY PREDICTED BY IDOCK:   -4.52 KCAL/MOL
REMARK 922        TOTAL FREE ENERGY PREDICTED BY IDOCK:   -9.28 KCAL/MOL
REMARK 923 INTER-LIGAND FREE ENERGY PREDICTED BY IDOCK:   -8.39 KCAL/MOL
REMARK 924 INTRA-LIGAND FREE ENERGY PREDICTED BY IDOCK:   -0.90 KCAL/MOL
REMARK 927      BINDING AFFINITY PREDICTED BY RF-SCORE:    0.00 PKD
ROOT
HETATM    1  C   UNL     1      -8.763   6.941  66.381  1.00  0.00    -0.147 C  
HETATM    2  C   UNL     1      -7.595   7.499  65.544  1.00  0.00    -0.093 C  
HETATM    3  C   UNL     1      -6.987   6.351  64.730  1.00  0.00    -0.051 C  
HETATM    4  C   UNL     1      -8.150   8.573  64.596  1.00  0.00    -0.153 C  
ENDROOT
BRANCH   2   5
HETATM    5  C   UNL     1      -6.568   8.136  66.494  1.00  0.00    -0.055 C  
HETATM    6  O   UNL     1      -5.427   7.706  66.638  1.00  0.00    -0.024 OA 
BRANCH   5   7
HETATM    7  O   UNL     1      -7.084   9.161  67.228  1.00  0.00    -0.078 OA 
BRANCH   7   8
HETATM    8  C   UNL     1      -6.188   9.688  68.224  1.00  0.00    -0.055 C  
BRANCH   8   9
HETATM    9  O   UNL     1      -6.546  10.987  68.689  1.00  0.00    -0.054 OA 
HETATM   10  P   UNL     1      -6.707  12.116  67.528  1.00  0.00    -0.150 P  
HETATM   11  C   UNL     1      -8.083  11.539  66.505  1.00  0.00    -0.112 C  
HETATM   12  O   UNL     1      -5.438  12.414  66.796  1.00  0.00    -0.335 OA 
HETATM   13  O   UNL     1      -7.429  13.373  68.228  1.00  0.00    -0.109 OA 
BRANCH  13  14
HETATM   14  C   UNL     1      -6.768  14.272  69.070  1.00  0.00    -0.106 C  
BRANCH  14  15
HETATM   15  O   UNL     1      -6.811  15.596  68.487  1.00  0.00    -0.110 OA 
BRANCH  15  16
HETATM   16  C   UNL     1      -8.047  16.162  68.392  1.00  0.00    -0.171 C  
HETATM   17  O   UNL     1      -8.910  16.073  69.257  1.00  0.00    -0.248 OA 
BRANCH  16  18
HETATM   18  C   UNL     1      -8.243  16.923  67.062  1.00  0.00    -0.228 C  
HETATM   19  C   UNL     1      -6.867  17.276  66.462  1.00  0.00    -0.292 C  
HETATM   20  C   UNL     1      -9.012  18.228  67.304  1.00  0.00    -0.259 C  
HETATM   21  C   UNL     1      -8.998  16.056  66.043  1.00  0.00    -0.345 C  
ENDBRANCH  16  18
ENDBRANCH  15  16
ENDBRANCH  14  15
ENDBRANCH  13  14
BRANCH  11  22
HETATM   22  O   UNL     1      -9.176  11.414  67.419  1.00  0.00    -0.161 OA 
BRANCH  22  23
HETATM   23  C   UNL     1     -10.196  10.559  66.946  1.00  0.00    -0.229 C  
BRANCH  23  24
HETATM   24  C   UNL     1     -11.523  11.023  67.532  1.00  0.00    -0.185 C  
BRANCH  24  25
HETATM   25  N   UNL     1     -11.863  12.326  67.023  1.00  0.00    -0.574 NA 
HETATM   26  C   UNL     1     -12.110  12.610  65.714  1.00  0.00    -0.423 A  
HETATM   27  N   UNL     1     -12.265  11.743  64.700  1.00  0.00    -0.150 NA 
HETATM   28  H2  UNL     1     -11.291  16.260  64.526  1.00  0.00     0.000 HD 
HETATM   29  H1  UNL     1     -12.270  16.334  63.208  1.00  0.00     0.000 HD 
HETATM   30  C   UNL     1     -11.772  13.509  67.705  1.00  0.00    -0.363 A  
HETATM   31  N   UNL     1     -11.906  14.542  66.901  1.00  0.00    -0.395 NA 
HETATM   32  C   UNL     1     -12.091  13.991  65.645  1.00  0.00    -0.417 A  
HETATM   33  C   UNL     1     -12.228  14.557  64.370  1.00  0.00    -0.458 A  
HETATM   34  N   UNL     1     -12.171  15.922  64.136  1.00  0.00    -0.596 NA 
HETATM   35  N   UNL     1     -12.423  13.729  63.314  1.00  0.00    -0.762 NA 
HETATM   36  C   UNL     1     -12.431  12.395  63.534  1.00  0.00    -0.500 A  
ENDBRANCH  24  25
ENDBRANCH  23  24
ENDBRANCH  22  23
ENDBRANCH  11  22
ENDBRANCH   8   9
ENDBRANCH   7   8
ENDBRANCH   5   7
ENDBRANCH   2   5
TORSDOF 12
ENDMDL
MODEL      167
REMARK 921   NORMALIZED FREE ENERGY PREDICTED BY IDOCK:   -4.50 KCAL/MOL
REMARK 922        TOTAL FREE ENERGY PREDICTED BY IDOCK:   -9.25 KCAL/MOL
REMARK 923 INTER-LIGAND FREE ENERGY PREDICTED BY IDOCK:   -8.24 KCAL/MOL
REMARK 924 INTRA-LIGAND FREE ENERGY PREDICTED BY IDOCK:   -1.01 KCAL/MOL
REMARK 927      BINDING AFFINITY PREDICTED BY RF-SCORE:    0.00 PKD
ROOT
HETATM    1  C   UNL     1      -5.703   4.603  69.309  1.00  0.00    -0.017 C  
HETATM    2  C   UNL     1      -7.001   3.956  69.830  1.00  0.00    -0.042 C  
HETATM    3  C   UNL     1      -7.922   3.681  68.635  1.00  0.00    -0.069 C  
HETATM    4  C   UNL     1      -6.637   2.633  70.522  1.00  0.00    -0.032 C  
ENDROOT
BRANCH   2   5
HETATM    5  C   UNL     1      -7.652   4.904  70.849  1.00  0.00    -0.073 C  
HETATM    6  O   UNL     1      -7.605   4.723  72.063  1.00  0.00    -0.085 OA 
BRANCH   5   7
HETATM    7  O   UNL     1      -8.367   5.906  70.265  1.00  0.00    -0.118 OA 
BRANCH   7   8
HETATM    8  C   UNL     1      -8.157   7.205  70.850  1.00  0.00    -0.111 C  
BRANCH   8   9
HETATM    9  O   UNL     1      -8.026   8.251  69.892  1.00  0.00    -0.103 OA 
HETATM   10  P   UNL     1      -9.145   8.248  68.710  1.00  0.00    -0.142 P  
HETATM   11  C   UNL     1     -10.719   8.521  69.558  1.00  0.00    -0.174 C  
HETATM   12  O   UNL     1      -9.087   7.044  67.827  1.00  0.00    -0.127 OA 
HETATM   13  O   UNL     1      -9.013   9.672  67.970  1.00  0.00    -0.123 OA 
BRANCH  13  14
HETATM   14  C   UNL     1      -7.993   9.979  67.063  1.00  0.00    -0.106 C  
BRANCH  14  15
HETATM   15  O   UNL     1      -8.436  11.040  66.185  1.00  0.00    -0.165 OA 
BRANCH  15  16
HETATM   16  C   UNL     1      -9.514  10.751  65.401  1.00  0.00    -0.214 C  
HETATM   17  O   UNL     1      -9.699   9.665  64.865  1.00  0.00    -0.267 OA 
BRANCH  16  18
HETATM   18  C   UNL     1     -10.473  11.952  65.256  1.00  0.00    -0.317 C  
HETATM   19  C   UNL     1     -11.249  11.836  63.928  1.00  0.00    -0.493 C  
HETATM   20  C   UNL     1      -9.683  13.266  65.238  1.00  0.00     0.008 C  
HETATM   21  C   UNL     1     -11.496  11.976  66.402  1.00  0.00    -0.417 C  
ENDBRANCH  16  18
ENDBRANCH  15  16
ENDBRANCH  14  15
ENDBRANCH  13  14
BRANCH  11  22
HETATM   22  O   UNL     1     -10.539   9.758  70.252  1.00  0.00    -0.251 OA 
BRANCH  22  23
HETATM   23  C   UNL     1     -11.753  10.323  70.700  1.00  0.00    -0.348 C  
BRANCH  23  24
HETATM   24  C   UNL     1     -11.924  11.685  70.041  1.00  0.00    -0.351 C  
BRANCH  24  25
HETATM   25  N   UNL     1     -12.526  12.612  70.962  1.00  0.00    -0.335 NA 
HETATM   26  C   UNL     1     -12.189  13.926  71.077  1.00  0.00    -0.342 A  
HETATM   27  N   UNL     1     -11.394  14.644  70.266  1.00  0.00    -0.234 NA 
HETATM   28  H2  UNL     1     -12.700  15.567  74.606  1.00  0.00     0.000 HD 
HETATM   29  H1  UNL     1     -12.795  17.144  74.151  1.00  0.00     0.000 HD 
HETATM   30  C   UNL     1     -13.350  12.292  72.007  1.00  0.00    -0.386 A  
HETATM   31  N   UNL     1     -13.530  13.316  72.813  1.00  0.00    -0.569 NA 
HETATM   32  C   UNL     1     -12.784  14.340  72.254  1.00  0.00    -0.298 A  
HETATM   33  C   UNL     1     -12.514  15.653  72.666  1.00  0.00    -0.428 A  
HETATM   34  N   UNL     1     -12.991  16.189  73.852  1.00  0.00    -0.686 NA 
HETATM   35  N   UNL     1     -11.746  16.434  71.867  1.00  0.00    -0.454 NA 
HETATM   36  C   UNL     1     -11.240  15.897  70.734  1.00  0.00    -0.370 A  
ENDBRANCH  24  25
ENDBRANCH  23  24
ENDBRANCH  22  23
ENDBRANCH  11  22
ENDBRANCH   8   9
ENDBRANCH   7   8
ENDBRANCH   5   7
ENDBRANCH   2   5
TORSDOF 12
ENDMDL
MODEL      168
REMARK 921   NORMALIZED FREE ENERGY PREDICTED BY IDOCK:   -4.49 KCAL/MOL
REMARK 922        TOTAL FREE ENERGY PREDICTED BY IDOCK:   -9.23 KCAL/MOL
REMARK 923 INTER-LIGAND FREE ENERGY PREDICTED BY IDOCK:   -8.44 KCAL/MOL
REMARK 924 INTRA-LIGAND FREE ENERGY PREDICTED BY IDOCK:   -0.79 KCAL/MOL
REMARK 927      BINDING AFFINITY PREDICTED BY RF-SCORE:    0.00 PKD
ROOT
HETATM    1  C   UNL     1     -12.350  10.968  69.704  1.00  0.00    -0.303 C  
HETATM    2  C   UNL     1     -12.704  10.313  71.053  1.00  0.00    -0.491 C  
HETATM    3  C   UNL     1     -13.019  11.420  72.065  1.00  0.00    -0.378 C  
HETATM    4  C   UNL     1     -13.942   9.426  70.849  1.00  0.00     0.161 C  
ENDROOT
BRANCH   2   5
HETATM    5  C   UNL     1     -11.521   9.442  71.505  1.00  0.00    -0.397 C  
HETATM    6  O   UNL     1     -11.573   8.682  72.467  1.00  0.00    -0.356 OA 
BRANCH   5   7
HETATM    7  O   UNL     1     -10.383   9.675  70.791  1.00  0.00    -0.291 OA 
BRANCH   7   8
HETATM    8  C   UNL     1      -9.180   9.190  71.416  1.00  0.00    -0.138 C  
BRANCH   8   9
HETATM    9  O   UNL     1      -8.326   8.469  70.533  1.00  0.00    -0.118 OA 
HETATM   10  P   UNL     1      -9.045   7.896  69.190  1.00  0.00    -0.143 P  
HETATM   11  C   UNL     1      -9.589   9.368  68.290  1.00  0.00    -0.142 C  
HETATM   12  O   UNL     1     -10.104   6.876  69.461  1.00  0.00    -0.168 OA 
HETATM   13  O   UNL     1      -7.855   7.434  68.211  1.00  0.00    -0.117 OA 
BRANCH  13  14
HETATM   14  C   UNL     1      -7.132   6.248  68.381  1.00  0.00    -0.083 C  
BRANCH  14  15
HETATM   15  O   UNL     1      -7.265   5.431  67.193  1.00  0.00    -0.072 OA 
BRANCH  15  16
HETATM   16  C   UNL     1      -8.317   4.565  67.183  1.00  0.00    -0.105 C  
HETATM   17  O   UNL     1      -8.499   3.699  68.032  1.00  0.00    -0.090 OA 
BRANCH  16  18
HETATM   18  C   UNL     1      -9.252   4.790  65.975  1.00  0.00    -0.148 C  
HETATM   19  C   UNL     1     -10.593   5.374  66.462  1.00  0.00    -0.353 C  
HETATM   20  C   UNL     1      -9.535   3.460  65.266  1.00  0.00    -0.145 C  
HETATM   21  C   UNL     1      -8.632   5.786  64.984  1.00  0.00    -0.089 C  
ENDBRANCH  16  18
ENDBRANCH  15  16
ENDBRANCH  14  15
ENDBRANCH  13  14
BRANCH  11  22
HETATM   22  O   UNL     1      -8.392  10.124  68.091  1.00  0.00    -0.115 OA 
BRANCH  22  23
HETATM   23  C   UNL     1      -8.620  11.517  68.039  1.00  0.00    -0.150 C  
BRANCH  23  24
HETATM   24  C   UNL     1      -8.580  11.958  66.583  1.00  0.00    -0.163 C  
BRANCH  24  25
HETATM   25  N   UNL     1      -9.599  12.944  66.334  1.00  0.00    -0.258 NA 
HETATM   26  C   UNL     1     -10.537  12.862  65.349  1.00  0.00    -0.289 A  
HETATM   27  N   UNL     1     -10.812  11.809  64.562  1.00  0.00    -0.305 NA 
HETATM   28  H2  UNL     1     -11.887  16.262  63.927  1.00  0.00     0.000 HD 
HETATM   29  H1  UNL     1     -13.322  15.740  63.316  1.00  0.00     0.000 HD 
HETATM   30  C   UNL     1      -9.657  14.200  66.873  1.00  0.00    -0.270 A  
HETATM   31  N   UNL     1     -10.553  14.948  66.264  1.00  0.00    -0.299 NA 
HETATM   32  C   UNL     1     -11.092  14.127  65.288  1.00  0.00    -0.331 A  
HETATM   33  C   UNL     1     -12.036  14.349  64.276  1.00  0.00    -0.436 A  
HETATM   34  N   UNL     1     -12.634  15.579  64.053  1.00  0.00    -0.607 NA 
HETATM   35  N   UNL     1     -12.379  13.311  63.474  1.00  0.00    -0.753 NA 
HETATM   36  C   UNL     1     -11.761  12.122  63.659  1.00  0.00    -0.498 A  
ENDBRANCH  24  25
ENDBRANCH  23  24
ENDBRANCH  22  23
ENDBRANCH  11  22
ENDBRANCH   8   9
ENDBRANCH   7   8
ENDBRANCH   5   7
ENDBRANCH   2   5
TORSDOF 12
ENDMDL
MODEL      169
REMARK 921   NORMALIZED FREE ENERGY PREDICTED BY IDOCK:   -4.48 KCAL/MOL
REMARK 922        TOTAL FREE ENERGY PREDICTED BY IDOCK:   -9.21 KCAL/MOL
REMARK 923 INTER-LIGAND FREE ENERGY PREDICTED BY IDOCK:   -7.64 KCAL/MOL
REMARK 924 INTRA-LIGAND FREE ENERGY PREDICTED BY IDOCK:   -1.57 KCAL/MOL
REMARK 927      BINDING AFFINITY PREDICTED BY RF-SCORE:    0.00 PKD
ROOT
HETATM    1  C   UNL     1      -8.160   5.981  72.395  1.00  0.00    -0.109 C  
HETATM    2  C   UNL     1      -8.057   6.936  71.190  1.00  0.00    -0.110 C  
HETATM    3  C   UNL     1      -6.735   7.707  71.291  1.00  0.00    -0.048 C  
HETATM    4  C   UNL     1      -8.073   6.095  69.904  1.00  0.00    -0.119 C  
ENDROOT
BRANCH   2   5
HETATM    5  C   UNL     1      -9.272   7.877  71.200  1.00  0.00    -0.147 C  
HETATM    6  O   UNL     1     -10.415   7.499  71.441  1.00  0.00    -0.209 OA 
BRANCH   5   7
HETATM    7  O   UNL     1      -8.965   9.149  70.816  1.00  0.00    -0.209 OA 
BRANCH   7   8
HETATM    8  C   UNL     1      -9.271   9.443  69.440  1.00  0.00    -0.165 C  
BRANCH   8   9
HETATM    9  O   UNL     1      -9.194  10.829  69.119  1.00  0.00    -0.184 OA 
HETATM   10  P   UNL     1      -7.687  11.408  68.911  1.00  0.00    -0.014 P  
HETATM   11  C   UNL     1      -7.038  10.512  67.480  1.00  0.00    -0.089 C  
HETATM   12  O   UNL     1      -6.844  11.353  70.144  1.00  0.00    -0.103 OA 
HETATM   13  O   UNL     1      -7.857  12.860  68.237  1.00  0.00    -0.129 OA 
BRANCH  13  14
HETATM   14  C   UNL     1      -8.243  14.000  68.949  1.00  0.00     0.022 C  
BRANCH  14  15
HETATM   15  O   UNL     1      -7.682  15.174  68.316  1.00  0.00    -0.111 OA 
BRANCH  15  16
HETATM   16  C   UNL     1      -8.444  16.303  68.377  1.00  0.00    -0.195 C  
HETATM   17  O   UNL     1      -9.612  16.321  68.748  1.00  0.00    -0.222 OA 
BRANCH  16  18
HETATM   18  C   UNL     1      -7.672  17.558  67.915  1.00  0.00    -0.213 C  
HETATM   19  C   UNL     1      -6.249  17.537  68.512  1.00  0.00    -0.176 C  
HETATM   20  C   UNL     1      -8.380  18.828  68.403  1.00  0.00    -0.373 C  
HETATM   21  C   UNL     1      -7.544  17.589  66.385  1.00  0.00    -0.329 C  
ENDBRANCH  16  18
ENDBRANCH  15  16
ENDBRANCH  14  15
ENDBRANCH  13  14
BRANCH  11  22
HETATM   22  O   UNL     1      -7.971  10.793  66.433  1.00  0.00    -0.139 OA 
BRANCH  22  23
HETATM   23  C   UNL     1      -8.474   9.627  65.814  1.00  0.00    -0.133 C  
BRANCH  23  24
HETATM   24  C   UNL     1      -9.987   9.756  65.703  1.00  0.00    -0.282 C  
BRANCH  24  25
HETATM   25  N   UNL     1     -10.335  10.998  65.063  1.00  0.00    -0.291 NA 
HETATM   26  C   UNL     1     -11.080  11.986  65.633  1.00  0.00    -0.313 A  
HETATM   27  N   UNL     1     -11.471  12.085  66.914  1.00  0.00    -0.415 NA 
HETATM   28  H2  UNL     1     -13.175  14.233  63.190  1.00  0.00     0.000 HD 
HETATM   29  H1  UNL     1     -13.357  15.559  64.144  1.00  0.00     0.000 HD 
HETATM   30  C   UNL     1     -10.179  11.294  63.736  1.00  0.00    -0.377 A  
HETATM   31  N   UNL     1     -10.818  12.397  63.408  1.00  0.00    -0.433 NA 
HETATM   32  C   UNL     1     -11.410  12.825  64.585  1.00  0.00    -0.321 A  
HETATM   33  C   UNL     1     -12.268  13.893  64.883  1.00  0.00    -0.422 A  
HETATM   34  N   UNL     1     -12.732  14.783  63.927  1.00  0.00    -0.705 NA 
HETATM   35  N   UNL     1     -12.665  14.062  66.168  1.00  0.00    -0.386 NA 
HETATM   36  C   UNL     1     -12.252  13.167  67.093  1.00  0.00    -0.191 A  
ENDBRANCH  24  25
ENDBRANCH  23  24
ENDBRANCH  22  23
ENDBRANCH  11  22
ENDBRANCH   8   9
ENDBRANCH   7   8
ENDBRANCH   5   7
ENDBRANCH   2   5
TORSDOF 12
ENDMDL
MODEL      170
REMARK 921   NORMALIZED FREE ENERGY PREDICTED BY IDOCK:   -4.48 KCAL/MOL
REMARK 922        TOTAL FREE ENERGY PREDICTED BY IDOCK:   -9.21 KCAL/MOL
REMARK 923 INTER-LIGAND FREE ENERGY PREDICTED BY IDOCK:   -7.14 KCAL/MOL
REMARK 924 INTRA-LIGAND FREE ENERGY PREDICTED BY IDOCK:   -2.07 KCAL/MOL
REMARK 927      BINDING AFFINITY PREDICTED BY RF-SCORE:    0.00 PKD
ROOT
HETATM    1  C   UNL     1      -9.805  10.818  63.799  1.00  0.00    -0.396 C  
HETATM    2  C   UNL     1      -8.701   9.749  63.675  1.00  0.00    -0.235 C  
HETATM    3  C   UNL     1      -8.901   8.994  62.356  1.00  0.00    -0.177 C  
HETATM    4  C   UNL     1      -7.339  10.461  63.666  1.00  0.00    -0.013 C  
ENDROOT
BRANCH   2   5
HETATM    5  C   UNL     1      -8.781   8.813  64.890  1.00  0.00    -0.125 C  
HETATM    6  O   UNL     1      -9.659   8.891  65.745  1.00  0.00    -0.243 OA 
BRANCH   5   7
HETATM    7  O   UNL     1      -7.724   7.956  64.974  1.00  0.00    -0.092 OA 
BRANCH   7   8
HETATM    8  C   UNL     1      -8.093   6.570  65.107  1.00  0.00    -0.133 C  
BRANCH   8   9
HETATM    9  O   UNL     1      -8.806   6.279  66.305  1.00  0.00    -0.139 OA 
HETATM   10  P   UNL     1      -7.925   5.573  67.479  1.00  0.00    -0.101 P  
HETATM   11  C   UNL     1      -6.666   6.796  67.915  1.00  0.00    -0.068 C  
HETATM   12  O   UNL     1      -7.411   4.217  67.115  1.00  0.00    -0.075 OA 
HETATM   13  O   UNL     1      -8.820   5.652  68.814  1.00  0.00    -0.109 OA 
BRANCH  13  14
HETATM   14  C   UNL     1      -9.909   4.810  69.065  1.00  0.00    -0.168 C  
BRANCH  14  15
HETATM   15  O   UNL     1     -10.319   4.955  70.445  1.00  0.00    -0.246 OA 
BRANCH  15  16
HETATM   16  C   UNL     1     -11.015   6.090  70.741  1.00  0.00    -0.297 C  
HETATM   17  O   UNL     1     -11.766   6.656  69.956  1.00  0.00    -0.383 OA 
BRANCH  16  18
HETATM   18  C   UNL     1     -10.743   6.588  72.177  1.00  0.00    -0.249 C  
HETATM   19  C   UNL     1     -10.872   5.411  73.165  1.00  0.00    -0.333 C  
HETATM   20  C   UNL     1     -11.764   7.662  72.571  1.00  0.00    -0.352 C  
HETATM   21  C   UNL     1      -9.320   7.154  72.298  1.00  0.00    -0.157 C  
ENDBRANCH  16  18
ENDBRANCH  15  16
ENDBRANCH  14  15
ENDBRANCH  13  14
BRANCH  11  22
HETATM   22  O   UNL     1      -7.413   7.953  68.298  1.00  0.00    -0.099 OA 
BRANCH  22  23
HETATM   23  C   UNL     1      -6.692   9.156  68.131  1.00  0.00    -0.061 C  
BRANCH  23  24
HETATM   24  C   UNL     1      -7.255  10.192  69.094  1.00  0.00    -0.081 C  
BRANCH  24  25
HETATM   25  N   UNL     1      -8.169  11.066  68.406  1.00  0.00    -0.130 NA 
HETATM   26  C   UNL     1      -9.518  11.088  68.595  1.00  0.00    -0.195 A  
HETATM   27  N   UNL     1     -10.223  10.461  69.551  1.00  0.00    -0.236 NA 
HETATM   28  H2  UNL     1     -11.701  12.207  65.531  1.00  0.00     0.000 HD 
HETATM   29  H1  UNL     1     -13.055  12.681  66.333  1.00  0.00     0.000 HD 
HETATM   30  C   UNL     1      -7.880  11.837  67.312  1.00  0.00    -0.161 A  
HETATM   31  N   UNL     1      -8.972  12.322  66.761  1.00  0.00    -0.209 NA 
HETATM   32  C   UNL     1     -10.007  11.836  67.541  1.00  0.00    -0.192 A  
HETATM   33  C   UNL     1     -11.402  11.939  67.440  1.00  0.00    -0.324 A  
HETATM   34  N   UNL     1     -12.041  12.606  66.406  1.00  0.00    -0.565 NA 
HETATM   35  N   UNL     1     -12.163  11.356  68.398  1.00  0.00    -0.522 NA 
HETATM   36  C   UNL     1     -11.543  10.665  69.381  1.00  0.00    -0.280 A  
ENDBRANCH  24  25
ENDBRANCH  23  24
ENDBRANCH  22  23
ENDBRANCH  11  22
ENDBRANCH   8   9
ENDBRANCH   7   8
ENDBRANCH   5   7
ENDBRANCH   2   5
TORSDOF 12
ENDMDL
MODEL      171
REMARK 921   NORMALIZED FREE ENERGY PREDICTED BY IDOCK:   -4.47 KCAL/MOL
REMARK 922        TOTAL FREE ENERGY PREDICTED BY IDOCK:   -9.21 KCAL/MOL
REMARK 923 INTER-LIGAND FREE ENERGY PREDICTED BY IDOCK:   -7.76 KCAL/MOL
REMARK 924 INTRA-LIGAND FREE ENERGY PREDICTED BY IDOCK:   -1.44 KCAL/MOL
REMARK 927      BINDING AFFINITY PREDICTED BY RF-SCORE:    0.00 PKD
ROOT
HETATM    1  C   UNL     1     -10.348  18.018  66.874  1.00  0.00    -0.377 C  
HETATM    2  C   UNL     1      -9.602  17.161  67.914  1.00  0.00    -0.266 C  
HETATM    3  C   UNL     1      -8.243  17.812  68.198  1.00  0.00    -0.260 C  
HETATM    4  C   UNL     1     -10.440  17.124  69.202  1.00  0.00    -0.296 C  
ENDROOT
BRANCH   2   5
HETATM    5  C   UNL     1      -9.450  15.734  67.362  1.00  0.00    -0.212 C  
HETATM    6  O   UNL     1      -8.532  15.393  66.622  1.00  0.00    -0.259 OA 
BRANCH   5   7
HETATM    7  O   UNL     1     -10.491  14.920  67.695  1.00  0.00    -0.245 OA 
BRANCH   7   8
HETATM    8  C   UNL     1     -10.456  13.625  67.066  1.00  0.00    -0.270 C  
BRANCH   8   9
HETATM    9  O   UNL     1     -10.032  12.577  67.933  1.00  0.00    -0.200 OA 
HETATM   10  P   UNL     1     -10.813  11.162  67.739  1.00  0.00    -0.282 P  
HETATM   11  C   UNL     1     -10.408  10.633  66.057  1.00  0.00    -0.225 C  
HETATM   12  O   UNL     1     -12.271  11.228  68.062  1.00  0.00    -0.621 OA 
HETATM   13  O   UNL     1      -9.959  10.068  68.555  1.00  0.00    -0.154 OA 
BRANCH  13  14
HETATM   14  C   UNL     1      -9.993   9.945  69.947  1.00  0.00    -0.252 C  
BRANCH  14  15
HETATM   15  O   UNL     1     -11.105   9.100  70.328  1.00  0.00    -0.240 OA 
BRANCH  15  16
HETATM   16  C   UNL     1     -10.895   8.291  71.405  1.00  0.00    -0.239 C  
HETATM   17  O   UNL     1     -10.192   8.595  72.362  1.00  0.00    -0.312 OA 
BRANCH  16  18
HETATM   18  C   UNL     1     -11.635   6.942  71.279  1.00  0.00    -0.352 C  
HETATM   19  C   UNL     1     -13.141   7.154  71.535  1.00  0.00    -0.427 C  
HETATM   20  C   UNL     1     -11.106   5.946  72.319  1.00  0.00    -0.330 C  
HETATM   21  C   UNL     1     -11.471   6.358  69.868  1.00  0.00    -0.483 C  
ENDBRANCH  16  18
ENDBRANCH  15  16
ENDBRANCH  14  15
ENDBRANCH  13  14
BRANCH  11  22
HETATM   22  O   UNL     1      -8.980  10.573  66.039  1.00  0.00    -0.157 OA 
BRANCH  22  23
HETATM   23  C   UNL     1      -8.483   9.461  65.323  1.00  0.00    -0.149 C  
BRANCH  23  24
HETATM   24  C   UNL     1      -7.708   8.574  66.288  1.00  0.00    -0.094 C  
BRANCH  24  25
HETATM   25  N   UNL     1      -8.303   7.264  66.346  1.00  0.00    -0.119 NA 
HETATM   26  C   UNL     1      -7.720   6.123  65.886  1.00  0.00    -0.093 A  
HETATM   27  N   UNL     1      -6.453   5.957  65.472  1.00  0.00    -0.041 NA 
HETATM   28  H2  UNL     1     -10.140   3.288  64.658  1.00  0.00     0.000 HD 
HETATM   29  H1  UNL     1      -9.134   1.997  64.813  1.00  0.00     0.000 HD 
HETATM   30  C   UNL     1      -9.607   6.982  66.651  1.00  0.00    -0.167 A  
HETATM   31  N   UNL     1      -9.910   5.732  66.374  1.00  0.00    -0.155 NA 
HETATM   32  C   UNL     1      -8.740   5.190  65.867  1.00  0.00    -0.135 A  
HETATM   33  C   UNL     1      -8.428   3.930  65.337  1.00  0.00    -0.109 A  
HETATM   34  N   UNL     1      -9.361   2.914  65.199  1.00  0.00    -0.147 NA 
HETATM   35  N   UNL     1      -7.155   3.696  64.936  1.00  0.00    -0.064 NA 
HETATM   36  C   UNL     1      -6.256   4.702  65.025  1.00  0.00    -0.034 A  
ENDBRANCH  24  25
ENDBRANCH  23  24
ENDBRANCH  22  23
ENDBRANCH  11  22
ENDBRANCH   8   9
ENDBRANCH   7   8
ENDBRANCH   5   7
ENDBRANCH   2   5
TORSDOF 12
ENDMDL
MODEL      172
REMARK 921   NORMALIZED FREE ENERGY PREDICTED BY IDOCK:   -4.46 KCAL/MOL
REMARK 922        TOTAL FREE ENERGY PREDICTED BY IDOCK:   -9.19 KCAL/MOL
REMARK 923 INTER-LIGAND FREE ENERGY PREDICTED BY IDOCK:   -7.68 KCAL/MOL
REMARK 924 INTRA-LIGAND FREE ENERGY PREDICTED BY IDOCK:   -1.51 KCAL/MOL
REMARK 927      BINDING AFFINITY PREDICTED BY RF-SCORE:    0.00 PKD
ROOT
HETATM    1  C   UNL     1     -13.329   7.343  71.457  1.00  0.00    -0.435 C  
HETATM    2  C   UNL     1     -11.963   8.049  71.346  1.00  0.00    -0.328 C  
HETATM    3  C   UNL     1     -12.206   9.546  71.121  1.00  0.00    -0.421 C  
HETATM    4  C   UNL     1     -11.202   7.837  72.664  1.00  0.00    -0.438 C  
ENDROOT
BRANCH   2   5
HETATM    5  C   UNL     1     -11.171   7.416  70.191  1.00  0.00    -0.218 C  
HETATM    6  O   UNL     1     -11.124   6.206  69.991  1.00  0.00    -0.332 OA 
BRANCH   5   7
HETATM    7  O   UNL     1     -10.450   8.326  69.477  1.00  0.00    -0.223 OA 
BRANCH   7   8
HETATM    8  C   UNL     1     -10.404   8.067  68.061  1.00  0.00    -0.206 C  
BRANCH   8   9
HETATM    9  O   UNL     1     -10.895   9.142  67.265  1.00  0.00    -0.233 OA 
HETATM   10  P   UNL     1      -9.837  10.353  67.012  1.00  0.00    -0.207 P  
HETATM   11  C   UNL     1      -8.483   9.600  66.079  1.00  0.00    -0.124 C  
HETATM   12  O   UNL     1      -9.440  11.078  68.257  1.00  0.00    -0.159 OA 
HETATM   13  O   UNL     1     -10.471  11.258  65.840  1.00  0.00    -0.249 OA 
BRANCH  13  14
HETATM   14  C   UNL     1     -11.520  12.159  66.044  1.00  0.00    -0.370 C  
BRANCH  14  15
HETATM   15  O   UNL     1     -10.981  13.490  66.225  1.00  0.00    -0.287 OA 
BRANCH  15  16
HETATM   16  C   UNL     1     -11.249  14.081  67.424  1.00  0.00    -0.311 C  
HETATM   17  O   UNL     1     -12.152  13.728  68.174  1.00  0.00    -0.364 OA 
BRANCH  16  18
HETATM   18  C   UNL     1     -10.292  15.254  67.728  1.00  0.00    -0.244 C  
HETATM   19  C   UNL     1      -9.212  14.793  68.728  1.00  0.00    -0.196 C  
HETATM   20  C   UNL     1     -11.063  16.421  68.357  1.00  0.00    -0.351 C  
HETATM   21  C   UNL     1      -9.585  15.726  66.449  1.00  0.00    -0.311 C  
ENDBRANCH  16  18
ENDBRANCH  15  16
ENDBRANCH  14  15
ENDBRANCH  13  14
BRANCH  11  22
HETATM   22  O   UNL     1      -9.111   9.058  64.915  1.00  0.00    -0.183 OA 
BRANCH  22  23
HETATM   23  C   UNL     1      -8.193   8.724  63.895  1.00  0.00    -0.160 C  
BRANCH  23  24
HETATM   24  C   UNL     1      -7.368   7.532  64.362  1.00  0.00    -0.088 C  
BRANCH  24  25
HETATM   25  N   UNL     1      -8.049   6.303  64.051  1.00  0.00    -0.096 NA 
HETATM   26  C   UNL     1      -8.449   5.380  64.969  1.00  0.00    -0.150 A  
HETATM   27  N   UNL     1      -8.459   5.504  66.307  1.00  0.00    -0.119 NA 
HETATM   28  H2  UNL     1      -8.628   1.654  63.749  1.00  0.00     0.000 HD 
HETATM   29  H1  UNL     1      -9.685   1.064  64.860  1.00  0.00     0.000 HD 
HETATM   30  C   UNL     1      -8.201   5.757  62.805  1.00  0.00    -0.096 A  
HETATM   31  N   UNL     1      -8.639   4.518  62.870  1.00  0.00    -0.105 NA 
HETATM   32  C   UNL     1      -8.772   4.261  64.224  1.00  0.00    -0.136 A  
HETATM   33  C   UNL     1      -9.131   3.112  64.943  1.00  0.00    -0.143 A  
HETATM   34  N   UNL     1      -9.424   1.900  64.337  1.00  0.00    -0.135 NA 
HETATM   35  N   UNL     1      -9.193   3.190  66.294  1.00  0.00    -0.149 NA 
HETATM   36  C   UNL     1      -8.861   4.358  66.889  1.00  0.00    -0.114 A  
ENDBRANCH  24  25
ENDBRANCH  23  24
ENDBRANCH  22  23
ENDBRANCH  11  22
ENDBRANCH   8   9
ENDBRANCH   7   8
ENDBRANCH   5   7
ENDBRANCH   2   5
TORSDOF 12
ENDMDL
MODEL      173
REMARK 921   NORMALIZED FREE ENERGY PREDICTED BY IDOCK:   -4.44 KCAL/MOL
REMARK 922        TOTAL FREE ENERGY PREDICTED BY IDOCK:   -9.15 KCAL/MOL
REMARK 923 INTER-LIGAND FREE ENERGY PREDICTED BY IDOCK:   -8.40 KCAL/MOL
REMARK 924 INTRA-LIGAND FREE ENERGY PREDICTED BY IDOCK:   -0.75 KCAL/MOL
REMARK 927      BINDING AFFINITY PREDICTED BY RF-SCORE:    0.00 PKD
ROOT
HETATM    1  C   UNL     1      -8.413   5.687  65.413  1.00  0.00    -0.147 C  
HETATM    2  C   UNL     1      -8.889   5.236  66.807  1.00  0.00    -0.111 C  
HETATM    3  C   UNL     1     -10.386   5.541  66.934  1.00  0.00    -0.315 C  
HETATM    4  C   UNL     1      -8.654   3.722  66.932  1.00  0.00    -0.109 C  
ENDROOT
BRANCH   2   5
HETATM    5  C   UNL     1      -8.061   5.971  67.873  1.00  0.00    -0.106 C  
HETATM    6  O   UNL     1      -8.113   5.702  69.070  1.00  0.00    -0.095 OA 
BRANCH   5   7
HETATM    7  O   UNL     1      -7.344   7.013  67.367  1.00  0.00    -0.087 OA 
BRANCH   7   8
HETATM    8  C   UNL     1      -7.208   8.132  68.263  1.00  0.00    -0.093 C  
BRANCH   8   9
HETATM    9  O   UNL     1      -8.395   8.910  68.394  1.00  0.00    -0.122 OA 
HETATM   10  P   UNL     1      -8.495   9.792  69.759  1.00  0.00    -0.186 P  
HETATM   11  C   UNL     1      -7.121  10.964  69.657  1.00  0.00    -0.116 C  
HETATM   12  O   UNL     1      -8.552   8.970  71.006  1.00  0.00    -0.188 OA 
HETATM   13  O   UNL     1      -9.714  10.819  69.534  1.00  0.00    -0.133 OA 
BRANCH  13  14
HETATM   14  C   UNL     1     -11.060  10.451  69.622  1.00  0.00    -0.276 C  
BRANCH  14  15
HETATM   15  O   UNL     1     -11.361  10.055  70.982  1.00  0.00    -0.347 OA 
BRANCH  15  16
HETATM   16  C   UNL     1     -12.501   9.327  71.150  1.00  0.00    -0.272 C  
HETATM   17  O   UNL     1     -13.631   9.784  71.016  1.00  0.00    -0.320 OA 
BRANCH  16  18
HETATM   18  C   UNL     1     -12.210   7.862  71.538  1.00  0.00    -0.338 C  
HETATM   19  C   UNL     1     -11.333   7.828  72.806  1.00  0.00    -0.446 C  
HETATM   20  C   UNL     1     -11.452   7.152  70.409  1.00  0.00    -0.317 C  
HETATM   21  C   UNL     1     -13.514   7.109  71.843  1.00  0.00    -0.276 C  
ENDBRANCH  16  18
ENDBRANCH  15  16
ENDBRANCH  14  15
ENDBRANCH  13  14
BRANCH  11  22
HETATM   22  O   UNL     1      -7.346  11.668  68.433  1.00  0.00    -0.083 OA 
BRANCH  22  23
HETATM   23  C   UNL     1      -7.988  12.912  68.621  1.00  0.00    -0.024 C  
BRANCH  23  24
HETATM   24  C   UNL     1      -8.110  13.600  67.269  1.00  0.00    -0.139 C  
BRANCH  24  25
HETATM   25  N   UNL     1      -9.135  12.969  66.480  1.00  0.00    -0.179 NA 
HETATM   26  C   UNL     1     -10.110  13.630  65.795  1.00  0.00    -0.298 A  
HETATM   27  N   UNL     1     -10.202  14.951  65.569  1.00  0.00    -0.347 NA 
HETATM   28  H2  UNL     1     -13.503  11.723  65.291  1.00  0.00     0.000 HD 
HETATM   29  H1  UNL     1     -14.070  12.538  63.981  1.00  0.00     0.000 HD 
HETATM   30  C   UNL     1      -9.440  11.634  66.470  1.00  0.00    -0.206 A  
HETATM   31  N   UNL     1     -10.578  11.402  65.852  1.00  0.00    -0.261 NA 
HETATM   32  C   UNL     1     -11.021  12.650  65.448  1.00  0.00    -0.286 A  
HETATM   33  C   UNL     1     -12.190  13.081  64.805  1.00  0.00    -0.435 A  
HETATM   34  N   UNL     1     -13.220  12.224  64.449  1.00  0.00    -0.749 NA 
HETATM   35  N   UNL     1     -12.320  14.400  64.520  1.00  0.00    -0.611 NA 
HETATM   36  C   UNL     1     -11.339  15.244  64.909  1.00  0.00    -0.384 A  
ENDBRANCH  24  25
ENDBRANCH  23  24
ENDBRANCH  22  23
ENDBRANCH  11  22
ENDBRANCH   8   9
ENDBRANCH   7   8
ENDBRANCH   5   7
ENDBRANCH   2   5
TORSDOF 12
ENDMDL
MODEL      174
REMARK 921   NORMALIZED FREE ENERGY PREDICTED BY IDOCK:   -4.44 KCAL/MOL
REMARK 922        TOTAL FREE ENERGY PREDICTED BY IDOCK:   -9.15 KCAL/MOL
REMARK 923 INTER-LIGAND FREE ENERGY PREDICTED BY IDOCK:   -8.04 KCAL/MOL
REMARK 924 INTRA-LIGAND FREE ENERGY PREDICTED BY IDOCK:   -1.11 KCAL/MOL
REMARK 927      BINDING AFFINITY PREDICTED BY RF-SCORE:    0.00 PKD
ROOT
HETATM    1  C   UNL     1      -7.315  10.691  62.344  1.00  0.00    -0.150 C  
HETATM    2  C   UNL     1      -8.132   9.850  63.344  1.00  0.00    -0.156 C  
HETATM    3  C   UNL     1      -9.589  10.328  63.307  1.00  0.00    -0.305 C  
HETATM    4  C   UNL     1      -8.056   8.377  62.912  1.00  0.00    -0.170 C  
ENDROOT
BRANCH   2   5
HETATM    5  C   UNL     1      -7.513  10.005  64.742  1.00  0.00    -0.143 C  
HETATM    6  O   UNL     1      -6.344   9.730  64.995  1.00  0.00    -0.083 OA 
BRANCH   5   7
HETATM    7  O   UNL     1      -8.419  10.383  65.688  1.00  0.00    -0.153 OA 
BRANCH   7   8
HETATM    8  C   UNL     1      -8.903   9.304  66.510  1.00  0.00    -0.133 C  
BRANCH   8   9
HETATM    9  O   UNL     1      -8.317   9.264  67.808  1.00  0.00    -0.115 OA 
HETATM   10  P   UNL     1      -8.226  10.700  68.569  1.00  0.00    -0.142 P  
HETATM   11  C   UNL     1      -9.945  11.215  68.797  1.00  0.00    -0.198 C  
HETATM   12  O   UNL     1      -7.340  11.691  67.886  1.00  0.00    -0.086 OA 
HETATM   13  O   UNL     1      -7.862  10.368  70.102  1.00  0.00    -0.100 OA 
BRANCH  13  14
HETATM   14  C   UNL     1      -6.580  10.011  70.530  1.00  0.00    -0.122 C  
BRANCH  14  15
HETATM   15  O   UNL     1      -6.672   9.326  71.802  1.00  0.00    -0.285 OA 
BRANCH  15  16
HETATM   16  C   UNL     1      -7.065   8.022  71.747  1.00  0.00    -0.075 C  
HETATM   17  O   UNL     1      -6.617   7.205  70.950  1.00  0.00    -0.046 OA 
BRANCH  16  18
HETATM   18  C   UNL     1      -8.148   7.690  72.796  1.00  0.00    -0.145 C  
HETATM   19  C   UNL     1      -7.806   8.385  74.129  1.00  0.00    -0.230 C  
HETATM   20  C   UNL     1      -8.204   6.177  73.043  1.00  0.00    -0.115 C  
HETATM   21  C   UNL     1      -9.525   8.193  72.338  1.00  0.00    -0.319 C  
ENDBRANCH  16  18
ENDBRANCH  15  16
ENDBRANCH  14  15
ENDBRANCH  13  14
BRANCH  11  22
HETATM   22  O   UNL     1     -10.541  10.146  69.537  1.00  0.00    -0.212 OA 
BRANCH  22  23
HETATM   23  C   UNL     1     -11.721  10.530  70.210  1.00  0.00    -0.332 C  
BRANCH  23  24
HETATM   24  C   UNL     1     -12.136  11.906  69.708  1.00  0.00    -0.252 C  
BRANCH  24  25
HETATM   25  N   UNL     1     -12.660  12.694  70.793  1.00  0.00    -0.270 NA 
HETATM   26  C   UNL     1     -12.364  14.004  71.018  1.00  0.00    -0.369 A  
HETATM   27  N   UNL     1     -11.702  14.847  70.208  1.00  0.00    -0.285 NA 
HETATM   28  H2  UNL     1     -12.512  15.222  74.746  1.00  0.00     0.000 HD 
HETATM   29  H1  UNL     1     -12.724  16.832  74.488  1.00  0.00     0.000 HD 
HETATM   30  C   UNL     1     -13.339  12.219  71.882  1.00  0.00    -0.329 A  
HETATM   31  N   UNL     1     -13.461  13.139  72.815  1.00  0.00    -0.541 NA 
HETATM   32  C   UNL     1     -12.830  14.255  72.295  1.00  0.00    -0.340 A  
HETATM   33  C   UNL     1     -12.565  15.528  72.820  1.00  0.00    -0.416 A  
HETATM   34  N   UNL     1     -12.917  15.906  74.107  1.00  0.00    -0.566 NA 
HETATM   35  N   UNL     1     -11.931  16.431  72.033  1.00  0.00    -0.455 NA 
HETATM   36  C   UNL     1     -11.543  16.049  70.796  1.00  0.00    -0.400 A  
ENDBRANCH  24  25
ENDBRANCH  23  24
ENDBRANCH  22  23
ENDBRANCH  11  22
ENDBRANCH   8   9
ENDBRANCH   7   8
ENDBRANCH   5   7
ENDBRANCH   2   5
TORSDOF 12
ENDMDL
MODEL      175
REMARK 921   NORMALIZED FREE ENERGY PREDICTED BY IDOCK:   -4.43 KCAL/MOL
REMARK 922        TOTAL FREE ENERGY PREDICTED BY IDOCK:   -9.14 KCAL/MOL
REMARK 923 INTER-LIGAND FREE ENERGY PREDICTED BY IDOCK:   -8.05 KCAL/MOL
REMARK 924 INTRA-LIGAND FREE ENERGY PREDICTED BY IDOCK:   -1.09 KCAL/MOL
REMARK 927      BINDING AFFINITY PREDICTED BY RF-SCORE:    0.00 PKD
ROOT
HETATM    1  C   UNL     1     -10.460   7.549  73.569  1.00  0.00    -0.362 C  
HETATM    2  C   UNL     1     -11.369   7.350  72.341  1.00  0.00    -0.341 C  
HETATM    3  C   UNL     1     -12.130   6.029  72.507  1.00  0.00    -0.111 C  
HETATM    4  C   UNL     1     -12.364   8.520  72.282  1.00  0.00    -0.450 C  
ENDROOT
BRANCH   2   5
HETATM    5  C   UNL     1     -10.498   7.355  71.075  1.00  0.00    -0.215 C  
HETATM    6  O   UNL     1      -9.275   7.457  71.099  1.00  0.00    -0.154 OA 
BRANCH   5   7
HETATM    7  O   UNL     1     -11.229   7.336  69.925  1.00  0.00    -0.244 OA 
BRANCH   7   8
HETATM    8  C   UNL     1     -11.125   6.110  69.176  1.00  0.00    -0.378 C  
BRANCH   8   9
HETATM    9  O   UNL     1      -9.893   5.970  68.473  1.00  0.00    -0.122 OA 
HETATM   10  P   UNL     1      -9.957   6.334  66.888  1.00  0.00    -0.181 P  
HETATM   11  C   UNL     1     -10.384   8.091  66.831  1.00  0.00    -0.338 C  
HETATM   12  O   UNL     1     -10.843   5.428  66.096  1.00  0.00    -0.217 OA 
HETATM   13  O   UNL     1      -8.429   6.435  66.393  1.00  0.00    -0.114 OA 
BRANCH  13  14
HETATM   14  C   UNL     1      -7.622   5.320  66.148  1.00  0.00    -0.087 C  
BRANCH  14  15
HETATM   15  O   UNL     1      -7.926   4.787  64.837  1.00  0.00    -0.092 OA 
BRANCH  15  16
HETATM   16  C   UNL     1      -7.452   3.534  64.581  1.00  0.00    -0.072 C  
HETATM   17  O   UNL     1      -6.262   3.241  64.572  1.00  0.00    -0.022 OA 
BRANCH  16  18
HETATM   18  C   UNL     1      -8.585   2.526  64.292  1.00  0.00    -0.091 C  
HETATM   19  C   UNL     1      -9.820   3.277  63.754  1.00  0.00    -0.154 C  
HETATM   20  C   UNL     1      -8.988   1.796  65.579  1.00  0.00    -0.115 C  
HETATM   21  C   UNL     1      -8.150   1.505  63.230  1.00  0.00    -0.061 C  
ENDBRANCH  16  18
ENDBRANCH  15  16
ENDBRANCH  14  15
ENDBRANCH  13  14
BRANCH  11  22
HETATM   22  O   UNL     1      -9.351   8.732  67.583  1.00  0.00    -0.136 OA 
BRANCH  22  23
HETATM   23  C   UNL     1      -9.804   9.871  68.286  1.00  0.00    -0.147 C  
BRANCH  23  24
HETATM   24  C   UNL     1     -10.945  10.500  67.498  1.00  0.00    -0.303 C  
BRANCH  24  25
HETATM   25  N   UNL     1     -10.721  11.913  67.342  1.00  0.00    -0.224 NA 
HETATM   26  C   UNL     1     -11.319  12.697  66.401  1.00  0.00    -0.331 A  
HETATM   27  N   UNL     1     -12.334  12.370  65.584  1.00  0.00    -0.621 NA 
HETATM   28  H2  UNL     1      -9.300  15.839  65.195  1.00  0.00     0.000 HD 
HETATM   29  H1  UNL     1     -10.546  16.752  64.633  1.00  0.00     0.000 HD 
HETATM   30  C   UNL     1      -9.730  12.645  67.937  1.00  0.00    -0.216 A  
HETATM   31  N   UNL     1      -9.628  13.844  67.405  1.00  0.00    -0.229 NA 
HETATM   32  C   UNL     1     -10.602  13.878  66.422  1.00  0.00    -0.280 A  
HETATM   33  C   UNL     1     -10.955  14.842  65.467  1.00  0.00    -0.350 A  
HETATM   34  N   UNL     1     -10.289  16.050  65.327  1.00  0.00    -0.533 NA 
HETATM   35  N   UNL     1     -11.996  14.580  64.640  1.00  0.00    -0.448 NA 
HETATM   36  C   UNL     1     -12.615  13.383  64.743  1.00  0.00    -0.314 A  
ENDBRANCH  24  25
ENDBRANCH  23  24
ENDBRANCH  22  23
ENDBRANCH  11  22
ENDBRANCH   8   9
ENDBRANCH   7   8
ENDBRANCH   5   7
ENDBRANCH   2   5
TORSDOF 12
ENDMDL
MODEL      176
REMARK 921   NORMALIZED FREE ENERGY PREDICTED BY IDOCK:   -4.43 KCAL/MOL
REMARK 922        TOTAL FREE ENERGY PREDICTED BY IDOCK:   -9.13 KCAL/MOL
REMARK 923 INTER-LIGAND FREE ENERGY PREDICTED BY IDOCK:   -7.07 KCAL/MOL
REMARK 924 INTRA-LIGAND FREE ENERGY PREDICTED BY IDOCK:   -2.06 KCAL/MOL
REMARK 927      BINDING AFFINITY PREDICTED BY RF-SCORE:    0.00 PKD
ROOT
HETATM    1  C   UNL     1     -10.582   5.009  66.430  1.00  0.00    -0.317 C  
HETATM    2  C   UNL     1      -9.458   4.530  67.370  1.00  0.00    -0.189 C  
HETATM    3  C   UNL     1      -9.465   2.997  67.396  1.00  0.00    -0.155 C  
HETATM    4  C   UNL     1      -8.117   5.035  66.816  1.00  0.00    -0.108 C  
ENDROOT
BRANCH   2   5
HETATM    5  C   UNL     1      -9.692   5.128  68.766  1.00  0.00    -0.154 C  
HETATM    6  O   UNL     1      -8.991   4.863  69.738  1.00  0.00    -0.094 OA 
BRANCH   5   7
HETATM    7  O   UNL     1     -10.813   5.900  68.834  1.00  0.00    -0.296 OA 
BRANCH   7   8
HETATM    8  C   UNL     1     -11.068   6.463  70.135  1.00  0.00    -0.365 C  
BRANCH   8   9
HETATM    9  O   UNL     1     -11.336   7.862  70.113  1.00  0.00    -0.214 OA 
HETATM   10  P   UNL     1     -11.713   8.516  71.555  1.00  0.00    -0.340 P  
HETATM   11  C   UNL     1     -10.232   8.292  72.569  1.00  0.00    -0.316 C  
HETATM   12  O   UNL     1     -12.983   7.991  72.142  1.00  0.00    -0.294 OA 
HETATM   13  O   UNL     1     -11.635  10.111  71.354  1.00  0.00    -0.348 OA 
BRANCH  13  14
HETATM   14  C   UNL     1     -12.627  10.856  70.708  1.00  0.00    -0.377 C  
BRANCH  14  15
HETATM   15  O   UNL     1     -12.055  11.521  69.557  1.00  0.00    -0.308 OA 
BRANCH  15  16
HETATM   16  C   UNL     1     -11.900  12.871  69.667  1.00  0.00    -0.320 C  
HETATM   17  O   UNL     1     -12.430  13.552  70.539  1.00  0.00    -0.332 OA 
BRANCH  16  18
HETATM   18  C   UNL     1     -10.990  13.451  68.563  1.00  0.00    -0.292 C  
HETATM   19  C   UNL     1     -10.288  14.721  69.087  1.00  0.00    -0.237 C  
HETATM   20  C   UNL     1     -11.822  13.833  67.333  1.00  0.00    -0.431 C  
HETATM   21  C   UNL     1      -9.905  12.440  68.164  1.00  0.00    -0.213 C  
ENDBRANCH  16  18
ENDBRANCH  15  16
ENDBRANCH  14  15
ENDBRANCH  13  14
BRANCH  11  22
HETATM   22  O   UNL     1      -9.195   8.946  71.833  1.00  0.00    -0.310 OA 
BRANCH  22  23
HETATM   23  C   UNL     1      -7.989   8.212  71.807  1.00  0.00    -0.121 C  
BRANCH  23  24
HETATM   24  C   UNL     1      -6.889   9.112  71.259  1.00  0.00    -0.063 C  
BRANCH  24  25
HETATM   25  N   UNL     1      -6.878   9.064  69.821  1.00  0.00    -0.048 NA 
HETATM   26  C   UNL     1      -6.589  10.119  69.009  1.00  0.00    -0.053 A  
HETATM   27  N   UNL     1      -6.096  11.317  69.363  1.00  0.00    -0.065 NA 
HETATM   28  H2  UNL     1      -8.272  10.116  65.463  1.00  0.00     0.000 HD 
HETATM   29  H1  UNL     1      -7.225  11.107  64.674  1.00  0.00     0.000 HD 
HETATM   30  C   UNL     1      -7.365   8.049  69.042  1.00  0.00    -0.084 A  
HETATM   31  N   UNL     1      -7.445   8.405  67.778  1.00  0.00    -0.096 NA 
HETATM   32  C   UNL     1      -6.986   9.711  67.749  1.00  0.00    -0.079 A  
HETATM   33  C   UNL     1      -6.885  10.660  66.722  1.00  0.00    -0.108 A  
HETATM   34  N   UNL     1      -7.299  10.417  65.421  1.00  0.00    -0.142 NA 
HETATM   35  N   UNL     1      -6.360  11.875  67.016  1.00  0.00    -0.153 NA 
HETATM   36  C   UNL     1      -6.001  12.130  68.294  1.00  0.00    -0.052 A  
ENDBRANCH  24  25
ENDBRANCH  23  24
ENDBRANCH  22  23
ENDBRANCH  11  22
ENDBRANCH   8   9
ENDBRANCH   7   8
ENDBRANCH   5   7
ENDBRANCH   2   5
TORSDOF 12
ENDMDL
MODEL      177
REMARK 921   NORMALIZED FREE ENERGY PREDICTED BY IDOCK:   -4.42 KCAL/MOL
REMARK 922        TOTAL FREE ENERGY PREDICTED BY IDOCK:   -9.12 KCAL/MOL
REMARK 923 INTER-LIGAND FREE ENERGY PREDICTED BY IDOCK:   -7.89 KCAL/MOL
REMARK 924 INTRA-LIGAND FREE ENERGY PREDICTED BY IDOCK:   -1.23 KCAL/MOL
REMARK 927      BINDING AFFINITY PREDICTED BY RF-SCORE:    0.00 PKD
ROOT
HETATM    1  C   UNL     1     -10.570  17.108  67.867  1.00  0.00    -0.376 C  
HETATM    2  C   UNL     1      -9.764  16.889  66.572  1.00  0.00    -0.295 C  
HETATM    3  C   UNL     1     -10.740  16.856  65.390  1.00  0.00    -0.161 C  
HETATM    4  C   UNL     1      -8.787  18.064  66.407  1.00  0.00    -0.251 C  
ENDROOT
BRANCH   2   5
HETATM    5  C   UNL     1      -8.971  15.579  66.699  1.00  0.00    -0.287 C  
HETATM    6  O   UNL     1      -7.776  15.539  66.976  1.00  0.00    -0.210 OA 
BRANCH   5   7
HETATM    7  O   UNL     1      -9.705  14.478  66.374  1.00  0.00    -0.269 OA 
BRANCH   7   8
HETATM    8  C   UNL     1      -9.076  13.226  66.708  1.00  0.00    -0.210 C  
BRANCH   8   9
HETATM    9  O   UNL     1      -9.776  12.478  67.698  1.00  0.00    -0.188 OA 
HETATM   10  P   UNL     1     -10.990  11.552  67.134  1.00  0.00    -0.308 P  
HETATM   11  C   UNL     1     -10.190  10.345  66.050  1.00  0.00    -0.228 C  
HETATM   12  O   UNL     1     -12.108  12.330  66.520  1.00  0.00    -0.616 OA 
HETATM   13  O   UNL     1     -11.396  10.567  68.342  1.00  0.00    -0.282 OA 
BRANCH  13  14
HETATM   14  C   UNL     1     -12.158  10.971  69.443  1.00  0.00    -0.318 C  
BRANCH  14  15
HETATM   15  O   UNL     1     -11.496  10.557  70.662  1.00  0.00    -0.322 OA 
BRANCH  15  16
HETATM   16  C   UNL     1     -12.053   9.494  71.308  1.00  0.00    -0.360 C  
HETATM   17  O   UNL     1     -13.196   9.486  71.752  1.00  0.00    -0.367 OA 
BRANCH  16  18
HETATM   18  C   UNL     1     -11.079   8.303  71.429  1.00  0.00    -0.302 C  
HETATM   19  C   UNL     1     -11.113   7.752  72.869  1.00  0.00    -0.457 C  
HETATM   20  C   UNL     1      -9.645   8.754  71.121  1.00  0.00    -0.309 C  
HETATM   21  C   UNL     1     -11.483   7.168  70.477  1.00  0.00    -0.334 C  
ENDBRANCH  16  18
ENDBRANCH  15  16
ENDBRANCH  14  15
ENDBRANCH  13  14
BRANCH  11  22
HETATM   22  O   UNL     1      -9.236   9.691  66.890  1.00  0.00    -0.139 OA 
BRANCH  22  23
HETATM   23  C   UNL     1      -9.386   8.287  66.909  1.00  0.00    -0.176 C  
BRANCH  23  24
HETATM   24  C   UNL     1      -8.339   7.678  65.987  1.00  0.00    -0.135 C  
BRANCH  24  25
HETATM   25  N   UNL     1      -7.821   6.462  66.557  1.00  0.00    -0.102 NA 
HETATM   26  C   UNL     1      -8.358   5.224  66.371  1.00  0.00    -0.109 A  
HETATM   27  N   UNL     1      -9.323   4.869  65.508  1.00  0.00    -0.160 NA 
HETATM   28  H2  UNL     1      -7.829   2.630  69.269  1.00  0.00     0.000 HD 
HETATM   29  H1  UNL     1      -8.030   1.239  68.416  1.00  0.00     0.000 HD 
HETATM   30  C   UNL     1      -6.872   6.371  67.539  1.00  0.00    -0.076 A  
HETATM   31  N   UNL     1      -6.794   5.151  68.026  1.00  0.00    -0.058 NA 
HETATM   32  C   UNL     1      -7.741   4.429  67.319  1.00  0.00    -0.089 A  
HETATM   33  C   UNL     1      -8.187   3.102  67.410  1.00  0.00    -0.082 A  
HETATM   34  N   UNL     1      -7.706   2.203  68.350  1.00  0.00    -0.053 NA 
HETATM   35  N   UNL     1      -9.135   2.679  66.540  1.00  0.00    -0.142 NA 
HETATM   36  C   UNL     1      -9.640   3.568  65.654  1.00  0.00    -0.115 A  
ENDBRANCH  24  25
ENDBRANCH  23  24
ENDBRANCH  22  23
ENDBRANCH  11  22
ENDBRANCH   8   9
ENDBRANCH   7   8
ENDBRANCH   5   7
ENDBRANCH   2   5
TORSDOF 12
ENDMDL
MODEL      178
REMARK 921   NORMALIZED FREE ENERGY PREDICTED BY IDOCK:   -4.40 KCAL/MOL
REMARK 922        TOTAL FREE ENERGY PREDICTED BY IDOCK:   -9.08 KCAL/MOL
REMARK 923 INTER-LIGAND FREE ENERGY PREDICTED BY IDOCK:   -7.54 KCAL/MOL
REMARK 924 INTRA-LIGAND FREE ENERGY PREDICTED BY IDOCK:   -1.54 KCAL/MOL
REMARK 927      BINDING AFFINITY PREDICTED BY RF-SCORE:    0.00 PKD
ROOT
HETATM    1  C   UNL     1     -12.519  13.138  65.715  1.00  0.00    -0.441 C  
HETATM    2  C   UNL     1     -11.540  13.150  64.525  1.00  0.00    -0.406 C  
HETATM    3  C   UNL     1     -12.343  13.369  63.237  1.00  0.00    -0.244 C  
HETATM    4  C   UNL     1     -10.550  14.308  64.725  1.00  0.00    -0.434 C  
ENDROOT
BRANCH   2   5
HETATM    5  C   UNL     1     -10.772  11.819  64.503  1.00  0.00    -0.315 C  
HETATM    6  O   UNL     1     -10.304  11.328  63.480  1.00  0.00    -0.348 OA 
BRANCH   5   7
HETATM    7  O   UNL     1     -10.752  11.195  65.715  1.00  0.00    -0.250 OA 
BRANCH   7   8
HETATM    8  C   UNL     1      -9.469  10.653  66.083  1.00  0.00    -0.179 C  
BRANCH   8   9
HETATM    9  O   UNL     1      -8.550  11.631  66.561  1.00  0.00    -0.179 OA 
HETATM   10  P   UNL     1      -8.885  12.230  68.037  1.00  0.00    -0.185 P  
HETATM   11  C   UNL     1      -8.756  10.813  69.154  1.00  0.00    -0.091 C  
HETATM   12  O   UNL     1     -10.170  12.990  68.103  1.00  0.00    -0.226 OA 
HETATM   13  O   UNL     1      -7.567  13.030  68.501  1.00  0.00    -0.125 OA 
BRANCH  13  14
HETATM   14  C   UNL     1      -7.224  14.297  68.018  1.00  0.00    -0.142 C  
BRANCH  14  15
HETATM   15  O   UNL     1      -8.033  15.298  68.681  1.00  0.00    -0.133 OA 
BRANCH  15  16
HETATM   16  C   UNL     1      -7.715  16.595  68.406  1.00  0.00    -0.200 C  
HETATM   17  O   UNL     1      -6.597  17.074  68.563  1.00  0.00    -0.156 OA 
BRANCH  16  18
HETATM   18  C   UNL     1      -8.925  17.399  67.883  1.00  0.00    -0.251 C  
HETATM   19  C   UNL     1      -8.867  18.837  68.436  1.00  0.00    -0.375 C  
HETATM   20  C   UNL     1     -10.235  16.755  68.354  1.00  0.00    -0.296 C  
HETATM   21  C   UNL     1      -8.906  17.478  66.349  1.00  0.00    -0.269 C  
ENDBRANCH  16  18
ENDBRANCH  15  16
ENDBRANCH  14  15
ENDBRANCH  13  14
BRANCH  11  22
HETATM   22  O   UNL     1      -7.425  10.326  68.958  1.00  0.00    -0.081 OA 
BRANCH  22  23
HETATM   23  C   UNL     1      -7.174   9.115  69.640  1.00  0.00    -0.061 C  
BRANCH  23  24
HETATM   24  C   UNL     1      -7.856   9.178  71.000  1.00  0.00    -0.116 C  
BRANCH  24  25
HETATM   25  N   UNL     1      -8.528   7.935  71.277  1.00  0.00    -0.113 NA 
HETATM   26  C   UNL     1      -9.878   7.789  71.388  1.00  0.00    -0.167 A  
HETATM   27  N   UNL     1     -10.829   8.690  71.093  1.00  0.00    -0.244 NA 
HETATM   28  H2  UNL     1     -11.141   4.903  73.730  1.00  0.00     0.000 HD 
HETATM   29  H1  UNL     1     -12.644   4.691  73.098  1.00  0.00     0.000 HD 
HETATM   30  C   UNL     1      -7.938   6.772  71.692  1.00  0.00    -0.102 A  
HETATM   31  N   UNL     1      -8.830   5.897  72.104  1.00  0.00    -0.136 NA 
HETATM   32  C   UNL     1     -10.049   6.534  71.943  1.00  0.00    -0.182 A  
HETATM   33  C   UNL     1     -11.364   6.162  72.257  1.00  0.00    -0.300 A  
HETATM   34  N   UNL     1     -11.687   4.961  72.870  1.00  0.00    -0.168 NA 
HETATM   35  N   UNL     1     -12.368   7.018  71.947  1.00  0.00    -0.332 NA 
HETATM   36  C   UNL     1     -12.051   8.210  71.393  1.00  0.00    -0.297 A  
ENDBRANCH  24  25
ENDBRANCH  23  24
ENDBRANCH  22  23
ENDBRANCH  11  22
ENDBRANCH   8   9
ENDBRANCH   7   8
ENDBRANCH   5   7
ENDBRANCH   2   5
TORSDOF 12
ENDMDL
MODEL      179
REMARK 921   NORMALIZED FREE ENERGY PREDICTED BY IDOCK:   -4.40 KCAL/MOL
REMARK 922        TOTAL FREE ENERGY PREDICTED BY IDOCK:   -9.08 KCAL/MOL
REMARK 923 INTER-LIGAND FREE ENERGY PREDICTED BY IDOCK:   -7.45 KCAL/MOL
REMARK 924 INTRA-LIGAND FREE ENERGY PREDICTED BY IDOCK:   -1.63 KCAL/MOL
REMARK 927      BINDING AFFINITY PREDICTED BY RF-SCORE:    0.00 PKD
ROOT
HETATM    1  C   UNL     1      -5.984  13.374  69.930  1.00  0.00    -0.133 C  
HETATM    2  C   UNL     1      -6.557  12.456  68.833  1.00  0.00    -0.095 C  
HETATM    3  C   UNL     1      -7.922  13.005  68.401  1.00  0.00    -0.135 C  
HETATM    4  C   UNL     1      -5.589  12.468  67.639  1.00  0.00    -0.128 C  
ENDROOT
BRANCH   2   5
HETATM    5  C   UNL     1      -6.663  11.027  69.390  1.00  0.00    -0.112 C  
HETATM    6  O   UNL     1      -6.799  10.778  70.584  1.00  0.00    -0.257 OA 
BRANCH   5   7
HETATM    7  O   UNL     1      -6.492  10.069  68.436  1.00  0.00    -0.053 OA 
BRANCH   7   8
HETATM    8  C   UNL     1      -7.675   9.299  68.149  1.00  0.00    -0.088 C  
BRANCH   8   9
HETATM    9  O   UNL     1      -8.425   9.792  67.043  1.00  0.00    -0.117 OA 
HETATM   10  P   UNL     1      -8.299   8.915  65.677  1.00  0.00    -0.156 P  
HETATM   11  C   UNL     1      -8.999   7.300  66.094  1.00  0.00    -0.149 C  
HETATM   12  O   UNL     1      -6.920   8.892  65.100  1.00  0.00    -0.078 OA 
HETATM   13  O   UNL     1      -9.463   9.444  64.700  1.00  0.00    -0.168 OA 
BRANCH  13  14
HETATM   14  C   UNL     1      -9.386  10.645  63.987  1.00  0.00    -0.266 C  
BRANCH  14  15
HETATM   15  O   UNL     1      -9.818  11.735  64.836  1.00  0.00    -0.249 OA 
BRANCH  15  16
HETATM   16  C   UNL     1     -10.900  12.438  64.395  1.00  0.00    -0.337 C  
HETATM   17  O   UNL     1     -11.521  12.168  63.373  1.00  0.00    -0.427 OA 
BRANCH  16  18
HETATM   18  C   UNL     1     -11.250  13.620  65.324  1.00  0.00    -0.307 C  
HETATM   19  C   UNL     1     -11.869  13.084  66.632  1.00  0.00    -0.455 C  
HETATM   20  C   UNL     1     -12.274  14.541  64.650  1.00  0.00    -0.474 C  
HETATM   21  C   UNL     1      -9.991  14.420  65.688  1.00  0.00    -0.365 C  
ENDBRANCH  16  18
ENDBRANCH  15  16
ENDBRANCH  14  15
ENDBRANCH  13  14
BRANCH  11  22
HETATM   22  O   UNL     1     -10.327   7.592  66.535  1.00  0.00    -0.222 OA 
BRANCH  22  23
HETATM   23  C   UNL     1     -11.014   6.454  67.013  1.00  0.00    -0.389 C  
BRANCH  23  24
HETATM   24  C   UNL     1     -10.060   5.647  67.883  1.00  0.00    -0.168 C  
BRANCH  24  25
HETATM   25  N   UNL     1     -10.395   5.811  69.273  1.00  0.00    -0.230 NA 
HETATM   26  C   UNL     1      -9.799   5.145  70.301  1.00  0.00    -0.225 A  
HETATM   27  N   UNL     1      -8.701   4.373  70.253  1.00  0.00    -0.079 NA 
HETATM   28  H2  UNL     1     -11.989   4.538  73.501  1.00  0.00     0.000 HD 
HETATM   29  H1  UNL     1     -10.789   4.330  74.605  1.00  0.00     0.000 HD 
HETATM   30  C   UNL     1     -11.488   6.468  69.769  1.00  0.00    -0.379 A  
HETATM   31  N   UNL     1     -11.655   6.230  71.052  1.00  0.00    -0.313 NA 
HETATM   32  C   UNL     1     -10.617   5.379  71.391  1.00  0.00    -0.212 A  
HETATM   33  C   UNL     1     -10.279   4.720  72.581  1.00  0.00    -0.189 A  
HETATM   34  N   UNL     1     -11.035   4.810  73.739  1.00  0.00    -0.308 NA 
HETATM   35  N   UNL     1      -9.159   3.955  72.600  1.00  0.00    -0.107 NA 
HETATM   36  C   UNL     1      -8.447   3.828  71.458  1.00  0.00    -0.080 A  
ENDBRANCH  24  25
ENDBRANCH  23  24
ENDBRANCH  22  23
ENDBRANCH  11  22
ENDBRANCH   8   9
ENDBRANCH   7   8
ENDBRANCH   5   7
ENDBRANCH   2   5
TORSDOF 12
ENDMDL
MODEL      180
REMARK 921   NORMALIZED FREE ENERGY PREDICTED BY IDOCK:   -4.40 KCAL/MOL
REMARK 922        TOTAL FREE ENERGY PREDICTED BY IDOCK:   -9.08 KCAL/MOL
REMARK 923 INTER-LIGAND FREE ENERGY PREDICTED BY IDOCK:   -7.20 KCAL/MOL
REMARK 924 INTRA-LIGAND FREE ENERGY PREDICTED BY IDOCK:   -1.87 KCAL/MOL
REMARK 927      BINDING AFFINITY PREDICTED BY RF-SCORE:    0.00 PKD
ROOT
HETATM    1  C   UNL     1     -10.285   4.818  66.329  1.00  0.00    -0.315 C  
HETATM    2  C   UNL     1      -9.189   4.605  67.391  1.00  0.00    -0.146 C  
HETATM    3  C   UNL     1      -9.264   3.156  67.886  1.00  0.00    -0.243 C  
HETATM    4  C   UNL     1      -7.823   4.861  66.734  1.00  0.00    -0.099 C  
ENDROOT
BRANCH   2   5
HETATM    5  C   UNL     1      -9.403   5.613  68.532  1.00  0.00    -0.123 C  
HETATM    6  O   UNL     1      -8.699   5.652  69.537  1.00  0.00    -0.108 OA 
BRANCH   5   7
HETATM    7  O   UNL     1     -10.512   6.386  68.359  1.00  0.00    -0.176 OA 
BRANCH   7   8
HETATM    8  C   UNL     1     -10.847   7.205  69.495  1.00  0.00    -0.225 C  
BRANCH   8   9
HETATM    9  O   UNL     1     -11.139   8.559  69.161  1.00  0.00    -0.002 OA 
HETATM   10  P   UNL     1     -10.635   9.662  70.247  1.00  0.00    -0.318 P  
HETATM   11  C   UNL     1      -8.832   9.512  70.260  1.00  0.00    -0.243 C  
HETATM   12  O   UNL     1     -11.303   9.546  71.579  1.00  0.00    -0.372 OA 
HETATM   13  O   UNL     1     -10.758  11.092  69.518  1.00  0.00    -0.237 OA 
BRANCH  13  14
HETATM   14  C   UNL     1     -11.972  11.762  69.336  1.00  0.00    -0.298 C  
BRANCH  14  15
HETATM   15  O   UNL     1     -12.144  12.070  67.932  1.00  0.00    -0.531 OA 
BRANCH  15  16
HETATM   16  C   UNL     1     -11.763  13.322  67.547  1.00  0.00    -0.366 C  
HETATM   17  O   UNL     1     -11.679  14.276  68.312  1.00  0.00    -0.306 OA 
BRANCH  16  18
HETATM   18  C   UNL     1     -11.457  13.404  66.036  1.00  0.00    -0.351 C  
HETATM   19  C   UNL     1     -10.671  14.698  65.739  1.00  0.00    -0.321 C  
HETATM   20  C   UNL     1     -12.762  13.439  65.231  1.00  0.00    -0.481 C  
HETATM   21  C   UNL     1     -10.599  12.213  65.586  1.00  0.00    -0.297 C  
ENDBRANCH  16  18
ENDBRANCH  15  16
ENDBRANCH  14  15
ENDBRANCH  13  14
BRANCH  11  22
HETATM   22  O   UNL     1      -8.447   9.743  68.903  1.00  0.00    -0.118 OA 
BRANCH  22  23
HETATM   23  C   UNL     1      -7.424   8.874  68.463  1.00  0.00    -0.085 C  
BRANCH  23  24
HETATM   24  C   UNL     1      -6.100   9.360  69.037  1.00  0.00    -0.042 C  
BRANCH  24  25
HETATM   25  N   UNL     1      -5.698  10.583  68.395  1.00  0.00    -0.037 NA 
HETATM   26  C   UNL     1      -5.679  11.807  68.993  1.00  0.00    -0.052 A  
HETATM   27  N   UNL     1      -5.841  12.086  70.296  1.00  0.00    -0.157 NA 
HETATM   28  H2  UNL     1      -6.228  14.912  66.655  1.00  0.00     0.000 HD 
HETATM   29  H1  UNL     1      -5.527  16.070  67.588  1.00  0.00     0.000 HD 
HETATM   30  C   UNL     1      -5.497  10.763  67.053  1.00  0.00    -0.048 A  
HETATM   31  N   UNL     1      -5.389  12.038  66.746  1.00  0.00    -0.314 NA 
HETATM   32  C   UNL     1      -5.529  12.704  67.952  1.00  0.00    -0.099 A  
HETATM   33  C   UNL     1      -5.572  14.065  68.286  1.00  0.00    -0.112 A  
HETATM   34  N   UNL     1      -5.495  15.080  67.344  1.00  0.00    -0.326 NA 
HETATM   35  N   UNL     1      -5.699  14.405  69.592  1.00  0.00    -0.095 NA 
HETATM   36  C   UNL     1      -5.823  13.417  70.506  1.00  0.00    -0.159 A  
ENDBRANCH  24  25
ENDBRANCH  23  24
ENDBRANCH  22  23
ENDBRANCH  11  22
ENDBRANCH   8   9
ENDBRANCH   7   8
ENDBRANCH   5   7
ENDBRANCH   2   5
TORSDOF 12
ENDMDL
MODEL      181
REMARK 921   NORMALIZED FREE ENERGY PREDICTED BY IDOCK:   -4.39 KCAL/MOL
REMARK 922        TOTAL FREE ENERGY PREDICTED BY IDOCK:   -9.07 KCAL/MOL
REMARK 923 INTER-LIGAND FREE ENERGY PREDICTED BY IDOCK:   -7.50 KCAL/MOL
REMARK 924 INTRA-LIGAND FREE ENERGY PREDICTED BY IDOCK:   -1.57 KCAL/MOL
REMARK 927      BINDING AFFINITY PREDICTED BY RF-SCORE:    0.00 PKD
ROOT
HETATM    1  C   UNL     1     -13.503   7.457  71.701  1.00  0.00    -0.437 C  
HETATM    2  C   UNL     1     -12.131   8.125  71.487  1.00  0.00    -0.332 C  
HETATM    3  C   UNL     1     -12.349   9.625  71.261  1.00  0.00    -0.449 C  
HETATM    4  C   UNL     1     -11.286   7.906  72.752  1.00  0.00    -0.466 C  
ENDROOT
BRANCH   2   5
HETATM    5  C   UNL     1     -11.438   7.458  70.288  1.00  0.00    -0.181 C  
HETATM    6  O   UNL     1     -11.559   6.267  70.017  1.00  0.00    -0.425 OA 
BRANCH   5   7
HETATM    7  O   UNL     1     -10.599   8.301  69.621  1.00  0.00    -0.227 OA 
BRANCH   7   8
HETATM    8  C   UNL     1     -10.500   8.042  68.208  1.00  0.00    -0.161 C  
BRANCH   8   9
HETATM    9  O   UNL     1     -10.701   9.197  67.398  1.00  0.00    -0.277 OA 
HETATM   10  P   UNL     1      -9.451  10.239  67.358  1.00  0.00    -0.156 P  
HETATM   11  C   UNL     1      -8.096   9.310  66.601  1.00  0.00    -0.108 C  
HETATM   12  O   UNL     1      -9.146  10.866  68.680  1.00  0.00    -0.162 OA 
HETATM   13  O   UNL     1      -9.759  11.256  66.149  1.00  0.00    -0.206 OA 
BRANCH  13  14
HETATM   14  C   UNL     1     -10.683  12.302  66.237  1.00  0.00    -0.259 C  
BRANCH  14  15
HETATM   15  O   UNL     1      -9.977  13.551  66.427  1.00  0.00    -0.280 OA 
BRANCH  15  16
HETATM   16  C   UNL     1     -10.742  14.679  66.379  1.00  0.00    -0.309 C  
HETATM   17  O   UNL     1     -11.418  15.007  65.411  1.00  0.00    -0.343 OA 
BRANCH  16  18
HETATM   18  C   UNL     1     -10.654  15.504  67.681  1.00  0.00    -0.291 C  
HETATM   19  C   UNL     1     -10.576  17.005  67.336  1.00  0.00    -0.289 C  
HETATM   20  C   UNL     1      -9.393  15.124  68.468  1.00  0.00    -0.192 C  
HETATM   21  C   UNL     1     -11.898  15.281  68.554  1.00  0.00    -0.305 C  
ENDBRANCH  16  18
ENDBRANCH  15  16
ENDBRANCH  14  15
ENDBRANCH  13  14
BRANCH  11  22
HETATM   22  O   UNL     1      -8.613   8.898  65.334  1.00  0.00    -0.156 OA 
BRANCH  22  23
HETATM   23  C   UNL     1      -8.215   7.591  64.974  1.00  0.00    -0.103 C  
BRANCH  23  24
HETATM   24  C   UNL     1      -7.665   6.896  66.212  1.00  0.00    -0.094 C  
BRANCH  24  25
HETATM   25  N   UNL     1      -8.413   5.696  66.482  1.00  0.00    -0.113 NA 
HETATM   26  C   UNL     1      -8.506   5.094  67.700  1.00  0.00    -0.105 A  
HETATM   27  N   UNL     1      -8.094   5.572  68.886  1.00  0.00    -0.095 NA 
HETATM   28  H2  UNL     1      -9.068   1.210  67.699  1.00  0.00     0.000 HD 
HETATM   29  H1  UNL     1      -9.723   1.038  69.197  1.00  0.00     0.000 HD 
HETATM   30  C   UNL     1      -8.950   4.852  65.548  1.00  0.00    -0.149 A  
HETATM   31  N   UNL     1      -9.348   3.721  66.091  1.00  0.00    -0.168 NA 
HETATM   32  C   UNL     1      -9.049   3.851  67.436  1.00  0.00    -0.156 A  
HETATM   33  C   UNL     1      -9.166   2.974  68.524  1.00  0.00    -0.174 A  
HETATM   34  N   UNL     1      -9.637   1.676  68.405  1.00  0.00    -0.183 NA 
HETATM   35  N   UNL     1      -8.799   3.417  69.752  1.00  0.00    -0.082 NA 
HETATM   36  C   UNL     1      -8.295   4.666  69.862  1.00  0.00    -0.067 A  
ENDBRANCH  24  25
ENDBRANCH  23  24
ENDBRANCH  22  23
ENDBRANCH  11  22
ENDBRANCH   8   9
ENDBRANCH   7   8
ENDBRANCH   5   7
ENDBRANCH   2   5
TORSDOF 12
ENDMDL
MODEL      182
REMARK 921   NORMALIZED FREE ENERGY PREDICTED BY IDOCK:   -4.39 KCAL/MOL
REMARK 922        TOTAL FREE ENERGY PREDICTED BY IDOCK:   -9.07 KCAL/MOL
REMARK 923 INTER-LIGAND FREE ENERGY PREDICTED BY IDOCK:   -7.14 KCAL/MOL
REMARK 924 INTRA-LIGAND FREE ENERGY PREDICTED BY IDOCK:   -1.93 KCAL/MOL
REMARK 927      BINDING AFFINITY PREDICTED BY RF-SCORE:    0.00 PKD
ROOT
HETATM    1  C   UNL     1     -13.718   7.850  71.721  1.00  0.00    -0.417 C  
HETATM    2  C   UNL     1     -12.237   8.075  71.360  1.00  0.00    -0.335 C  
HETATM    3  C   UNL     1     -11.380   7.738  72.587  1.00  0.00    -0.449 C  
HETATM    4  C   UNL     1     -11.874   7.138  70.198  1.00  0.00    -0.110 C  
ENDROOT
BRANCH   2   5
HETATM    5  C   UNL     1     -12.053   9.535  70.916  1.00  0.00    -0.278 C  
HETATM    6  O   UNL     1     -12.534  10.489  71.521  1.00  0.00    -0.380 OA 
BRANCH   5   7
HETATM    7  O   UNL     1     -11.389   9.653  69.732  1.00  0.00    -0.213 OA 
BRANCH   7   8
HETATM    8  C   UNL     1     -11.757  10.809  68.957  1.00  0.00    -0.286 C  
BRANCH   8   9
HETATM    9  O   UNL     1     -11.289  10.772  67.612  1.00  0.00    -0.392 OA 
HETATM   10  P   UNL     1     -10.944  12.224  66.961  1.00  0.00    -0.301 P  
HETATM   11  C   UNL     1      -9.583  12.871  67.961  1.00  0.00    -0.221 C  
HETATM   12  O   UNL     1     -12.131  13.122  66.825  1.00  0.00    -0.382 OA 
HETATM   13  O   UNL     1     -10.131  11.920  65.605  1.00  0.00    -0.229 OA 
BRANCH  13  14
HETATM   14  C   UNL     1     -10.738  11.486  64.422  1.00  0.00    -0.344 C  
BRANCH  14  15
HETATM   15  O   UNL     1     -10.085  10.278  63.963  1.00  0.00    -0.263 OA 
BRANCH  15  16
HETATM   16  C   UNL     1      -8.988  10.461  63.174  1.00  0.00    -0.239 C  
HETATM   17  O   UNL     1      -8.887  11.352  62.338  1.00  0.00    -0.301 OA 
BRANCH  16  18
HETATM   18  C   UNL     1      -7.890   9.409  63.442  1.00  0.00    -0.132 C  
HETATM   19  C   UNL     1      -6.505  10.087  63.401  1.00  0.00    -0.136 C  
HETATM   20  C   UNL     1      -7.923   8.318  62.365  1.00  0.00    -0.156 C  
HETATM   21  C   UNL     1      -8.068   8.776  64.830  1.00  0.00    -0.151 C  
ENDBRANCH  16  18
ENDBRANCH  15  16
ENDBRANCH  14  15
ENDBRANCH  13  14
BRANCH  11  22
HETATM   22  O   UNL     1      -8.562  11.876  67.858  1.00  0.00    -0.147 OA 
BRANCH  22  23
HETATM   23  C   UNL     1      -8.175  11.349  69.110  1.00  0.00     0.108 C  
BRANCH  23  24
HETATM   24  C   UNL     1      -7.203  10.202  68.871  1.00  0.00    -0.079 C  
BRANCH  24  25
HETATM   25  N   UNL     1      -7.825   8.946  69.197  1.00  0.00    -0.092 NA 
HETATM   26  C   UNL     1      -7.825   8.374  70.433  1.00  0.00    -0.090 A  
HETATM   27  N   UNL     1      -7.426   8.924  71.592  1.00  0.00    -0.289 NA 
HETATM   28  H2  UNL     1      -8.017   4.456  70.553  1.00  0.00     0.000 HD 
HETATM   29  H1  UNL     1      -8.609   4.268  72.075  1.00  0.00     0.000 HD 
HETATM   30  C   UNL     1      -8.308   8.028  68.304  1.00  0.00    -0.123 A  
HETATM   31  N   UNL     1      -8.580   6.881  68.888  1.00  0.00    -0.131 NA 
HETATM   32  C   UNL     1      -8.256   7.078  70.220  1.00  0.00    -0.128 A  
HETATM   33  C   UNL     1      -8.258   6.227  71.334  1.00  0.00    -0.122 A  
HETATM   34  N   UNL     1      -8.607   4.887  71.264  1.00  0.00    -0.121 NA 
HETATM   35  N   UNL     1      -7.898   6.738  72.537  1.00  0.00    -0.100 NA 
HETATM   36  C   UNL     1      -7.511   8.032  72.598  1.00  0.00    -0.113 A  
ENDBRANCH  24  25
ENDBRANCH  23  24
ENDBRANCH  22  23
ENDBRANCH  11  22
ENDBRANCH   8   9
ENDBRANCH   7   8
ENDBRANCH   5   7
ENDBRANCH   2   5
TORSDOF 12
ENDMDL
MODEL      183
REMARK 921   NORMALIZED FREE ENERGY PREDICTED BY IDOCK:   -4.39 KCAL/MOL
REMARK 922        TOTAL FREE ENERGY PREDICTED BY IDOCK:   -9.07 KCAL/MOL
REMARK 923 INTER-LIGAND FREE ENERGY PREDICTED BY IDOCK:   -7.83 KCAL/MOL
REMARK 924 INTRA-LIGAND FREE ENERGY PREDICTED BY IDOCK:   -1.24 KCAL/MOL
REMARK 927      BINDING AFFINITY PREDICTED BY RF-SCORE:    0.00 PKD
ROOT
HETATM    1  C   UNL     1      -9.650  11.716  62.870  1.00  0.00    -0.223 C  
HETATM    2  C   UNL     1     -10.309  12.017  64.230  1.00  0.00    -0.357 C  
HETATM    3  C   UNL     1     -10.156  13.514  64.525  1.00  0.00    -0.179 C  
HETATM    4  C   UNL     1     -11.800  11.656  64.136  1.00  0.00    -0.264 C  
ENDROOT
BRANCH   2   5
HETATM    5  C   UNL     1      -9.640  11.149  65.307  1.00  0.00    -0.230 C  
HETATM    6  O   UNL     1      -8.456  10.829  65.274  1.00  0.00    -0.171 OA 
BRANCH   5   7
HETATM    7  O   UNL     1     -10.518  10.690  66.244  1.00  0.00    -0.243 OA 
BRANCH   7   8
HETATM    8  C   UNL     1      -9.959  10.552  67.564  1.00  0.00    -0.172 C  
BRANCH   8   9
HETATM    9  O   UNL     1     -10.109  11.714  68.375  1.00  0.00    -0.195 OA 
HETATM   10  P   UNL     1     -11.648  12.154  68.674  1.00  0.00    -0.343 P  
HETATM   11  C   UNL     1     -12.351  10.777  69.613  1.00  0.00    -0.192 C  
HETATM   12  O   UNL     1     -12.408  12.557  67.452  1.00  0.00    -0.338 OA 
HETATM   13  O   UNL     1     -11.576  13.247  69.853  1.00  0.00    -0.264 OA 
BRANCH  13  14
HETATM   14  C   UNL     1     -11.191  14.576  69.651  1.00  0.00    -0.253 C  
BRANCH  14  15
HETATM   15  O   UNL     1     -10.549  14.698  68.360  1.00  0.00    -0.232 OA 
BRANCH  15  16
HETATM   16  C   UNL     1      -9.306  15.257  68.365  1.00  0.00    -0.194 C  
HETATM   17  O   UNL     1      -8.368  14.833  69.031  1.00  0.00    -0.168 OA 
BRANCH  16  18
HETATM   18  C   UNL     1      -9.213  16.493  67.445  1.00  0.00    -0.220 C  
HETATM   19  C   UNL     1     -10.502  16.608  66.605  1.00  0.00    -0.258 C  
HETATM   20  C   UNL     1      -8.025  16.355  66.486  1.00  0.00    -0.342 C  
HETATM   21  C   UNL     1      -9.069  17.779  68.271  1.00  0.00    -0.281 C  
ENDBRANCH  16  18
ENDBRANCH  15  16
ENDBRANCH  14  15
ENDBRANCH  13  14
BRANCH  11  22
HETATM   22  O   UNL     1     -11.498  10.654  70.754  1.00  0.00    -0.327 OA 
BRANCH  22  23
HETATM   23  C   UNL     1     -11.495   9.353  71.304  1.00  0.00    -0.363 C  
BRANCH  23  24
HETATM   24  C   UNL     1     -10.055   8.955  71.594  1.00  0.00    -0.341 C  
BRANCH  24  25
HETATM   25  N   UNL     1      -9.845   7.570  71.263  1.00  0.00    -0.179 NA 
HETATM   26  C   UNL     1     -10.080   6.524  72.104  1.00  0.00    -0.179 A  
HETATM   27  N   UNL     1     -10.703   6.551  73.293  1.00  0.00    -0.271 NA 
HETATM   28  H2  UNL     1      -7.883   3.316  71.569  1.00  0.00     0.000 HD 
HETATM   29  H1  UNL     1      -8.866   2.204  72.277  1.00  0.00     0.000 HD 
HETATM   30  C   UNL     1      -9.177   7.093  70.168  1.00  0.00    -0.155 A  
HETATM   31  N   UNL     1      -8.931   5.805  70.274  1.00  0.00    -0.140 NA 
HETATM   32  C   UNL     1      -9.469   5.442  71.497  1.00  0.00    -0.149 A  
HETATM   33  C   UNL     1      -9.479   4.236  72.211  1.00  0.00    -0.132 A  
HETATM   34  N   UNL     1      -8.858   3.082  71.758  1.00  0.00    -0.074 NA 
HETATM   35  N   UNL     1     -10.126   4.196  73.401  1.00  0.00    -0.133 NA 
HETATM   36  C   UNL     1     -10.691   5.332  73.866  1.00  0.00    -0.272 A  
ENDBRANCH  24  25
ENDBRANCH  23  24
ENDBRANCH  22  23
ENDBRANCH  11  22
ENDBRANCH   8   9
ENDBRANCH   7   8
ENDBRANCH   5   7
ENDBRANCH   2   5
TORSDOF 12
ENDMDL
MODEL      184
REMARK 921   NORMALIZED FREE ENERGY PREDICTED BY IDOCK:   -4.39 KCAL/MOL
REMARK 922        TOTAL FREE ENERGY PREDICTED BY IDOCK:   -9.06 KCAL/MOL
REMARK 923 INTER-LIGAND FREE ENERGY PREDICTED BY IDOCK:   -7.37 KCAL/MOL
REMARK 924 INTRA-LIGAND FREE ENERGY PREDICTED BY IDOCK:   -1.70 KCAL/MOL
REMARK 927      BINDING AFFINITY PREDICTED BY RF-SCORE:    0.00 PKD
ROOT
HETATM    1  C   UNL     1     -12.996   7.302  71.592  1.00  0.00    -0.417 C  
HETATM    2  C   UNL     1     -11.817   8.285  71.447  1.00  0.00    -0.330 C  
HETATM    3  C   UNL     1     -12.371   9.714  71.460  1.00  0.00    -0.477 C  
HETATM    4  C   UNL     1     -10.870   8.082  72.640  1.00  0.00    -0.436 C  
ENDROOT
BRANCH   2   5
HETATM    5  C   UNL     1     -11.070   7.970  70.142  1.00  0.00    -0.191 C  
HETATM    6  O   UNL     1     -10.818   6.828  69.768  1.00  0.00    -0.238 OA 
BRANCH   5   7
HETATM    7  O   UNL     1     -10.629   9.087  69.497  1.00  0.00    -0.223 OA 
BRANCH   7   8
HETATM    8  C   UNL     1     -10.324   8.887  68.104  1.00  0.00    -0.212 C  
BRANCH   8   9
HETATM    9  O   UNL     1     -10.932   9.844  67.240  1.00  0.00    -0.251 OA 
HETATM   10  P   UNL     1     -10.110  11.239  67.068  1.00  0.00    -0.219 P  
HETATM   11  C   UNL     1      -8.547  10.765  66.292  1.00  0.00    -0.162 C  
HETATM   12  O   UNL     1      -9.991  12.029  68.331  1.00  0.00    -0.206 OA 
HETATM   13  O   UNL     1     -10.785  12.001  65.821  1.00  0.00    -0.261 OA 
BRANCH  13  14
HETATM   14  C   UNL     1     -12.005  12.679  65.900  1.00  0.00    -0.438 C  
BRANCH  14  15
HETATM   15  O   UNL     1     -11.781  14.095  65.701  1.00  0.00    -0.338 OA 
BRANCH  15  16
HETATM   16  C   UNL     1     -11.477  14.811  66.821  1.00  0.00    -0.338 C  
HETATM   17  O   UNL     1     -12.005  14.630  67.913  1.00  0.00    -0.337 OA 
BRANCH  16  18
HETATM   18  C   UNL     1     -10.399  15.884  66.558  1.00  0.00    -0.304 C  
HETATM   19  C   UNL     1     -10.445  16.947  67.675  1.00  0.00    -0.332 C  
HETATM   20  C   UNL     1     -10.659  16.583  65.218  1.00  0.00    -0.273 C  
HETATM   21  C   UNL     1      -8.996  15.259  66.556  1.00  0.00    -0.340 C  
ENDBRANCH  16  18
ENDBRANCH  15  16
ENDBRANCH  14  15
ENDBRANCH  13  14
BRANCH  11  22
HETATM   22  O   UNL     1      -8.936  10.110  65.082  1.00  0.00    -0.166 OA 
BRANCH  22  23
HETATM   23  C   UNL     1      -8.562   8.748  65.046  1.00  0.00    -0.169 C  
BRANCH  23  24
HETATM   24  C   UNL     1      -7.243   8.591  65.791  1.00  0.00    -0.076 C  
BRANCH  24  25
HETATM   25  N   UNL     1      -7.311   7.472  66.693  1.00  0.00    -0.089 NA 
HETATM   26  C   UNL     1      -7.054   7.532  68.030  1.00  0.00    -0.084 A  
HETATM   27  N   UNL     1      -6.875   8.630  68.783  1.00  0.00    -0.061 NA 
HETATM   28  H2  UNL     1      -5.683   4.257  69.702  1.00  0.00     0.000 HD 
HETATM   29  H1  UNL     1      -6.115   4.557  71.260  1.00  0.00     0.000 HD 
HETATM   30  C   UNL     1      -7.415   6.154  66.339  1.00  0.00    -0.086 A  
HETATM   31  N   UNL     1      -7.198   5.359  67.365  1.00  0.00    -0.074 NA 
HETATM   32  C   UNL     1      -6.944   6.212  68.426  1.00  0.00    -0.080 A  
HETATM   33  C   UNL     1      -6.583   5.987  69.761  1.00  0.00    -0.047 A  
HETATM   34  N   UNL     1      -6.377   4.721  70.288  1.00  0.00    -0.025 NA 
HETATM   35  N   UNL     1      -6.424   7.058  70.576  1.00  0.00    -0.046 NA 
HETATM   36  C   UNL     1      -6.577   8.295  70.053  1.00  0.00    -0.039 A  
ENDBRANCH  24  25
ENDBRANCH  23  24
ENDBRANCH  22  23
ENDBRANCH  11  22
ENDBRANCH   8   9
ENDBRANCH   7   8
ENDBRANCH   5   7
ENDBRANCH   2   5
TORSDOF 12
ENDMDL
MODEL      185
REMARK 921   NORMALIZED FREE ENERGY PREDICTED BY IDOCK:   -4.37 KCAL/MOL
REMARK 922        TOTAL FREE ENERGY PREDICTED BY IDOCK:   -9.03 KCAL/MOL
REMARK 923 INTER-LIGAND FREE ENERGY PREDICTED BY IDOCK:   -8.14 KCAL/MOL
REMARK 924 INTRA-LIGAND FREE ENERGY PREDICTED BY IDOCK:   -0.89 KCAL/MOL
REMARK 927      BINDING AFFINITY PREDICTED BY RF-SCORE:    0.00 PKD
ROOT
HETATM    1  C   UNL     1     -11.741   8.334  72.399  1.00  0.00    -0.463 C  
HETATM    2  C   UNL     1     -10.671   7.228  72.484  1.00  0.00    -0.301 C  
HETATM    3  C   UNL     1     -10.498   6.829  73.954  1.00  0.00    -0.356 C  
HETATM    4  C   UNL     1     -11.161   6.019  71.671  1.00  0.00    -0.333 C  
ENDROOT
BRANCH   2   5
HETATM    5  C   UNL     1      -9.363   7.758  71.875  1.00  0.00    -0.153 C  
HETATM    6  O   UNL     1      -8.264   7.260  72.102  1.00  0.00    -0.100 OA 
BRANCH   5   7
HETATM    7  O   UNL     1      -9.538   8.893  71.141  1.00  0.00    -0.221 OA 
BRANCH   7   8
HETATM    8  C   UNL     1      -9.542   8.683  69.716  1.00  0.00    -0.171 C  
BRANCH   8   9
HETATM    9  O   UNL     1      -8.531   7.786  69.264  1.00  0.00    -0.134 OA 
HETATM   10  P   UNL     1      -9.010   6.720  68.132  1.00  0.00    -0.114 P  
HETATM   11  C   UNL     1      -9.473   7.731  66.706  1.00  0.00    -0.197 C  
HETATM   12  O   UNL     1     -10.052   5.760  68.609  1.00  0.00    -0.150 OA 
HETATM   13  O   UNL     1      -7.664   6.063  67.543  1.00  0.00    -0.095 OA 
BRANCH  13  14
HETATM   14  C   UNL     1      -6.925   5.084  68.214  1.00  0.00    -0.061 C  
BRANCH  14  15
HETATM   15  O   UNL     1      -7.029   3.830  67.499  1.00  0.00    -0.053 OA 
BRANCH  15  16
HETATM   16  C   UNL     1      -7.472   3.915  66.212  1.00  0.00    -0.084 C  
HETATM   17  O   UNL     1      -6.893   4.537  65.329  1.00  0.00    -0.054 OA 
BRANCH  16  18
HETATM   18  C   UNL     1      -8.794   3.148  65.995  1.00  0.00    -0.140 C  
HETATM   19  C   UNL     1      -9.895   4.132  65.550  1.00  0.00    -0.210 C  
HETATM   20  C   UNL     1      -9.244   2.481  67.300  1.00  0.00    -0.163 C  
HETATM   21  C   UNL     1      -8.634   2.086  64.896  1.00  0.00    -0.099 C  
ENDBRANCH  16  18
ENDBRANCH  15  16
ENDBRANCH  14  15
ENDBRANCH  13  14
BRANCH  11  22
HETATM   22  O   UNL     1      -8.294   8.482  66.406  1.00  0.00    -0.108 OA 
BRANCH  22  23
HETATM   23  C   UNL     1      -8.568   9.701  65.746  1.00  0.00    -0.136 C  
BRANCH  23  24
HETATM   24  C   UNL     1     -10.077   9.847  65.612  1.00  0.00    -0.237 C  
BRANCH  24  25
HETATM   25  N   UNL     1     -10.402  11.109  64.999  1.00  0.00    -0.287 NA 
HETATM   26  C   UNL     1     -11.034  12.140  65.626  1.00  0.00    -0.295 A  
HETATM   27  N   UNL     1     -11.305  12.261  66.936  1.00  0.00    -0.312 NA 
HETATM   28  H2  UNL     1     -13.189  14.513  63.363  1.00  0.00     0.000 HD 
HETATM   29  H1  UNL     1     -13.206  15.848  64.323  1.00  0.00     0.000 HD 
HETATM   30  C   UNL     1     -10.343  11.396  63.662  1.00  0.00    -0.410 A  
HETATM   31  N   UNL     1     -10.939  12.536  63.386  1.00  0.00    -0.420 NA 
HETATM   32  C   UNL     1     -11.400  12.998  64.607  1.00  0.00    -0.327 A  
HETATM   33  C   UNL     1     -12.162  14.117  64.973  1.00  0.00    -0.441 A  
HETATM   34  N   UNL     1     -12.652  15.034  64.056  1.00  0.00    -0.754 NA 
HETATM   35  N   UNL     1     -12.436  14.309  66.287  1.00  0.00    -0.399 NA 
HETATM   36  C   UNL     1     -12.000  13.389  67.177  1.00  0.00    -0.366 A  
ENDBRANCH  24  25
ENDBRANCH  23  24
ENDBRANCH  22  23
ENDBRANCH  11  22
ENDBRANCH   8   9
ENDBRANCH   7   8
ENDBRANCH   5   7
ENDBRANCH   2   5
TORSDOF 12
ENDMDL
MODEL      186
REMARK 921   NORMALIZED FREE ENERGY PREDICTED BY IDOCK:   -4.36 KCAL/MOL
REMARK 922        TOTAL FREE ENERGY PREDICTED BY IDOCK:   -9.02 KCAL/MOL
REMARK 923 INTER-LIGAND FREE ENERGY PREDICTED BY IDOCK:   -7.22 KCAL/MOL
REMARK 924 INTRA-LIGAND FREE ENERGY PREDICTED BY IDOCK:   -1.80 KCAL/MOL
REMARK 927      BINDING AFFINITY PREDICTED BY RF-SCORE:    0.00 PKD
ROOT
HETATM    1  C   UNL     1     -10.212  12.246  63.427  1.00  0.00    -0.360 C  
HETATM    2  C   UNL     1     -11.437  12.628  64.279  1.00  0.00    -0.420 C  
HETATM    3  C   UNL     1     -11.568  14.156  64.287  1.00  0.00    -0.327 C  
HETATM    4  C   UNL     1     -12.686  12.002  63.639  1.00  0.00    -0.550 C  
ENDROOT
BRANCH   2   5
HETATM    5  C   UNL     1     -11.250  12.062  65.696  1.00  0.00    -0.327 C  
HETATM    6  O   UNL     1     -12.046  12.257  66.610  1.00  0.00    -0.612 OA 
BRANCH   5   7
HETATM    7  O   UNL     1     -10.065  11.408  65.856  1.00  0.00    -0.225 OA 
BRANCH   7   8
HETATM    8  C   UNL     1     -10.193  10.058  66.342  1.00  0.00    -0.221 C  
BRANCH   8   9
HETATM    9  O   UNL     1      -9.429   9.796  67.516  1.00  0.00    -0.145 OA 
HETATM   10  P   UNL     1     -10.244   9.068  68.722  1.00  0.00    -0.206 P  
HETATM   11  C   UNL     1     -10.726   7.459  68.053  1.00  0.00    -0.127 C  
HETATM   12  O   UNL     1     -11.357   9.894  69.283  1.00  0.00    -0.177 OA 
HETATM   13  O   UNL     1      -9.132   8.575  69.776  1.00  0.00    -0.149 OA 
BRANCH  13  14
HETATM   14  C   UNL     1      -8.484   9.431  70.672  1.00  0.00    -0.193 C  
BRANCH  14  15
HETATM   15  O   UNL     1      -8.367   8.778  71.959  1.00  0.00    -0.324 OA 
BRANCH  15  16
HETATM   16  C   UNL     1      -7.248   8.021  72.140  1.00  0.00    -0.085 C  
HETATM   17  O   UNL     1      -6.376   7.873  71.291  1.00  0.00    -0.034 OA 
BRANCH  16  18
HETATM   18  C   UNL     1      -7.205   7.360  73.535  1.00  0.00    -0.096 C  
HETATM   19  C   UNL     1      -8.266   8.010  74.446  1.00  0.00    -0.284 C  
HETATM   20  C   UNL     1      -5.828   7.564  74.179  1.00  0.00    -0.071 C  
HETATM   21  C   UNL     1      -7.517   5.860  73.438  1.00  0.00    -0.094 C  
ENDBRANCH  16  18
ENDBRANCH  15  16
ENDBRANCH  14  15
ENDBRANCH  13  14
BRANCH  11  22
HETATM   22  O   UNL     1      -9.491   6.849  67.670  1.00  0.00    -0.124 OA 
BRANCH  22  23
HETATM   23  C   UNL     1      -9.448   5.465  67.945  1.00  0.00    -0.120 C  
BRANCH  23  24
HETATM   24  C   UNL     1      -8.556   5.242  69.159  1.00  0.00    -0.101 C  
BRANCH  24  25
HETATM   25  N   UNL     1      -9.192   4.342  70.084  1.00  0.00    -0.119 NA 
HETATM   26  C   UNL     1      -9.983   4.725  71.125  1.00  0.00    -0.202 A  
HETATM   27  N   UNL     1     -10.465   5.952  71.381  1.00  0.00    -0.227 NA 
HETATM   28  H2  UNL     1     -10.059   2.342  74.242  1.00  0.00     0.000 HD 
HETATM   29  H1  UNL     1     -11.499   2.802  74.890  1.00  0.00     0.000 HD 
HETATM   30  C   UNL     1      -8.933   3.004  70.218  1.00  0.00    -0.098 A  
HETATM   31  N   UNL     1      -9.480   2.512  71.309  1.00  0.00    -0.140 NA 
HETATM   32  C   UNL     1     -10.118   3.589  71.900  1.00  0.00    -0.098 A  
HETATM   33  C   UNL     1     -10.820   3.732  73.105  1.00  0.00    -0.161 A  
HETATM   34  N   UNL     1     -10.987   2.698  74.013  1.00  0.00    -0.183 NA 
HETATM   35  N   UNL     1     -11.360   4.940  73.398  1.00  0.00    -0.338 NA 
HETATM   36  C   UNL     1     -11.157   5.962  72.536  1.00  0.00    -0.283 A  
ENDBRANCH  24  25
ENDBRANCH  23  24
ENDBRANCH  22  23
ENDBRANCH  11  22
ENDBRANCH   8   9
ENDBRANCH   7   8
ENDBRANCH   5   7
ENDBRANCH   2   5
TORSDOF 12
ENDMDL
MODEL      187
REMARK 921   NORMALIZED FREE ENERGY PREDICTED BY IDOCK:   -4.35 KCAL/MOL
REMARK 922        TOTAL FREE ENERGY PREDICTED BY IDOCK:   -8.99 KCAL/MOL
REMARK 923 INTER-LIGAND FREE ENERGY PREDICTED BY IDOCK:   -8.13 KCAL/MOL
REMARK 924 INTRA-LIGAND FREE ENERGY PREDICTED BY IDOCK:   -0.86 KCAL/MOL
REMARK 927      BINDING AFFINITY PREDICTED BY RF-SCORE:    0.00 PKD
ROOT
HETATM    1  C   UNL     1      -5.332  20.004  68.017  1.00  0.00    -0.207 C  
HETATM    2  C   UNL     1      -6.241  20.320  66.814  1.00  0.00    -0.218 C  
HETATM    3  C   UNL     1      -7.531  20.967  67.334  1.00  0.00    -0.339 C  
HETATM    4  C   UNL     1      -5.500  21.303  65.894  1.00  0.00    -0.254 C  
ENDROOT
BRANCH   2   5
HETATM    5  C   UNL     1      -6.521  19.017  66.049  1.00  0.00    -0.211 C  
HETATM    6  O   UNL     1      -6.759  18.980  64.845  1.00  0.00    -0.478 OA 
BRANCH   5   7
HETATM    7  O   UNL     1      -6.575  17.923  66.861  1.00  0.00    -0.166 OA 
BRANCH   7   8
HETATM    8  C   UNL     1      -5.669  16.866  66.494  1.00  0.00    -0.017 C  
BRANCH   8   9
HETATM    9  O   UNL     1      -5.785  15.703  67.309  1.00  0.00    -0.330 OA 
HETATM   10  P   UNL     1      -6.172  15.985  68.864  1.00  0.00    -0.140 P  
HETATM   11  C   UNL     1      -7.817  16.736  68.805  1.00  0.00    -0.243 C  
HETATM   12  O   UNL     1      -5.136  16.758  69.614  1.00  0.00    -0.136 OA 
HETATM   13  O   UNL     1      -6.576  14.557  69.488  1.00  0.00    -0.124 OA 
BRANCH  13  14
HETATM   14  C   UNL     1      -5.641  13.583  69.853  1.00  0.00    -0.108 C  
BRANCH  14  15
HETATM   15  O   UNL     1      -6.091  12.288  69.388  1.00  0.00    -0.089 OA 
BRANCH  15  16
HETATM   16  C   UNL     1      -6.118  12.119  68.036  1.00  0.00    -0.062 C  
HETATM   17  O   UNL     1      -5.231  12.500  67.281  1.00  0.00    -0.226 OA 
BRANCH  16  18
HETATM   18  C   UNL     1      -7.400  11.402  67.559  1.00  0.00    -0.112 C  
HETATM   19  C   UNL     1      -8.493  12.447  67.254  1.00  0.00    -0.183 C  
HETATM   20  C   UNL     1      -7.923  10.464  68.653  1.00  0.00    -0.115 C  
HETATM   21  C   UNL     1      -7.134  10.605  66.273  1.00  0.00    -0.137 C  
ENDBRANCH  16  18
ENDBRANCH  15  16
ENDBRANCH  14  15
ENDBRANCH  13  14
BRANCH  11  22
HETATM   22  O   UNL     1      -8.622  15.774  68.120  1.00  0.00    -0.161 OA 
BRANCH  22  23
HETATM   23  C   UNL     1      -9.940  16.224  67.883  1.00  0.00    -0.241 C  
BRANCH  23  24
HETATM   24  C   UNL     1     -10.871  15.019  67.903  1.00  0.00    -0.280 C  
BRANCH  24  25
HETATM   25  N   UNL     1     -11.521  14.915  69.183  1.00  0.00    -0.285 NA 
HETATM   26  C   UNL     1     -11.840  13.743  69.801  1.00  0.00    -0.331 A  
HETATM   27  N   UNL     1     -11.464  12.502  69.451  1.00  0.00    -0.275 NA 
HETATM   28  H2  UNL     1     -14.946  13.812  72.198  1.00  0.00     0.000 HD 
HETATM   29  H1  UNL     1     -14.585  12.510  73.135  1.00  0.00     0.000 HD 
HETATM   30  C   UNL     1     -12.121  15.935  69.871  1.00  0.00    -0.227 A  
HETATM   31  N   UNL     1     -12.843  15.483  70.874  1.00  0.00    -0.475 NA 
HETATM   32  C   UNL     1     -12.695  14.107  70.824  1.00  0.00    -0.344 A  
HETATM   33  C   UNL     1     -13.257  13.064  71.572  1.00  0.00    -0.272 A  
HETATM   34  N   UNL     1     -14.176  13.269  72.590  1.00  0.00    -0.618 NA 
HETATM   35  N   UNL     1     -12.886  11.792  71.286  1.00  0.00    -0.363 NA 
HETATM   36  C   UNL     1     -12.027  11.586  70.263  1.00  0.00    -0.368 A  
ENDBRANCH  24  25
ENDBRANCH  23  24
ENDBRANCH  22  23
ENDBRANCH  11  22
ENDBRANCH   8   9
ENDBRANCH   7   8
ENDBRANCH   5   7
ENDBRANCH   2   5
TORSDOF 12
ENDMDL
MODEL      188
REMARK 921   NORMALIZED FREE ENERGY PREDICTED BY IDOCK:   -4.34 KCAL/MOL
REMARK 922        TOTAL FREE ENERGY PREDICTED BY IDOCK:   -8.98 KCAL/MOL
REMARK 923 INTER-LIGAND FREE ENERGY PREDICTED BY IDOCK:   -7.60 KCAL/MOL
REMARK 924 INTRA-LIGAND FREE ENERGY PREDICTED BY IDOCK:   -1.39 KCAL/MOL
REMARK 927      BINDING AFFINITY PREDICTED BY RF-SCORE:    0.00 PKD
ROOT
HETATM    1  C   UNL     1     -11.469   5.276  72.748  1.00  0.00    -0.317 C  
HETATM    2  C   UNL     1     -10.125   4.528  72.844  1.00  0.00    -0.206 C  
HETATM    3  C   UNL     1      -9.375   5.030  74.084  1.00  0.00    -0.123 C  
HETATM    4  C   UNL     1     -10.416   3.026  72.984  1.00  0.00    -0.251 C  
ENDROOT
BRANCH   2   5
HETATM    5  C   UNL     1      -9.329   4.776  71.552  1.00  0.00    -0.147 C  
HETATM    6  O   UNL     1      -8.112   4.635  71.474  1.00  0.00    -0.097 OA 
BRANCH   5   7
HETATM    7  O   UNL     1     -10.097   5.263  70.537  1.00  0.00    -0.209 OA 
BRANCH   7   8
HETATM    8  C   UNL     1      -9.976   4.535  69.300  1.00  0.00    -0.122 C  
BRANCH   8   9
HETATM    9  O   UNL     1      -9.147   5.177  68.336  1.00  0.00    -0.108 OA 
HETATM   10  P   UNL     1      -9.932   5.786  67.046  1.00  0.00    -0.210 P  
HETATM   11  C   UNL     1     -11.017   7.065  67.724  1.00  0.00    -0.164 C  
HETATM   12  O   UNL     1     -10.603   4.750  66.203  1.00  0.00    -0.309 OA 
HETATM   13  O   UNL     1      -8.874   6.734  66.289  1.00  0.00    -0.140 OA 
BRANCH  13  14
HETATM   14  C   UNL     1      -7.840   6.247  65.484  1.00  0.00    -0.101 C  
BRANCH  14  15
HETATM   15  O   UNL     1      -7.295   7.332  64.695  1.00  0.00    -0.068 OA 
BRANCH  15  16
HETATM   16  C   UNL     1      -6.453   8.178  65.353  1.00  0.00    -0.048 C  
HETATM   17  O   UNL     1      -5.438   7.817  65.937  1.00  0.00    -0.028 OA 
BRANCH  16  18
HETATM   18  C   UNL     1      -6.928   9.646  65.288  1.00  0.00    -0.101 C  
HETATM   19  C   UNL     1      -5.704  10.584  65.271  1.00  0.00    -0.141 C  
HETATM   20  C   UNL     1      -7.778   9.985  66.519  1.00  0.00    -0.105 C  
HETATM   21  C   UNL     1      -7.740   9.902  64.010  1.00  0.00    -0.141 C  
ENDBRANCH  16  18
ENDBRANCH  15  16
ENDBRANCH  14  15
ENDBRANCH  13  14
BRANCH  11  22
HETATM   22  O   UNL     1     -10.130   7.959  68.402  1.00  0.00    -0.182 OA 
BRANCH  22  23
HETATM   23  C   UNL     1     -10.679   8.484  69.593  1.00  0.00    -0.197 C  
BRANCH  23  24
HETATM   24  C   UNL     1     -10.564  10.001  69.549  1.00  0.00    -0.244 C  
BRANCH  24  25
HETATM   25  N   UNL     1     -11.638  10.604  70.293  1.00  0.00    -0.312 NA 
HETATM   26  C   UNL     1     -11.952  11.929  70.274  1.00  0.00    -0.330 A  
HETATM   27  N   UNL     1     -11.468  12.876  69.452  1.00  0.00    -0.275 NA 
HETATM   28  H2  UNL     1     -13.619  13.386  73.515  1.00  0.00     0.000 HD 
HETATM   29  H1  UNL     1     -14.356  14.702  72.862  1.00  0.00     0.000 HD 
HETATM   30  C   UNL     1     -12.360  10.011  71.294  1.00  0.00    -0.398 A  
HETATM   31  N   UNL     1     -13.091  10.888  71.949  1.00  0.00    -0.487 NA 
HETATM   32  C   UNL     1     -12.822  12.100  71.334  1.00  0.00    -0.276 A  
HETATM   33  C   UNL     1     -13.234  13.413  71.603  1.00  0.00    -0.364 A  
HETATM   34  N   UNL     1     -14.057  13.747  72.667  1.00  0.00    -0.711 NA 
HETATM   35  N   UNL     1     -12.804  14.403  70.784  1.00  0.00    -0.351 NA 
HETATM   36  C   UNL     1     -11.963  14.086  69.774  1.00  0.00    -0.334 A  
ENDBRANCH  24  25
ENDBRANCH  23  24
ENDBRANCH  22  23
ENDBRANCH  11  22
ENDBRANCH   8   9
ENDBRANCH   7   8
ENDBRANCH   5   7
ENDBRANCH   2   5
TORSDOF 12
ENDMDL
MODEL      189
REMARK 921   NORMALIZED FREE ENERGY PREDICTED BY IDOCK:   -4.33 KCAL/MOL
REMARK 922        TOTAL FREE ENERGY PREDICTED BY IDOCK:   -8.97 KCAL/MOL
REMARK 923 INTER-LIGAND FREE ENERGY PREDICTED BY IDOCK:   -8.30 KCAL/MOL
REMARK 924 INTRA-LIGAND FREE ENERGY PREDICTED BY IDOCK:   -0.67 KCAL/MOL
REMARK 927      BINDING AFFINITY PREDICTED BY RF-SCORE:    0.00 PKD
ROOT
HETATM    1  C   UNL     1     -11.506   7.986  73.070  1.00  0.00    -0.177 C  
HETATM    2  C   UNL     1     -10.027   7.643  72.806  1.00  0.00    -0.298 C  
HETATM    3  C   UNL     1      -9.221   7.956  74.072  1.00  0.00    -0.054 C  
HETATM    4  C   UNL     1      -9.929   6.144  72.483  1.00  0.00    -0.188 C  
ENDROOT
BRANCH   2   5
HETATM    5  C   UNL     1      -9.538   8.460  71.599  1.00  0.00    -0.221 C  
HETATM    6  O   UNL     1      -8.399   8.906  71.505  1.00  0.00    -0.244 OA 
BRANCH   5   7
HETATM    7  O   UNL     1     -10.525   8.719  70.696  1.00  0.00    -0.194 OA 
BRANCH   7   8
HETATM    8  C   UNL     1     -10.810   7.630  69.798  1.00  0.00    -0.217 C  
BRANCH   8   9
HETATM    9  O   UNL     1      -9.780   7.388  68.844  1.00  0.00    -0.148 OA 
HETATM   10  P   UNL     1     -10.209   7.621  67.291  1.00  0.00    -0.326 P  
HETATM   11  C   UNL     1     -10.611   9.381  67.178  1.00  0.00    -0.224 C  
HETATM   12  O   UNL     1     -11.270   6.684  66.811  1.00  0.00    -0.333 OA 
HETATM   13  O   UNL     1      -8.838   7.626  66.448  1.00  0.00    -0.141 OA 
BRANCH  13  14
HETATM   14  C   UNL     1      -8.128   6.466  66.123  1.00  0.00    -0.117 C  
BRANCH  14  15
HETATM   15  O   UNL     1      -8.628   5.932  64.873  1.00  0.00    -0.127 OA 
BRANCH  15  16
HETATM   16  C   UNL     1      -8.992   4.619  64.893  1.00  0.00    -0.153 C  
HETATM   17  O   UNL     1      -9.933   4.179  65.544  1.00  0.00    -0.200 OA 
BRANCH  16  18
HETATM   18  C   UNL     1      -8.078   3.743  64.009  1.00  0.00    -0.089 C  
HETATM   19  C   UNL     1      -7.016   3.054  64.890  1.00  0.00    -0.049 C  
HETATM   20  C   UNL     1      -7.355   4.608  62.970  1.00  0.00    -0.048 C  
HETATM   21  C   UNL     1      -8.890   2.648  63.301  1.00  0.00    -0.085 C  
ENDBRANCH  16  18
ENDBRANCH  15  16
ENDBRANCH  14  15
ENDBRANCH  13  14
BRANCH  11  22
HETATM   22  O   UNL     1      -9.420  10.045  67.610  1.00  0.00    -0.143 OA 
BRANCH  22  23
HETATM   23  C   UNL     1      -9.605  11.430  67.821  1.00  0.00    -0.172 C  
BRANCH  23  24
HETATM   24  C   UNL     1      -8.751  12.189  66.815  1.00  0.00    -0.183 C  
BRANCH  24  25
HETATM   25  N   UNL     1      -9.417  13.399  66.410  1.00  0.00    -0.250 NA 
HETATM   26  C   UNL     1     -10.538  13.450  65.638  1.00  0.00    -0.282 A  
HETATM   27  N   UNL     1     -11.327  12.428  65.267  1.00  0.00    -0.321 NA 
HETATM   28  H2  UNL     1     -10.995  16.655  63.419  1.00  0.00     0.000 HD 
HETATM   29  H1  UNL     1     -12.624  16.596  63.205  1.00  0.00     0.000 HD 
HETATM   30  C   UNL     1      -8.925  14.670  66.531  1.00  0.00    -0.204 A  
HETATM   31  N   UNL     1      -9.644  15.534  65.846  1.00  0.00    -0.340 NA 
HETATM   32  C   UNL     1     -10.643  14.775  65.260  1.00  0.00    -0.395 A  
HETATM   33  C   UNL     1     -11.677  15.092  64.368  1.00  0.00    -0.295 A  
HETATM   34  N   UNL     1     -11.871  16.365  63.853  1.00  0.00    -0.948 NA 
HETATM   35  N   UNL     1     -12.526  14.107  63.987  1.00  0.00    -0.737 NA 
HETATM   36  C   UNL     1     -12.308  12.855  64.450  1.00  0.00    -0.398 A  
ENDBRANCH  24  25
ENDBRANCH  23  24
ENDBRANCH  22  23
ENDBRANCH  11  22
ENDBRANCH   8   9
ENDBRANCH   7   8
ENDBRANCH   5   7
ENDBRANCH   2   5
TORSDOF 12
ENDMDL
MODEL      190
REMARK 921   NORMALIZED FREE ENERGY PREDICTED BY IDOCK:   -4.33 KCAL/MOL
REMARK 922        TOTAL FREE ENERGY PREDICTED BY IDOCK:   -8.96 KCAL/MOL
REMARK 923 INTER-LIGAND FREE ENERGY PREDICTED BY IDOCK:   -7.38 KCAL/MOL
REMARK 924 INTRA-LIGAND FREE ENERGY PREDICTED BY IDOCK:   -1.58 KCAL/MOL
REMARK 927      BINDING AFFINITY PREDICTED BY RF-SCORE:    0.00 PKD
ROOT
HETATM    1  C   UNL     1      -8.812   8.758  62.435  1.00  0.00    -0.084 C  
HETATM    2  C   UNL     1      -8.325  10.075  63.069  1.00  0.00    -0.166 C  
HETATM    3  C   UNL     1      -6.828  10.232  62.777  1.00  0.00    -0.136 C  
HETATM    4  C   UNL     1      -9.105  11.235  62.431  1.00  0.00    -0.217 C  
ENDROOT
BRANCH   2   5
HETATM    5  C   UNL     1      -8.614  10.034  64.578  1.00  0.00    -0.187 C  
HETATM    6  O   UNL     1      -9.746  10.087  65.049  1.00  0.00    -0.289 OA 
BRANCH   5   7
HETATM    7  O   UNL     1      -7.483  10.034  65.338  1.00  0.00    -0.126 OA 
BRANCH   7   8
HETATM    8  C   UNL     1      -7.124   8.744  65.869  1.00  0.00    -0.084 C  
BRANCH   8   9
HETATM    9  O   UNL     1      -8.160   8.130  66.631  1.00  0.00    -0.100 OA 
HETATM   10  P   UNL     1      -7.698   7.546  68.079  1.00  0.00    -0.119 P  
HETATM   11  C   UNL     1      -7.162   8.997  69.017  1.00  0.00    -0.072 C  
HETATM   12  O   UNL     1      -6.706   6.431  67.992  1.00  0.00    -0.062 OA 
HETATM   13  O   UNL     1      -9.056   7.221  68.881  1.00  0.00    -0.134 OA 
BRANCH  13  14
HETATM   14  C   UNL     1      -9.848   6.097  68.632  1.00  0.00    -0.138 C  
BRANCH  14  15
HETATM   15  O   UNL     1     -10.943   6.062  69.579  1.00  0.00    -0.336 OA 
BRANCH  15  16
HETATM   16  C   UNL     1     -10.679   5.449  70.768  1.00  0.00    -0.182 C  
HETATM   17  O   UNL     1     -10.159   4.344  70.868  1.00  0.00    -0.198 OA 
BRANCH  16  18
HETATM   18  C   UNL     1     -11.120   6.301  71.978  1.00  0.00    -0.313 C  
HETATM   19  C   UNL     1     -10.062   7.388  72.257  1.00  0.00    -0.234 C  
HETATM   20  C   UNL     1     -11.249   5.422  73.229  1.00  0.00    -0.322 C  
HETATM   21  C   UNL     1     -12.457   7.002  71.694  1.00  0.00    -0.413 C  
ENDBRANCH  16  18
ENDBRANCH  15  16
ENDBRANCH  14  15
ENDBRANCH  13  14
BRANCH  11  22
HETATM   22  O   UNL     1      -8.303   9.859  69.019  1.00  0.00    -0.114 OA 
BRANCH  22  23
HETATM   23  C   UNL     1      -8.001  11.177  68.612  1.00  0.00    -0.145 C  
BRANCH  23  24
HETATM   24  C   UNL     1      -9.132  12.092  69.063  1.00  0.00     0.352 C  
BRANCH  24  25
HETATM   25  N   UNL     1     -10.121  12.208  68.023  1.00  0.00    -0.198 NA 
HETATM   26  C   UNL     1     -10.131  13.175  67.063  1.00  0.00    -0.241 A  
HETATM   27  N   UNL     1      -9.165  14.066  66.785  1.00  0.00    -0.268 NA 
HETATM   28  H2  UNL     1     -13.642  14.185  65.628  1.00  0.00     0.000 HD 
HETATM   29  H1  UNL     1     -13.165  14.816  64.187  1.00  0.00     0.000 HD 
HETATM   30  C   UNL     1     -11.309  11.533  67.959  1.00  0.00    -0.298 A  
HETATM   31  N   UNL     1     -12.103  12.036  67.038  1.00  0.00    -0.545 NA 
HETATM   32  C   UNL     1     -11.385  13.084  66.488  1.00  0.00    -0.320 A  
HETATM   33  C   UNL     1     -11.699  14.045  65.516  1.00  0.00    -0.350 A  
HETATM   34  N   UNL     1     -12.936  14.118  64.894  1.00  0.00    -0.683 NA 
HETATM   35  N   UNL     1     -10.749  14.947  65.170  1.00  0.00    -0.381 NA 
HETATM   36  C   UNL     1      -9.559  14.908  65.810  1.00  0.00    -0.276 A  
ENDBRANCH  24  25
ENDBRANCH  23  24
ENDBRANCH  22  23
ENDBRANCH  11  22
ENDBRANCH   8   9
ENDBRANCH   7   8
ENDBRANCH   5   7
ENDBRANCH   2   5
TORSDOF 12
ENDMDL
MODEL      191
REMARK 921   NORMALIZED FREE ENERGY PREDICTED BY IDOCK:   -4.30 KCAL/MOL
REMARK 922        TOTAL FREE ENERGY PREDICTED BY IDOCK:   -8.92 KCAL/MOL
REMARK 923 INTER-LIGAND FREE ENERGY PREDICTED BY IDOCK:   -8.28 KCAL/MOL
REMARK 924 INTRA-LIGAND FREE ENERGY PREDICTED BY IDOCK:   -0.64 KCAL/MOL
REMARK 927      BINDING AFFINITY PREDICTED BY RF-SCORE:    0.00 PKD
ROOT
HETATM    1  C   UNL     1      -5.127  10.896  66.100  1.00  0.00    -0.108 C  
HETATM    2  C   UNL     1      -6.370  10.931  67.011  1.00  0.00    -0.080 C  
HETATM    3  C   UNL     1      -6.513  12.344  67.587  1.00  0.00    -0.130 C  
HETATM    4  C   UNL     1      -7.602  10.588  66.159  1.00  0.00    -0.135 C  
ENDROOT
BRANCH   2   5
HETATM    5  C   UNL     1      -6.202   9.875  68.115  1.00  0.00    -0.054 C  
HETATM    6  O   UNL     1      -5.955   8.694  67.887  1.00  0.00    -0.045 OA 
BRANCH   5   7
HETATM    7  O   UNL     1      -6.454  10.363  69.362  1.00  0.00    -0.047 OA 
BRANCH   7   8
HETATM    8  C   UNL     1      -7.853  10.510  69.670  1.00  0.00    -0.086 C  
BRANCH   8   9
HETATM    9  O   UNL     1      -8.605   9.310  69.515  1.00  0.00    -0.130 OA 
HETATM   10  P   UNL     1      -9.983   9.241  70.379  1.00  0.00    -0.273 P  
HETATM   11  C   UNL     1     -11.010  10.578  69.724  1.00  0.00    -0.294 C  
HETATM   12  O   UNL     1      -9.769   9.256  71.858  1.00  0.00    -0.260 OA 
HETATM   13  O   UNL     1     -10.809   7.988  69.798  1.00  0.00    -0.245 OA 
BRANCH  13  14
HETATM   14  C   UNL     1     -10.504   6.657  70.098  1.00  0.00    -0.210 C  
BRANCH  14  15
HETATM   15  O   UNL     1      -9.429   6.206  69.240  1.00  0.00    -0.133 OA 
BRANCH  15  16
HETATM   16  C   UNL     1      -9.727   6.114  67.913  1.00  0.00    -0.116 C  
HETATM   17  O   UNL     1     -10.658   6.706  67.379  1.00  0.00    -0.220 OA 
BRANCH  16  18
HETATM   18  C   UNL     1      -8.765   5.172  67.158  1.00  0.00    -0.103 C  
HETATM   19  C   UNL     1      -8.987   3.721  67.632  1.00  0.00    -0.158 C  
HETATM   20  C   UNL     1      -7.309   5.555  67.447  1.00  0.00    -0.076 C  
HETATM   21  C   UNL     1      -9.026   5.223  65.646  1.00  0.00    -0.160 C  
ENDBRANCH  16  18
ENDBRANCH  15  16
ENDBRANCH  14  15
ENDBRANCH  13  14
BRANCH  11  22
HETATM   22  O   UNL     1     -11.125  10.286  68.329  1.00  0.00    -0.261 OA 
BRANCH  22  23
HETATM   23  C   UNL     1     -11.485  11.413  67.556  1.00  0.00    -0.260 C  
BRANCH  23  24
HETATM   24  C   UNL     1     -11.122  11.136  66.103  1.00  0.00    -0.085 C  
BRANCH  24  25
HETATM   25  N   UNL     1     -11.321  12.319  65.308  1.00  0.00    -0.328 NA 
HETATM   26  C   UNL     1     -10.655  13.495  65.481  1.00  0.00    -0.296 A  
HETATM   27  N   UNL     1      -9.593  13.729  66.269  1.00  0.00    -0.274 NA 
HETATM   28  H2  UNL     1     -12.559  16.760  64.425  1.00  0.00     0.000 HD 
HETATM   29  H1  UNL     1     -11.270  17.755  64.200  1.00  0.00     0.000 HD 
HETATM   30  C   UNL     1     -12.341  12.535  64.421  1.00  0.00    -0.455 A  
HETATM   31  N   UNL     1     -12.396  13.794  64.044  1.00  0.00    -0.679 NA 
HETATM   32  C   UNL     1     -11.360  14.412  64.724  1.00  0.00    -0.388 A  
HETATM   33  C   UNL     1     -10.936  15.746  64.800  1.00  0.00    -0.393 A  
HETATM   34  N   UNL     1     -11.579  16.785  64.145  1.00  0.00    -1.057 NA 
HETATM   35  N   UNL     1      -9.846  16.034  65.553  1.00  0.00    -0.451 NA 
HETATM   36  C   UNL     1      -9.247  15.030  66.231  1.00  0.00    -0.289 A  
ENDBRANCH  24  25
ENDBRANCH  23  24
ENDBRANCH  22  23
ENDBRANCH  11  22
ENDBRANCH   8   9
ENDBRANCH   7   8
ENDBRANCH   5   7
ENDBRANCH   2   5
TORSDOF 12
ENDMDL
MODEL      192
REMARK 921   NORMALIZED FREE ENERGY PREDICTED BY IDOCK:   -4.29 KCAL/MOL
REMARK 922        TOTAL FREE ENERGY PREDICTED BY IDOCK:   -8.90 KCAL/MOL
REMARK 923 INTER-LIGAND FREE ENERGY PREDICTED BY IDOCK:   -8.26 KCAL/MOL
REMARK 924 INTRA-LIGAND FREE ENERGY PREDICTED BY IDOCK:   -0.64 KCAL/MOL
REMARK 927      BINDING AFFINITY PREDICTED BY RF-SCORE:    0.00 PKD
ROOT
HETATM    1  C   UNL     1     -13.172  13.057  71.687  1.00  0.00    -0.426 C  
HETATM    2  C   UNL     1     -12.933  14.563  71.908  1.00  0.00    -0.415 C  
HETATM    3  C   UNL     1     -14.287  15.241  72.148  1.00  0.00    -0.651 C  
HETATM    4  C   UNL     1     -12.038  14.734  73.146  1.00  0.00    -0.299 C  
ENDROOT
BRANCH   2   5
HETATM    5  C   UNL     1     -12.215  15.135  70.675  1.00  0.00    -0.351 C  
HETATM    6  O   UNL     1     -12.808  15.581  69.697  1.00  0.00    -0.028 OA 
BRANCH   5   7
HETATM    7  O   UNL     1     -10.860  15.005  70.739  1.00  0.00    -0.202 OA 
BRANCH   7   8
HETATM    8  C   UNL     1     -10.302  14.120  69.750  1.00  0.00     0.403 C  
BRANCH   8   9
HETATM    9  O   UNL     1     -10.513  14.552  68.408  1.00  0.00    -0.234 OA 
HETATM   10  P   UNL     1      -9.200  15.165  67.666  1.00  0.00    -0.186 P  
HETATM   11  C   UNL     1      -8.027  13.791  67.584  1.00  0.00    -0.174 C  
HETATM   12  O   UNL     1      -8.683  16.420  68.293  1.00  0.00    -0.190 OA 
HETATM   13  O   UNL     1      -9.578  15.261  66.104  1.00  0.00    -0.276 OA 
BRANCH  13  14
HETATM   14  C   UNL     1     -10.400  16.258  65.569  1.00  0.00    -0.338 C  
BRANCH  14  15
HETATM   15  O   UNL     1      -9.728  17.536  65.665  1.00  0.00    -0.532 OA 
BRANCH  15  16
HETATM   16  C   UNL     1     -10.266  18.424  66.550  1.00  0.00    -0.401 C  
HETATM   17  O   UNL     1     -11.111  18.129  67.387  1.00  0.00    -0.211 OA 
BRANCH  16  18
HETATM   18  C   UNL     1      -9.698  19.848  66.370  1.00  0.00    -0.558 C  
HETATM   19  C   UNL     1      -8.199  19.766  66.018  1.00  0.00    -0.327 C  
HETATM   20  C   UNL     1      -9.844  20.647  67.672  1.00  0.00    -0.425 C  
HETATM   21  C   UNL     1     -10.415  20.582  65.227  1.00  0.00     0.473 C  
ENDBRANCH  16  18
ENDBRANCH  15  16
ENDBRANCH  14  15
ENDBRANCH  13  14
BRANCH  11  22
HETATM   22  O   UNL     1      -8.730  12.766  66.877  1.00  0.00    -0.207 OA 
BRANCH  22  23
HETATM   23  C   UNL     1      -8.577  11.488  67.460  1.00  0.00    -0.143 C  
BRANCH  23  24
HETATM   24  C   UNL     1      -9.958  10.947  67.802  1.00  0.00    -0.176 C  
BRANCH  24  25
HETATM   25  N   UNL     1      -9.842   9.772  68.625  1.00  0.00    -0.154 NA 
HETATM   26  C   UNL     1     -10.256   8.525  68.265  1.00  0.00    -0.205 A  
HETATM   27  N   UNL     1     -10.668   8.114  67.054  1.00  0.00    -0.273 NA 
HETATM   28  H2  UNL     1     -11.350   6.130  71.175  1.00  0.00     0.000 HD 
HETATM   29  H1  UNL     1     -11.145   4.686  70.418  1.00  0.00     0.000 HD 
HETATM   30  C   UNL     1      -9.520   9.745  69.955  1.00  0.00    -0.231 A  
HETATM   31  N   UNL     1      -9.742   8.560  70.483  1.00  0.00    -0.173 NA 
HETATM   32  C   UNL     1     -10.229   7.794  69.438  1.00  0.00    -0.208 A  
HETATM   33  C   UNL     1     -10.707   6.478  69.367  1.00  0.00    -0.277 A  
HETATM   34  N   UNL     1     -10.797   5.643  70.470  1.00  0.00    -0.274 NA 
HETATM   35  N   UNL     1     -11.103   5.999  68.162  1.00  0.00    -0.258 NA 
HETATM   36  C   UNL     1     -11.061   6.827  67.094  1.00  0.00    -0.333 A  
ENDBRANCH  24  25
ENDBRANCH  23  24
ENDBRANCH  22  23
ENDBRANCH  11  22
ENDBRANCH   8   9
ENDBRANCH   7   8
ENDBRANCH   5   7
ENDBRANCH   2   5
TORSDOF 12
ENDMDL
MODEL      193
REMARK 921   NORMALIZED FREE ENERGY PREDICTED BY IDOCK:   -4.28 KCAL/MOL
REMARK 922        TOTAL FREE ENERGY PREDICTED BY IDOCK:   -8.88 KCAL/MOL
REMARK 923 INTER-LIGAND FREE ENERGY PREDICTED BY IDOCK:   -7.13 KCAL/MOL
REMARK 924 INTRA-LIGAND FREE ENERGY PREDICTED BY IDOCK:   -1.75 KCAL/MOL
REMARK 927      BINDING AFFINITY PREDICTED BY RF-SCORE:    0.00 PKD
ROOT
HETATM    1  C   UNL     1     -10.890  17.669  68.763  1.00  0.00     0.083 C  
HETATM    2  C   UNL     1      -9.903  18.029  67.635  1.00  0.00    -0.305 C  
HETATM    3  C   UNL     1     -10.639  18.885  66.597  1.00  0.00    -0.469 C  
HETATM    4  C   UNL     1      -8.745  18.833  68.246  1.00  0.00    -0.363 C  
ENDROOT
BRANCH   2   5
HETATM    5  C   UNL     1      -9.356  16.729  67.024  1.00  0.00    -0.233 C  
HETATM    6  O   UNL     1      -8.160  16.521  66.842  1.00  0.00    -0.174 OA 
BRANCH   5   7
HETATM    7  O   UNL     1     -10.339  15.879  66.613  1.00  0.00    -0.287 OA 
BRANCH   7   8
HETATM    8  C   UNL     1      -9.861  14.605  66.140  1.00  0.00    -0.312 C  
BRANCH   8   9
HETATM    9  O   UNL     1     -10.064  13.538  67.062  1.00  0.00    -0.238 OA 
HETATM   10  P   UNL     1     -10.920  12.279  66.484  1.00  0.00    -0.310 P  
HETATM   11  C   UNL     1      -9.913  11.611  65.137  1.00  0.00    -0.259 C  
HETATM   12  O   UNL     1     -12.330  12.621  66.128  1.00  0.00    -0.570 OA 
HETATM   13  O   UNL     1     -10.730  11.087  67.549  1.00  0.00    -0.211 OA 
BRANCH  13  14
HETATM   14  C   UNL     1     -11.399  11.035  68.776  1.00  0.00    -0.283 C  
BRANCH  14  15
HETATM   15  O   UNL     1     -11.187   9.738  69.383  1.00  0.00    -0.205 OA 
BRANCH  15  16
HETATM   16  C   UNL     1     -11.948   9.465  70.481  1.00  0.00    -0.097 C  
HETATM   17  O   UNL     1     -12.826  10.207  70.906  1.00  0.00    -0.350 OA 
BRANCH  16  18
HETATM   18  C   UNL     1     -11.571   8.119  71.137  1.00  0.00    -0.306 C  
HETATM   19  C   UNL     1     -10.698   8.379  72.382  1.00  0.00    -0.405 C  
HETATM   20  C   UNL     1     -10.767   7.256  70.157  1.00  0.00    -0.260 C  
HETATM   21  C   UNL     1     -12.828   7.361  71.588  1.00  0.00    -0.406 C  
ENDBRANCH  16  18
ENDBRANCH  15  16
ENDBRANCH  14  15
ENDBRANCH  13  14
BRANCH  11  22
HETATM   22  O   UNL     1      -8.663  11.293  65.753  1.00  0.00    -0.181 OA 
BRANCH  22  23
HETATM   23  C   UNL     1      -8.041  10.159  65.187  1.00  0.00    -0.148 C  
BRANCH  23  24
HETATM   24  C   UNL     1      -6.734   9.907  65.926  1.00  0.00    -0.097 C  
BRANCH  24  25
HETATM   25  N   UNL     1      -6.928   8.924  66.959  1.00  0.00    -0.074 NA 
HETATM   26  C   UNL     1      -7.241   9.207  68.255  1.00  0.00    -0.078 A  
HETATM   27  N   UNL     1      -7.601  10.393  68.772  1.00  0.00    -0.090 NA 
HETATM   28  H2  UNL     1      -6.019   6.636  70.957  1.00  0.00     0.000 HD 
HETATM   29  H1  UNL     1      -7.085   6.990  72.158  1.00  0.00     0.000 HD 
HETATM   30  C   UNL     1      -6.616   7.594  66.879  1.00  0.00    -0.062 A  
HETATM   31  N   UNL     1      -6.670   7.011  68.057  1.00  0.00    -0.062 NA 
HETATM   32  C   UNL     1      -7.035   8.020  68.933  1.00  0.00    -0.062 A  
HETATM   33  C   UNL     1      -7.196   8.057  70.325  1.00  0.00    -0.053 A  
HETATM   34  N   UNL     1      -6.967   6.963  71.145  1.00  0.00    -0.068 NA 
HETATM   35  N   UNL     1      -7.593   9.220  70.897  1.00  0.00    -0.222 NA 
HETATM   36  C   UNL     1      -7.771  10.301  70.105  1.00  0.00     0.026 A  
ENDBRANCH  24  25
ENDBRANCH  23  24
ENDBRANCH  22  23
ENDBRANCH  11  22
ENDBRANCH   8   9
ENDBRANCH   7   8
ENDBRANCH   5   7
ENDBRANCH   2   5
TORSDOF 12
ENDMDL
MODEL      194
REMARK 921   NORMALIZED FREE ENERGY PREDICTED BY IDOCK:   -4.26 KCAL/MOL
REMARK 922        TOTAL FREE ENERGY PREDICTED BY IDOCK:   -8.84 KCAL/MOL
REMARK 923 INTER-LIGAND FREE ENERGY PREDICTED BY IDOCK:   -6.89 KCAL/MOL
REMARK 924 INTRA-LIGAND FREE ENERGY PREDICTED BY IDOCK:   -1.95 KCAL/MOL
REMARK 927      BINDING AFFINITY PREDICTED BY RF-SCORE:    0.00 PKD
ROOT
HETATM    1  C   UNL     1     -11.173   7.517  70.220  1.00  0.00    -0.253 C  
HETATM    2  C   UNL     1     -10.823   8.517  71.339  1.00  0.00    -0.327 C  
HETATM    3  C   UNL     1     -11.528   9.845  71.043  1.00  0.00    -0.466 C  
HETATM    4  C   UNL     1     -11.328   7.944  72.673  1.00  0.00    -0.468 C  
ENDROOT
BRANCH   2   5
HETATM    5  C   UNL     1      -9.296   8.678  71.398  1.00  0.00    -0.236 C  
HETATM    6  O   UNL     1      -8.676   8.841  72.445  1.00  0.00    -0.392 OA 
BRANCH   5   7
HETATM    7  O   UNL     1      -8.716   8.723  70.165  1.00  0.00    -0.133 OA 
BRANCH   7   8
HETATM    8  C   UNL     1      -7.810   9.826  69.975  1.00  0.00    -0.178 C  
BRANCH   8   9
HETATM    9  O   UNL     1      -8.411  10.963  69.362  1.00  0.00    -0.075 OA 
HETATM   10  P   UNL     1      -7.374  11.974  68.618  1.00  0.00    -0.070 P  
HETATM   11  C   UNL     1      -6.646  10.995  67.282  1.00  0.00    -0.078 C  
HETATM   12  O   UNL     1      -6.401  12.629  69.543  1.00  0.00    -0.117 OA 
HETATM   13  O   UNL     1      -8.281  12.966  67.731  1.00  0.00    -0.147 OA 
BRANCH  13  14
HETATM   14  C   UNL     1      -9.006  14.035  68.267  1.00  0.00    -0.190 C  
BRANCH  14  15
HETATM   15  O   UNL     1      -9.781  14.663  67.218  1.00  0.00    -0.225 OA 
BRANCH  15  16
HETATM   16  C   UNL     1     -10.991  14.094  66.953  1.00  0.00    -0.300 C  
HETATM   17  O   UNL     1     -11.710  13.586  67.806  1.00  0.00    -0.317 OA 
BRANCH  16  18
HETATM   18  C   UNL     1     -11.352  14.154  65.453  1.00  0.00    -0.322 C  
HETATM   19  C   UNL     1     -11.034  15.558  64.901  1.00  0.00    -0.452 C  
HETATM   20  C   UNL     1     -12.849  13.886  65.255  1.00  0.00    -0.437 C  
HETATM   21  C   UNL     1     -10.531  13.132  64.653  1.00  0.00    -0.411 C  
ENDBRANCH  16  18
ENDBRANCH  15  16
ENDBRANCH  14  15
ENDBRANCH  13  14
BRANCH  11  22
HETATM   22  O   UNL     1      -7.768  10.560  66.509  1.00  0.00    -0.119 OA 
BRANCH  22  23
HETATM   23  C   UNL     1      -7.400   9.765  65.401  1.00  0.00    -0.118 C  
BRANCH  23  24
HETATM   24  C   UNL     1      -6.757   8.486  65.919  1.00  0.00    -0.057 C  
BRANCH  24  25
HETATM   25  N   UNL     1      -7.719   7.708  66.654  1.00  0.00    -0.096 NA 
HETATM   26  C   UNL     1      -7.439   6.970  67.764  1.00  0.00    -0.098 A  
HETATM   27  N   UNL     1      -6.303   6.963  68.481  1.00  0.00    -0.031 NA 
HETATM   28  H2  UNL     1      -9.692   3.817  68.390  1.00  0.00     0.000 HD 
HETATM   29  H1  UNL     1      -9.460   3.645  70.008  1.00  0.00     0.000 HD 
HETATM   30  C   UNL     1      -8.988   7.397  66.246  1.00  0.00    -0.162 A  
HETATM   31  N   UNL     1      -9.528   6.469  67.008  1.00  0.00    -0.133 NA 
HETATM   32  C   UNL     1      -8.555   6.174  67.947  1.00  0.00    -0.114 A  
HETATM   33  C   UNL     1      -8.491   5.234  68.986  1.00  0.00    -0.095 A  
HETATM   34  N   UNL     1      -9.506   4.328  69.253  1.00  0.00    -0.170 NA 
HETATM   35  N   UNL     1      -7.382   5.207  69.764  1.00  0.00    -0.059 NA 
HETATM   36  C   UNL     1      -6.370   6.057  69.475  1.00  0.00    -0.041 A  
ENDBRANCH  24  25
ENDBRANCH  23  24
ENDBRANCH  22  23
ENDBRANCH  11  22
ENDBRANCH   8   9
ENDBRANCH   7   8
ENDBRANCH   5   7
ENDBRANCH   2   5
TORSDOF 12
ENDMDL
MODEL      195
REMARK 921   NORMALIZED FREE ENERGY PREDICTED BY IDOCK:   -4.24 KCAL/MOL
REMARK 922        TOTAL FREE ENERGY PREDICTED BY IDOCK:   -8.82 KCAL/MOL
REMARK 923 INTER-LIGAND FREE ENERGY PREDICTED BY IDOCK:   -7.68 KCAL/MOL
REMARK 924 INTRA-LIGAND FREE ENERGY PREDICTED BY IDOCK:   -1.13 KCAL/MOL
REMARK 927      BINDING AFFINITY PREDICTED BY RF-SCORE:    0.00 PKD
ROOT
HETATM    1  C   UNL     1      -8.262  17.270  66.222  1.00  0.00    -0.302 C  
HETATM    2  C   UNL     1      -8.780  17.260  67.673  1.00  0.00    -0.219 C  
HETATM    3  C   UNL     1      -8.018  18.327  68.469  1.00  0.00    -0.324 C  
HETATM    4  C   UNL     1     -10.279  17.597  67.653  1.00  0.00    -0.351 C  
ENDROOT
BRANCH   2   5
HETATM    5  C   UNL     1      -8.579  15.854  68.260  1.00  0.00    -0.176 C  
HETATM    6  O   UNL     1      -8.338  15.647  69.446  1.00  0.00    -0.243 OA 
BRANCH   5   7
HETATM    7  O   UNL     1      -8.598  14.874  67.314  1.00  0.00    -0.185 OA 
BRANCH   7   8
HETATM    8  C   UNL     1      -9.882  14.248  67.131  1.00  0.00    -0.252 C  
BRANCH   8   9
HETATM    9  O   UNL     1     -10.299  13.459  68.241  1.00  0.00    -0.236 OA 
HETATM   10  P   UNL     1     -10.609  11.897  67.901  1.00  0.00    -0.221 P  
HETATM   11  C   UNL     1      -9.025  11.218  67.352  1.00  0.00    -0.144 C  
HETATM   12  O   UNL     1     -11.756  11.700  66.963  1.00  0.00    -0.564 OA 
HETATM   13  O   UNL     1     -10.721  11.147  69.320  1.00  0.00    -0.217 OA 
BRANCH  13  14
HETATM   14  C   UNL     1     -11.843  11.233  70.151  1.00  0.00    -0.364 C  
BRANCH  14  15
HETATM   15  O   UNL     1     -12.062  12.615  70.520  1.00  0.00    -0.363 OA 
BRANCH  15  16
HETATM   16  C   UNL     1     -12.945  12.826  71.537  1.00  0.00    -0.292 C  
HETATM   17  O   UNL     1     -13.591  11.935  72.077  1.00  0.00    -0.339 OA 
BRANCH  16  18
HETATM   18  C   UNL     1     -13.049  14.316  71.925  1.00  0.00    -0.445 C  
HETATM   19  C   UNL     1     -11.942  15.115  71.208  1.00  0.00    -0.399 C  
HETATM   20  C   UNL     1     -12.862  14.486  73.438  1.00  0.00    -0.423 C  
HETATM   21  C   UNL     1     -14.405  14.898  71.500  1.00  0.00    -0.631 C  
ENDBRANCH  16  18
ENDBRANCH  15  16
ENDBRANCH  14  15
ENDBRANCH  13  14
BRANCH  11  22
HETATM   22  O   UNL     1      -8.137  11.460  68.447  1.00  0.00    -0.131 OA 
BRANCH  22  23
HETATM   23  C   UNL     1      -7.334  10.342  68.765  1.00  0.00    -0.086 C  
BRANCH  23  24
HETATM   24  C   UNL     1      -6.627   9.880  67.499  1.00  0.00    -0.069 C  
BRANCH  24  25
HETATM   25  N   UNL     1      -6.877   8.481  67.271  1.00  0.00    -0.067 NA 
HETATM   26  C   UNL     1      -7.373   7.956  66.116  1.00  0.00    -0.074 A  
HETATM   27  N   UNL     1      -7.547   8.580  64.939  1.00  0.00    -0.093 NA 
HETATM   28  H2  UNL     1      -9.452   4.643  66.444  1.00  0.00     0.000 HD 
HETATM   29  H1  UNL     1      -9.288   4.077  64.909  1.00  0.00     0.000 HD 
HETATM   30  C   UNL     1      -6.881   7.496  68.221  1.00  0.00    -0.063 A  
HETATM   31  N   UNL     1      -7.390   6.375  67.755  1.00  0.00    -0.086 NA 
HETATM   32  C   UNL     1      -7.727   6.661  66.443  1.00  0.00    -0.102 A  
HETATM   33  C   UNL     1      -8.362   5.913  65.441  1.00  0.00    -0.149 A  
HETATM   34  N   UNL     1      -8.827   4.621  65.638  1.00  0.00    -0.126 NA 
HETATM   35  N   UNL     1      -8.532   6.480  64.222  1.00  0.00     0.113 NA 
HETATM   36  C   UNL     1      -8.122   7.756  64.042  1.00  0.00    -0.062 A  
ENDBRANCH  24  25
ENDBRANCH  23  24
ENDBRANCH  22  23
ENDBRANCH  11  22
ENDBRANCH   8   9
ENDBRANCH   7   8
ENDBRANCH   5   7
ENDBRANCH   2   5
TORSDOF 12
ENDMDL
MODEL      196
REMARK 921   NORMALIZED FREE ENERGY PREDICTED BY IDOCK:   -4.24 KCAL/MOL
REMARK 922        TOTAL FREE ENERGY PREDICTED BY IDOCK:   -8.82 KCAL/MOL
REMARK 923 INTER-LIGAND FREE ENERGY PREDICTED BY IDOCK:   -7.98 KCAL/MOL
REMARK 924 INTRA-LIGAND FREE ENERGY PREDICTED BY IDOCK:   -0.84 KCAL/MOL
REMARK 927      BINDING AFFINITY PREDICTED BY RF-SCORE:    0.00 PKD
ROOT
HETATM    1  C   UNL     1      -8.521   7.300  66.112  1.00  0.00    -0.144 C  
HETATM    2  C   UNL     1      -7.624   7.783  67.269  1.00  0.00    -0.104 C  
HETATM    3  C   UNL     1      -8.423   7.696  68.574  1.00  0.00    -0.129 C  
HETATM    4  C   UNL     1      -6.397   6.860  67.346  1.00  0.00    -0.045 C  
ENDROOT
BRANCH   2   5
HETATM    5  C   UNL     1      -7.164   9.219  66.971  1.00  0.00    -0.087 C  
HETATM    6  O   UNL     1      -5.998   9.517  66.732  1.00  0.00    -0.057 OA 
BRANCH   5   7
HETATM    7  O   UNL     1      -8.164  10.136  67.100  1.00  0.00    -0.120 OA 
BRANCH   7   8
HETATM    8  C   UNL     1      -8.025  11.289  66.248  1.00  0.00    -0.086 C  
BRANCH   8   9
HETATM    9  O   UNL     1      -9.229  12.033  66.089  1.00  0.00    -0.224 OA 
HETATM   10  P   UNL     1     -10.506  11.176  65.555  1.00  0.00    -0.198 P  
HETATM   11  C   UNL     1     -10.823   9.957  66.852  1.00  0.00    -0.066 C  
HETATM   12  O   UNL     1     -10.327  10.623  64.178  1.00  0.00    -0.351 OA 
HETATM   13  O   UNL     1     -11.795  12.114  65.777  1.00  0.00    -0.469 OA 
BRANCH  13  14
HETATM   14  C   UNL     1     -12.117  13.192  64.946  1.00  0.00    -0.402 C  
BRANCH  14  15
HETATM   15  O   UNL     1     -12.272  14.387  65.749  1.00  0.00    -0.389 OA 
BRANCH  15  16
HETATM   16  C   UNL     1     -11.228  15.263  65.716  1.00  0.00    -0.247 C  
HETATM   17  O   UNL     1     -10.828  15.813  64.697  1.00  0.00    -0.488 OA 
BRANCH  16  18
HETATM   18  C   UNL     1     -10.599  15.480  67.110  1.00  0.00    -0.300 C  
HETATM   19  C   UNL     1     -11.418  14.715  68.170  1.00  0.00    -0.346 C  
HETATM   20  C   UNL     1     -10.612  16.969  67.474  1.00  0.00    -0.310 C  
HETATM   21  C   UNL     1      -9.159  14.947  67.148  1.00  0.00    -0.236 C  
ENDBRANCH  16  18
ENDBRANCH  15  16
ENDBRANCH  14  15
ENDBRANCH  13  14
BRANCH  11  22
HETATM   22  O   UNL     1     -11.038  10.739  68.030  1.00  0.00    -0.254 OA 
BRANCH  22  23
HETATM   23  C   UNL     1     -11.785  10.059  69.017  1.00  0.00     0.167 C  
BRANCH  23  24
HETATM   24  C   UNL     1     -11.350  10.566  70.385  1.00  0.00    -0.328 C  
BRANCH  24  25
HETATM   25  N   UNL     1     -11.501   9.528  71.371  1.00  0.00    -0.370 NA 
HETATM   26  C   UNL     1     -10.474   8.827  71.926  1.00  0.00    -0.353 A  
HETATM   27  N   UNL     1      -9.158   9.072  71.817  1.00  0.00    -0.363 NA 
HETATM   28  H2  UNL     1     -11.282   5.173  73.111  1.00  0.00     0.000 HD 
HETATM   29  H1  UNL     1     -10.072   4.978  74.206  1.00  0.00     0.000 HD 
HETATM   30  C   UNL     1     -12.674   8.926  71.737  1.00  0.00    -0.364 A  
HETATM   31  N   UNL     1     -12.460   7.851  72.465  1.00  0.00    -0.162 NA 
HETATM   32  C   UNL     1     -11.082   7.763  72.567  1.00  0.00    -0.346 A  
HETATM   33  C   UNL     1     -10.231   6.816  73.153  1.00  0.00    -0.230 A  
HETATM   34  N   UNL     1     -10.691   5.667  73.779  1.00  0.00    -0.276 NA 
HETATM   35  N   UNL     1      -8.894   7.031  73.104  1.00  0.00    -0.125 NA 
HETATM   36  C   UNL     1      -8.441   8.126  72.452  1.00  0.00    -0.179 A  
ENDBRANCH  24  25
ENDBRANCH  23  24
ENDBRANCH  22  23
ENDBRANCH  11  22
ENDBRANCH   8   9
ENDBRANCH   7   8
ENDBRANCH   5   7
ENDBRANCH   2   5
TORSDOF 12
ENDMDL
MODEL      197
REMARK 921   NORMALIZED FREE ENERGY PREDICTED BY IDOCK:   -4.24 KCAL/MOL
REMARK 922        TOTAL FREE ENERGY PREDICTED BY IDOCK:   -8.82 KCAL/MOL
REMARK 923 INTER-LIGAND FREE ENERGY PREDICTED BY IDOCK:   -7.38 KCAL/MOL
REMARK 924 INTRA-LIGAND FREE ENERGY PREDICTED BY IDOCK:   -1.44 KCAL/MOL
REMARK 927      BINDING AFFINITY PREDICTED BY RF-SCORE:    0.00 PKD
ROOT
HETATM    1  C   UNL     1      -8.507  16.897  66.108  1.00  0.00    -0.281 C  
HETATM    2  C   UNL     1     -10.013  16.946  66.431  1.00  0.00    -0.321 C  
HETATM    3  C   UNL     1     -10.222  17.858  67.645  1.00  0.00    -0.369 C  
HETATM    4  C   UNL     1     -10.750  17.524  65.212  1.00  0.00     0.080 C  
ENDROOT
BRANCH   2   5
HETATM    5  C   UNL     1     -10.509  15.515  66.696  1.00  0.00    -0.299 C  
HETATM    6  O   UNL     1     -11.234  14.899  65.921  1.00  0.00    -0.335 OA 
BRANCH   5   7
HETATM    7  O   UNL     1     -10.143  15.043  67.921  1.00  0.00    -0.225 OA 
BRANCH   7   8
HETATM    8  C   UNL     1     -11.059  14.086  68.486  1.00  0.00    -0.257 C  
BRANCH   8   9
HETATM    9  O   UNL     1     -10.427  12.907  68.977  1.00  0.00    -0.134 OA 
HETATM   10  P   UNL     1     -10.952  11.516  68.316  1.00  0.00    -0.272 P  
HETATM   11  C   UNL     1     -10.518  11.640  66.564  1.00  0.00    -0.239 C  
HETATM   12  O   UNL     1     -12.387  11.213  68.605  1.00  0.00    -0.549 OA 
HETATM   13  O   UNL     1      -9.891  10.387  68.754  1.00  0.00    -0.168 OA 
BRANCH  13  14
HETATM   14  C   UNL     1      -9.855   9.817  70.030  1.00  0.00    -0.251 C  
BRANCH  14  15
HETATM   15  O   UNL     1     -11.163   9.291  70.358  1.00  0.00    -0.241 OA 
BRANCH  15  16
HETATM   16  C   UNL     1     -11.216   7.954  70.621  1.00  0.00    -0.263 C  
HETATM   17  O   UNL     1     -10.919   7.084  69.810  1.00  0.00    -0.245 OA 
BRANCH  16  18
HETATM   18  C   UNL     1     -11.704   7.657  72.055  1.00  0.00    -0.340 C  
HETATM   19  C   UNL     1     -10.517   7.760  73.036  1.00  0.00    -0.432 C  
HETATM   20  C   UNL     1     -12.275   6.236  72.140  1.00  0.00    -0.255 C  
HETATM   21  C   UNL     1     -12.769   8.673  72.492  1.00  0.00    -0.357 C  
ENDBRANCH  16  18
ENDBRANCH  15  16
ENDBRANCH  14  15
ENDBRANCH  13  14
BRANCH  11  22
HETATM   22  O   UNL     1      -9.103  11.844  66.563  1.00  0.00    -0.204 OA 
BRANCH  22  23
HETATM   23  C   UNL     1      -8.435  11.079  65.581  1.00  0.00    -0.099 C  
BRANCH  23  24
HETATM   24  C   UNL     1      -9.454  10.179  64.896  1.00  0.00    -0.289 C  
BRANCH  24  25
HETATM   25  N   UNL     1      -8.846   8.927  64.529  1.00  0.00    -0.094 NA 
HETATM   26  C   UNL     1      -8.655   7.877  65.375  1.00  0.00    -0.095 A  
HETATM   27  N   UNL     1      -9.141   7.725  66.618  1.00  0.00    -0.152 NA 
HETATM   28  H2  UNL     1      -5.610   5.527  64.595  1.00  0.00     0.000 HD 
HETATM   29  H1  UNL     1      -6.116   4.173  65.379  1.00  0.00     0.000 HD 
HETATM   30  C   UNL     1      -8.166   8.669  63.370  1.00  0.00    -0.155 A  
HETATM   31  N   UNL     1      -7.513   7.528  63.436  1.00  0.00    -0.094 NA 
HETATM   32  C   UNL     1      -7.791   7.035  64.700  1.00  0.00    -0.123 A  
HETATM   33  C   UNL     1      -7.349   5.901  65.396  1.00  0.00    -0.076 A  
HETATM   34  N   UNL     1      -6.437   4.998  64.872  1.00  0.00    -0.035 NA 
HETATM   35  N   UNL     1      -7.835   5.679  66.641  1.00  0.00    -0.100 NA 
HETATM   36  C   UNL     1      -8.687   6.584  67.172  1.00  0.00    -0.111 A  
ENDBRANCH  24  25
ENDBRANCH  23  24
ENDBRANCH  22  23
ENDBRANCH  11  22
ENDBRANCH   8   9
ENDBRANCH   7   8
ENDBRANCH   5   7
ENDBRANCH   2   5
TORSDOF 12
ENDMDL
MODEL      198
REMARK 921   NORMALIZED FREE ENERGY PREDICTED BY IDOCK:   -4.23 KCAL/MOL
REMARK 922        TOTAL FREE ENERGY PREDICTED BY IDOCK:   -8.79 KCAL/MOL
REMARK 923 INTER-LIGAND FREE ENERGY PREDICTED BY IDOCK:   -7.36 KCAL/MOL
REMARK 924 INTRA-LIGAND FREE ENERGY PREDICTED BY IDOCK:   -1.43 KCAL/MOL
REMARK 927      BINDING AFFINITY PREDICTED BY RF-SCORE:    0.00 PKD
ROOT
HETATM    1  C   UNL     1      -8.952   5.151  65.072  1.00  0.00    -0.109 C  
HETATM    2  C   UNL     1      -9.054   4.927  66.593  1.00  0.00    -0.119 C  
HETATM    3  C   UNL     1     -10.440   5.384  67.062  1.00  0.00    -0.319 C  
HETATM    4  C   UNL     1      -8.878   3.426  66.873  1.00  0.00    -0.149 C  
ENDROOT
BRANCH   2   5
HETATM    5  C   UNL     1      -7.927   5.711  67.285  1.00  0.00    -0.102 C  
HETATM    6  O   UNL     1      -7.551   5.480  68.430  1.00  0.00    -0.082 OA 
BRANCH   5   7
HETATM    7  O   UNL     1      -7.461   6.748  66.534  1.00  0.00    -0.076 OA 
BRANCH   7   8
HETATM    8  C   UNL     1      -7.568   8.036  67.169  1.00  0.00    -0.097 C  
BRANCH   8   9
HETATM    9  O   UNL     1      -8.832   8.269  67.784  1.00  0.00    -0.136 OA 
HETATM   10  P   UNL     1      -8.769   9.008  69.233  1.00  0.00    -0.146 P  
HETATM   11  C   UNL     1      -8.054  10.635  68.895  1.00  0.00    -0.139 C  
HETATM   12  O   UNL     1      -8.081   8.207  70.290  1.00  0.00    -0.104 OA 
HETATM   13  O   UNL     1     -10.277   9.465  69.564  1.00  0.00    -0.190 OA 
BRANCH  13  14
HETATM   14  C   UNL     1     -11.270   8.586  70.008  1.00  0.00    -0.086 C  
BRANCH  14  15
HETATM   15  O   UNL     1     -10.979   8.180  71.366  1.00  0.00    -0.228 OA 
BRANCH  15  16
HETATM   16  C   UNL     1     -11.598   7.042  71.791  1.00  0.00    -0.280 C  
HETATM   17  O   UNL     1     -12.812   6.876  71.774  1.00  0.00    -0.362 OA 
BRANCH  16  18
HETATM   18  C   UNL     1     -10.596   5.986  72.307  1.00  0.00    -0.256 C  
HETATM   19  C   UNL     1      -9.499   6.680  73.141  1.00  0.00    -0.160 C  
HETATM   20  C   UNL     1      -9.924   5.270  71.129  1.00  0.00    -0.265 C  
HETATM   21  C   UNL     1     -11.299   4.960  73.207  1.00  0.00    -0.408 C  
ENDBRANCH  16  18
ENDBRANCH  15  16
ENDBRANCH  14  15
ENDBRANCH  13  14
BRANCH  11  22
HETATM   22  O   UNL     1      -8.934  11.216  67.928  1.00  0.00    -0.136 OA 
BRANCH  22  23
HETATM   23  C   UNL     1      -9.379  12.506  68.291  1.00  0.00    -0.193 C  
BRANCH  23  24
HETATM   24  C   UNL     1     -10.065  13.135  67.086  1.00  0.00    -0.242 C  
BRANCH  24  25
HETATM   25  N   UNL     1     -10.504  14.469  67.404  1.00  0.00    -0.263 NA 
HETATM   26  C   UNL     1      -9.863  15.610  67.025  1.00  0.00    -0.233 A  
HETATM   27  N   UNL     1      -8.843  15.730  66.159  1.00  0.00    -0.338 NA 
HETATM   28  H2  UNL     1     -10.281  18.721  69.380  1.00  0.00     0.000 HD 
HETATM   29  H1  UNL     1      -9.939  19.915  68.303  1.00  0.00     0.000 HD 
HETATM   30  C   UNL     1     -11.475  14.807  68.306  1.00  0.00    -0.317 A  
HETATM   31  N   UNL     1     -11.471  16.098  68.562  1.00  0.00    -0.369 NA 
HETATM   32  C   UNL     1     -10.446  16.608  67.784  1.00  0.00    -0.316 A  
HETATM   33  C   UNL     1      -9.898  17.892  67.657  1.00  0.00    -0.304 A  
HETATM   34  N   UNL     1     -10.337  18.980  68.396  1.00  0.00    -0.357 NA 
HETATM   35  N   UNL     1      -8.890  18.079  66.771  1.00  0.00    -0.256 NA 
HETATM   36  C   UNL     1      -8.428  17.010  66.085  1.00  0.00    -0.227 A  
ENDBRANCH  24  25
ENDBRANCH  23  24
ENDBRANCH  22  23
ENDBRANCH  11  22
ENDBRANCH   8   9
ENDBRANCH   7   8
ENDBRANCH   5   7
ENDBRANCH   2   5
TORSDOF 12
ENDMDL
MODEL      199
REMARK 921   NORMALIZED FREE ENERGY PREDICTED BY IDOCK:   -4.22 KCAL/MOL
REMARK 922        TOTAL FREE ENERGY PREDICTED BY IDOCK:   -8.78 KCAL/MOL
REMARK 923 INTER-LIGAND FREE ENERGY PREDICTED BY IDOCK:   -7.42 KCAL/MOL
REMARK 924 INTRA-LIGAND FREE ENERGY PREDICTED BY IDOCK:   -1.36 KCAL/MOL
REMARK 927      BINDING AFFINITY PREDICTED BY RF-SCORE:    0.00 PKD
ROOT
HETATM    1  C   UNL     1     -12.258  13.072  70.950  1.00  0.00    -0.310 C  
HETATM    2  C   UNL     1     -12.823  14.464  71.296  1.00  0.00    -0.412 C  
HETATM    3  C   UNL     1     -14.351  14.364  71.370  1.00  0.00    -0.339 C  
HETATM    4  C   UNL     1     -12.262  14.887  72.663  1.00  0.00    -0.395 C  
ENDROOT
BRANCH   2   5
HETATM    5  C   UNL     1     -12.364  15.464  70.224  1.00  0.00    -0.388 C  
HETATM    6  O   UNL     1     -12.751  15.428  69.059  1.00  0.00     0.181 OA 
BRANCH   5   7
HETATM    7  O   UNL     1     -11.413  16.330  70.674  1.00  0.00    -0.377 OA 
BRANCH   7   8
HETATM    8  C   UNL     1     -10.083  16.052  70.195  1.00  0.00     0.080 C  
BRANCH   8   9
HETATM    9  O   UNL     1     -10.043  15.600  68.844  1.00  0.00    -0.200 OA 
HETATM   10  P   UNL     1      -8.964  16.363  67.893  1.00  0.00    -0.200 P  
HETATM   11  C   UNL     1      -7.351  15.973  68.614  1.00  0.00    -0.159 C  
HETATM   12  O   UNL     1      -9.251  17.817  67.700  1.00  0.00    -0.246 OA 
HETATM   13  O   UNL     1      -8.854  15.481  66.551  1.00  0.00    -0.267 OA 
BRANCH  13  14
HETATM   14  C   UNL     1      -9.819  15.494  65.539  1.00  0.00    -0.313 C  
BRANCH  14  15
HETATM   15  O   UNL     1     -10.920  14.633  65.915  1.00  0.00    -0.316 OA 
BRANCH  15  16
HETATM   16  C   UNL     1     -11.728  14.224  64.897  1.00  0.00    -0.397 C  
HETATM   17  O   UNL     1     -12.528  14.954  64.323  1.00  0.00    -0.670 OA 
BRANCH  16  18
HETATM   18  C   UNL     1     -11.532  12.731  64.554  1.00  0.00    -0.389 C  
HETATM   19  C   UNL     1     -12.908  12.055  64.385  1.00  0.00    -0.114 C  
HETATM   20  C   UNL     1     -10.782  12.019  65.686  1.00  0.00    -0.313 C  
HETATM   21  C   UNL     1     -10.759  12.571  63.236  1.00  0.00    -0.161 C  
ENDBRANCH  16  18
ENDBRANCH  15  16
ENDBRANCH  14  15
ENDBRANCH  13  14
BRANCH  11  22
HETATM   22  O   UNL     1      -7.297  14.544  68.610  1.00  0.00    -0.113 OA 
BRANCH  22  23
HETATM   23  C   UNL     1      -6.198  14.036  67.881  1.00  0.00    -0.156 C  
BRANCH  23  24
HETATM   24  C   UNL     1      -6.525  12.613  67.448  1.00  0.00    -0.149 C  
BRANCH  24  25
HETATM   25  N   UNL     1      -6.497  11.729  68.583  1.00  0.00    -0.056 NA 
HETATM   26  C   UNL     1      -7.468  10.824  68.890  1.00  0.00    -0.116 A  
HETATM   27  N   UNL     1      -8.513  10.453  68.132  1.00  0.00    -0.118 NA 
HETATM   28  H2  UNL     1      -7.907   9.941  72.688  1.00  0.00     0.000 HD 
HETATM   29  H1  UNL     1      -8.640   8.477  72.535  1.00  0.00     0.000 HD 
HETATM   30  C   UNL     1      -5.634  11.802  69.643  1.00  0.00    -0.078 A  
HETATM   31  N   UNL     1      -6.017  11.025  70.633  1.00  0.00    -0.291 NA 
HETATM   32  C   UNL     1      -7.181  10.426  70.182  1.00  0.00    -0.083 A  
HETATM   33  C   UNL     1      -8.096   9.552  70.786  1.00  0.00    -0.035 A  
HETATM   34  N   UNL     1      -7.974   9.113  72.096  1.00  0.00    -0.197 NA 
HETATM   35  N   UNL     1      -9.151   9.117  70.056  1.00  0.00    -0.176 NA 
HETATM   36  C   UNL     1      -9.298   9.581  68.795  1.00  0.00    -0.146 A  
ENDBRANCH  24  25
ENDBRANCH  23  24
ENDBRANCH  22  23
ENDBRANCH  11  22
ENDBRANCH   8   9
ENDBRANCH   7   8
ENDBRANCH   5   7
ENDBRANCH   2   5
TORSDOF 12
ENDMDL
MODEL      200
REMARK 921   NORMALIZED FREE ENERGY PREDICTED BY IDOCK:   -4.22 KCAL/MOL
REMARK 922        TOTAL FREE ENERGY PREDICTED BY IDOCK:   -8.78 KCAL/MOL
REMARK 923 INTER-LIGAND FREE ENERGY PREDICTED BY IDOCK:   -7.57 KCAL/MOL
REMARK 924 INTRA-LIGAND FREE ENERGY PREDICTED BY IDOCK:   -1.21 KCAL/MOL
REMARK 927      BINDING AFFINITY PREDICTED BY RF-SCORE:    0.00 PKD
ROOT
HETATM    1  C   UNL     1     -11.794  12.226  69.258  1.00  0.00    -0.363 C  
HETATM    2  C   UNL     1     -11.312  13.240  68.201  1.00  0.00    -0.323 C  
HETATM    3  C   UNL     1     -11.952  14.600  68.503  1.00  0.00    -0.298 C  
HETATM    4  C   UNL     1      -9.782  13.351  68.301  1.00  0.00    -0.226 C  
ENDROOT
BRANCH   2   5
HETATM    5  C   UNL     1     -11.696  12.721  66.807  1.00  0.00    -0.392 C  
HETATM    6  O   UNL     1     -12.222  13.423  65.948  1.00  0.00    -0.416 OA 
BRANCH   5   7
HETATM    7  O   UNL     1     -11.486  11.383  66.659  1.00  0.00    -0.408 OA 
BRANCH   7   8
HETATM    8  C   UNL     1     -10.501  11.043  65.665  1.00  0.00    -0.230 C  
BRANCH   8   9
HETATM    9  O   UNL     1     -10.159   9.660  65.645  1.00  0.00    -0.296 OA 
HETATM   10  P   UNL     1      -8.660   9.312  66.178  1.00  0.00    -0.146 P  
HETATM   11  C   UNL     1      -8.655   9.818  67.915  1.00  0.00    -0.125 C  
HETATM   12  O   UNL     1      -7.570   9.888  65.334  1.00  0.00    -0.119 OA 
HETATM   13  O   UNL     1      -8.623   7.716  66.386  1.00  0.00    -0.128 OA 
BRANCH  13  14
HETATM   14  C   UNL     1      -8.506   6.803  65.332  1.00  0.00    -0.096 C  
BRANCH  14  15
HETATM   15  O   UNL     1      -8.548   5.455  65.858  1.00  0.00    -0.122 OA 
BRANCH  15  16
HETATM   16  C   UNL     1      -9.613   4.699  65.469  1.00  0.00    -0.179 C  
HETATM   17  O   UNL     1     -10.774   4.940  65.781  1.00  0.00    -0.270 OA 
BRANCH  16  18
HETATM   18  C   UNL     1      -9.192   3.496  64.598  1.00  0.00    -0.139 C  
HETATM   19  C   UNL     1      -8.029   3.910  63.674  1.00  0.00    -0.088 C  
HETATM   20  C   UNL     1     -10.364   3.038  63.720  1.00  0.00    -0.199 C  
HETATM   21  C   UNL     1      -8.711   2.329  65.473  1.00  0.00    -0.121 C  
ENDBRANCH  16  18
ENDBRANCH  15  16
ENDBRANCH  14  15
ENDBRANCH  13  14
BRANCH  11  22
HETATM   22  O   UNL     1      -9.723   9.072  68.505  1.00  0.00    -0.154 OA 
BRANCH  22  23
HETATM   23  C   UNL     1      -9.833   9.273  69.899  1.00  0.00    -0.199 C  
BRANCH  23  24
HETATM   24  C   UNL     1     -11.082   8.556  70.391  1.00  0.00    -0.231 C  
BRANCH  24  25
HETATM   25  N   UNL     1     -10.753   7.679  71.484  1.00  0.00    -0.220 NA 
HETATM   26  C   UNL     1     -10.443   6.358  71.357  1.00  0.00    -0.218 A  
HETATM   27  N   UNL     1     -10.208   5.675  70.225  1.00  0.00    -0.222 NA 
HETATM   28  H2  UNL     1     -11.303   4.052  74.415  1.00  0.00     0.000 HD 
HETATM   29  H1  UNL     1     -10.256   2.820  74.117  1.00  0.00     0.000 HD 
HETATM   30  C   UNL     1     -10.916   7.951  72.816  1.00  0.00    -0.393 A  
HETATM   31  N   UNL     1     -10.768   6.870  73.552  1.00  0.00    -0.333 NA 
HETATM   32  C   UNL     1     -10.499   5.860  72.645  1.00  0.00    -0.206 A  
HETATM   33  C   UNL     1     -10.309   4.478  72.791  1.00  0.00    -0.187 A  
HETATM   34  N   UNL     1     -10.394   3.825  74.011  1.00  0.00    -0.162 NA 
HETATM   35  N   UNL     1     -10.032   3.745  71.685  1.00  0.00    -0.171 NA 
HETATM   36  C   UNL     1      -9.997   4.372  70.488  1.00  0.00    -0.185 A  
ENDBRANCH  24  25
ENDBRANCH  23  24
ENDBRANCH  22  23
ENDBRANCH  11  22
ENDBRANCH   8   9
ENDBRANCH   7   8
ENDBRANCH   5   7
ENDBRANCH   2   5
TORSDOF 12
ENDMDL
MODEL      201
REMARK 921   NORMALIZED FREE ENERGY PREDICTED BY IDOCK:   -4.22 KCAL/MOL
REMARK 922        TOTAL FREE ENERGY PREDICTED BY IDOCK:   -8.77 KCAL/MOL
REMARK 923 INTER-LIGAND FREE ENERGY PREDICTED BY IDOCK:   -7.29 KCAL/MOL
REMARK 924 INTRA-LIGAND FREE ENERGY PREDICTED BY IDOCK:   -1.48 KCAL/MOL
REMARK 927      BINDING AFFINITY PREDICTED BY RF-SCORE:    0.00 PKD
ROOT
HETATM    1  C   UNL     1     -12.361   6.657  71.546  1.00  0.00    -0.365 C  
HETATM    2  C   UNL     1     -11.659   7.998  71.835  1.00  0.00    -0.348 C  
HETATM    3  C   UNL     1     -12.723   9.032  72.222  1.00  0.00    -0.457 C  
HETATM    4  C   UNL     1     -10.684   7.791  73.004  1.00  0.00    -0.446 C  
ENDROOT
BRANCH   2   5
HETATM    5  C   UNL     1     -10.874   8.425  70.584  1.00  0.00    -0.231 C  
HETATM    6  O   UNL     1     -10.833   7.758  69.555  1.00  0.00    -0.230 OA 
BRANCH   5   7
HETATM    7  O   UNL     1     -10.150   9.565  70.771  1.00  0.00    -0.279 OA 
BRANCH   7   8
HETATM    8  C   UNL     1      -9.045   9.722  69.862  1.00  0.00    -0.229 C  
BRANCH   8   9
HETATM    9  O   UNL     1      -9.178  10.836  68.984  1.00  0.00    -0.180 OA 
HETATM   10  P   UNL     1      -7.791  11.350  68.305  1.00  0.00    -0.146 P  
HETATM   11  C   UNL     1      -7.228   9.962  67.291  1.00  0.00    -0.086 C  
HETATM   12  O   UNL     1      -6.797  11.878  69.288  1.00  0.00    -0.108 OA 
HETATM   13  O   UNL     1      -8.221  12.358  67.125  1.00  0.00    -0.178 OA 
BRANCH  13  14
HETATM   14  C   UNL     1      -8.647  13.671  67.350  1.00  0.00    -0.209 C  
BRANCH  14  15
HETATM   15  O   UNL     1     -10.040  13.794  66.976  1.00  0.00    -0.249 OA 
BRANCH  15  16
HETATM   16  C   UNL     1     -10.280  14.352  65.756  1.00  0.00    -0.337 C  
HETATM   17  O   UNL     1      -9.731  15.371  65.350  1.00  0.00    -0.307 OA 
BRANCH  16  18
HETATM   18  C   UNL     1     -11.330  13.564  64.945  1.00  0.00    -0.347 C  
HETATM   19  C   UNL     1     -10.620  12.703  63.879  1.00  0.00    -0.460 C  
HETATM   20  C   UNL     1     -12.283  14.528  64.227  1.00  0.00    -0.441 C  
HETATM   21  C   UNL     1     -12.131  12.623  65.857  1.00  0.00    -0.459 C  
ENDBRANCH  16  18
ENDBRANCH  15  16
ENDBRANCH  14  15
ENDBRANCH  13  14
BRANCH  11  22
HETATM   22  O   UNL     1      -8.314   9.713  66.395  1.00  0.00    -0.118 OA 
BRANCH  22  23
HETATM   23  C   UNL     1      -8.797   8.387  66.468  1.00  0.00    -0.147 C  
BRANCH  23  24
HETATM   24  C   UNL     1      -8.292   7.623  65.252  1.00  0.00    -0.115 C  
BRANCH  24  25
HETATM   25  N   UNL     1      -7.543   6.466  65.668  1.00  0.00    -0.082 NA 
HETATM   26  C   UNL     1      -8.090   5.322  66.166  1.00  0.00    -0.109 A  
HETATM   27  N   UNL     1      -9.388   4.977  66.195  1.00  0.00    -0.146 NA 
HETATM   28  H2  UNL     1      -5.876   3.262  68.668  1.00  0.00     0.000 HD 
HETATM   29  H1  UNL     1      -6.587   1.790  68.497  1.00  0.00     0.000 HD 
HETATM   30  C   UNL     1      -6.188   6.403  65.849  1.00  0.00    -0.038 A  
HETATM   31  N   UNL     1      -5.834   5.300  66.473  1.00  0.00    -0.018 NA 
HETATM   32  C   UNL     1      -7.022   4.626  66.700  1.00  0.00    -0.063 A  
HETATM   33  C   UNL     1      -7.324   3.433  67.372  1.00  0.00    -0.059 A  
HETATM   34  N   UNL     1      -6.367   2.658  68.009  1.00  0.00    -0.028 NA 
HETATM   35  N   UNL     1      -8.614   3.019  67.402  1.00  0.00    -0.097 NA 
HETATM   36  C   UNL     1      -9.555   3.798  66.823  1.00  0.00    -0.180 A  
ENDBRANCH  24  25
ENDBRANCH  23  24
ENDBRANCH  22  23
ENDBRANCH  11  22
ENDBRANCH   8   9
ENDBRANCH   7   8
ENDBRANCH   5   7
ENDBRANCH   2   5
TORSDOF 12
ENDMDL
MODEL      202
REMARK 921   NORMALIZED FREE ENERGY PREDICTED BY IDOCK:   -4.21 KCAL/MOL
REMARK 922        TOTAL FREE ENERGY PREDICTED BY IDOCK:   -8.77 KCAL/MOL
REMARK 923 INTER-LIGAND FREE ENERGY PREDICTED BY IDOCK:   -7.27 KCAL/MOL
REMARK 924 INTRA-LIGAND FREE ENERGY PREDICTED BY IDOCK:   -1.50 KCAL/MOL
REMARK 927      BINDING AFFINITY PREDICTED BY RF-SCORE:    0.00 PKD
ROOT
HETATM    1  C   UNL     1      -8.095  17.132  66.678  1.00  0.00    -0.292 C  
HETATM    2  C   UNL     1      -9.591  17.466  66.833  1.00  0.00    -0.279 C  
HETATM    3  C   UNL     1      -9.932  17.497  68.327  1.00  0.00    -0.330 C  
HETATM    4  C   UNL     1      -9.844  18.849  66.212  1.00  0.00    -0.401 C  
ENDROOT
BRANCH   2   5
HETATM    5  C   UNL     1     -10.413  16.409  66.079  1.00  0.00    -0.323 C  
HETATM    6  O   UNL     1     -10.722  16.514  64.895  1.00  0.00    -0.702 OA 
BRANCH   5   7
HETATM    7  O   UNL     1     -10.848  15.398  66.882  1.00  0.00    -0.313 OA 
BRANCH   7   8
HETATM    8  C   UNL     1     -11.026  14.138  66.208  1.00  0.00    -0.303 C  
BRANCH   8   9
HETATM    9  O   UNL     1      -9.867  13.310  66.223  1.00  0.00    -0.277 OA 
HETATM   10  P   UNL     1      -9.358  12.862  67.703  1.00  0.00    -0.214 P  
HETATM   11  C   UNL     1     -10.709  11.867  68.378  1.00  0.00    -0.220 C  
HETATM   12  O   UNL     1      -8.906  14.002  68.557  1.00  0.00    -0.187 OA 
HETATM   13  O   UNL     1      -8.282  11.688  67.466  1.00  0.00    -0.135 OA 
BRANCH  13  14
HETATM   14  C   UNL     1      -6.971  11.919  67.038  1.00  0.00    -0.116 C  
BRANCH  14  15
HETATM   15  O   UNL     1      -6.228  10.677  67.074  1.00  0.00    -0.061 OA 
BRANCH  15  16
HETATM   16  C   UNL     1      -6.651   9.707  66.214  1.00  0.00    -0.071 C  
HETATM   17  O   UNL     1      -6.852   9.894  65.019  1.00  0.00    -0.112 OA 
BRANCH  16  18
HETATM   18  C   UNL     1      -6.858   8.348  66.916  1.00  0.00    -0.069 C  
HETATM   19  C   UNL     1      -5.590   7.484  66.751  1.00  0.00    -0.027 C  
HETATM   20  C   UNL     1      -8.037   7.597  66.285  1.00  0.00    -0.112 C  
HETATM   21  C   UNL     1      -7.108   8.542  68.418  1.00  0.00    -0.084 C  
ENDBRANCH  16  18
ENDBRANCH  15  16
ENDBRANCH  14  15
ENDBRANCH  13  14
BRANCH  11  22
HETATM   22  O   UNL     1     -10.885  10.814  67.427  1.00  0.00    -0.252 OA 
BRANCH  22  23
HETATM   23  C   UNL     1     -10.778   9.528  68.000  1.00  0.00    -0.212 C  
BRANCH  23  24
HETATM   24  C   UNL     1     -10.914   9.660  69.510  1.00  0.00    -0.208 C  
BRANCH  24  25
HETATM   25  N   UNL     1     -10.858   8.363  70.130  1.00  0.00    -0.240 NA 
HETATM   26  C   UNL     1     -10.072   8.042  71.196  1.00  0.00    -0.188 A  
HETATM   27  N   UNL     1      -9.360   8.876  71.971  1.00  0.00    -0.370 NA 
HETATM   28  H2  UNL     1      -8.912   4.302  71.457  1.00  0.00     0.000 HD 
HETATM   29  H1  UNL     1      -8.591   4.238  73.068  1.00  0.00     0.000 HD 
HETATM   30  C   UNL     1     -11.390   7.205  69.631  1.00  0.00    -0.072 A  
HETATM   31  N   UNL     1     -10.959   6.150  70.289  1.00  0.00    -0.320 NA 
HETATM   32  C   UNL     1     -10.110   6.661  71.256  1.00  0.00    -0.188 A  
HETATM   33  C   UNL     1      -9.296   6.054  72.223  1.00  0.00    -0.143 A  
HETATM   34  N   UNL     1      -9.183   4.679  72.365  1.00  0.00    -0.124 NA 
HETATM   35  N   UNL     1      -8.582   6.849  73.057  1.00  0.00    -0.118 NA 
HETATM   36  C   UNL     1      -8.653   8.189  72.889  1.00  0.00    -0.205 A  
ENDBRANCH  24  25
ENDBRANCH  23  24
ENDBRANCH  22  23
ENDBRANCH  11  22
ENDBRANCH   8   9
ENDBRANCH   7   8
ENDBRANCH   5   7
ENDBRANCH   2   5
TORSDOF 12
ENDMDL
MODEL      203
REMARK 921   NORMALIZED FREE ENERGY PREDICTED BY IDOCK:   -4.21 KCAL/MOL
REMARK 922        TOTAL FREE ENERGY PREDICTED BY IDOCK:   -8.76 KCAL/MOL
REMARK 923 INTER-LIGAND FREE ENERGY PREDICTED BY IDOCK:   -7.35 KCAL/MOL
REMARK 924 INTRA-LIGAND FREE ENERGY PREDICTED BY IDOCK:   -1.41 KCAL/MOL
REMARK 927      BINDING AFFINITY PREDICTED BY RF-SCORE:    0.00 PKD
ROOT
HETATM    1  C   UNL     1     -10.702  17.241  67.759  1.00  0.00    -0.333 C  
HETATM    2  C   UNL     1      -9.826  17.030  66.509  1.00  0.00    -0.305 C  
HETATM    3  C   UNL     1     -10.723  17.098  65.268  1.00  0.00    -0.067 C  
HETATM    4  C   UNL     1      -8.779  18.154  66.457  1.00  0.00    -0.286 C  
ENDROOT
BRANCH   2   5
HETATM    5  C   UNL     1      -9.114  15.673  66.628  1.00  0.00    -0.282 C  
HETATM    6  O   UNL     1      -7.901  15.560  66.785  1.00  0.00    -0.217 OA 
BRANCH   5   7
HETATM    7  O   UNL     1      -9.950  14.613  66.442  1.00  0.00    -0.261 OA 
BRANCH   7   8
HETATM    8  C   UNL     1      -9.337  13.328  66.656  1.00  0.00    -0.242 C  
BRANCH   8   9
HETATM    9  O   UNL     1      -9.822  12.646  67.809  1.00  0.00    -0.201 OA 
HETATM   10  P   UNL     1     -10.972  11.531  67.518  1.00  0.00    -0.293 P  
HETATM   11  C   UNL     1     -10.163  10.285  66.486  1.00  0.00    -0.226 C  
HETATM   12  O   UNL     1     -12.240  12.100  66.968  1.00  0.00    -0.522 OA 
HETATM   13  O   UNL     1     -11.114  10.674  68.874  1.00  0.00    -0.226 OA 
BRANCH  13  14
HETATM   14  C   UNL     1     -11.787  11.135  70.010  1.00  0.00    -0.361 C  
BRANCH  14  15
HETATM   15  O   UNL     1     -11.603  10.190  71.092  1.00  0.00    -0.359 OA 
BRANCH  15  16
HETATM   16  C   UNL     1     -12.661   9.371  71.350  1.00  0.00    -0.345 C  
HETATM   17  O   UNL     1     -13.820   9.759  71.445  1.00  0.00    -0.240 OA 
BRANCH  16  18
HETATM   18  C   UNL     1     -12.235   7.897  71.520  1.00  0.00    -0.338 C  
HETATM   19  C   UNL     1     -11.490   7.425  70.254  1.00  0.00    -0.206 C  
HETATM   20  C   UNL     1     -13.467   7.004  71.714  1.00  0.00    -0.307 C  
HETATM   21  C   UNL     1     -11.284   7.738  72.716  1.00  0.00    -0.456 C  
ENDBRANCH  16  18
ENDBRANCH  15  16
ENDBRANCH  14  15
ENDBRANCH  13  14
BRANCH  11  22
HETATM   22  O   UNL     1      -9.046   9.850  67.266  1.00  0.00    -0.134 OA 
BRANCH  22  23
HETATM   23  C   UNL     1      -9.089   8.472  67.573  1.00  0.00    -0.134 C  
BRANCH  23  24
HETATM   24  C   UNL     1      -7.703   8.036  68.027  1.00  0.00    -0.118 C  
BRANCH  24  25
HETATM   25  N   UNL     1      -7.805   6.922  68.934  1.00  0.00    -0.110 NA 
HETATM   26  C   UNL     1      -7.763   7.018  70.292  1.00  0.00    -0.099 A  
HETATM   27  N   UNL     1      -7.806   8.134  71.038  1.00  0.00    -0.084 NA 
HETATM   28  H2  UNL     1      -6.366   3.904  72.228  1.00  0.00     0.000 HD 
HETATM   29  H1  UNL     1      -7.058   4.173  73.695  1.00  0.00     0.000 HD 
HETATM   30  C   UNL     1      -7.729   5.598  68.598  1.00  0.00    -0.092 A  
HETATM   31  N   UNL     1      -7.600   4.836  69.663  1.00  0.00    -0.055 NA 
HETATM   32  C   UNL     1      -7.593   5.718  70.730  1.00  0.00    -0.092 A  
HETATM   33  C   UNL     1      -7.422   5.539  72.110  1.00  0.00    -0.099 A  
HETATM   34  N   UNL     1      -7.182   4.303  72.691  1.00  0.00    -0.069 NA 
HETATM   35  N   UNL     1      -7.491   6.628  72.915  1.00  0.00    -0.088 NA 
HETATM   36  C   UNL     1      -7.677   7.840  72.346  1.00  0.00    -0.101 A  
ENDBRANCH  24  25
ENDBRANCH  23  24
ENDBRANCH  22  23
ENDBRANCH  11  22
ENDBRANCH   8   9
ENDBRANCH   7   8
ENDBRANCH   5   7
ENDBRANCH   2   5
TORSDOF 12
ENDMDL
MODEL      204
REMARK 921   NORMALIZED FREE ENERGY PREDICTED BY IDOCK:   -4.21 KCAL/MOL
REMARK 922        TOTAL FREE ENERGY PREDICTED BY IDOCK:   -8.75 KCAL/MOL
REMARK 923 INTER-LIGAND FREE ENERGY PREDICTED BY IDOCK:   -7.61 KCAL/MOL
REMARK 924 INTRA-LIGAND FREE ENERGY PREDICTED BY IDOCK:   -1.14 KCAL/MOL
REMARK 927      BINDING AFFINITY PREDICTED BY RF-SCORE:    0.00 PKD
ROOT
HETATM    1  C   UNL     1      -7.813  16.720  66.417  1.00  0.00    -0.353 C  
HETATM    2  C   UNL     1      -8.927  17.702  66.830  1.00  0.00    -0.272 C  
HETATM    3  C   UNL     1      -8.928  17.824  68.358  1.00  0.00    -0.281 C  
HETATM    4  C   UNL     1      -8.623  19.070  66.198  1.00  0.00    -0.208 C  
ENDROOT
BRANCH   2   5
HETATM    5  C   UNL     1     -10.270  17.180  66.295  1.00  0.00    -0.334 C  
HETATM    6  O   UNL     1     -10.710  17.465  65.185  1.00  0.00    -0.684 OA 
BRANCH   5   7
HETATM    7  O   UNL     1     -10.964  16.452  67.215  1.00  0.00    -0.249 OA 
BRANCH   7   8
HETATM    8  C   UNL     1     -11.459  15.192  66.725  1.00  0.00    -0.195 C  
BRANCH   8   9
HETATM    9  O   UNL     1     -10.469  14.170  66.664  1.00  0.00    -0.274 OA 
HETATM   10  P   UNL     1      -9.998  13.578  68.105  1.00  0.00    -0.242 P  
HETATM   11  C   UNL     1     -11.483  12.814  68.802  1.00  0.00    -0.304 C  
HETATM   12  O   UNL     1      -9.319  14.583  68.978  1.00  0.00    -0.168 OA 
HETATM   13  O   UNL     1      -9.160  12.241  67.785  1.00  0.00    -0.176 OA 
BRANCH  13  14
HETATM   14  C   UNL     1      -7.844  12.251  67.311  1.00  0.00    -0.171 C  
BRANCH  14  15
HETATM   15  O   UNL     1      -7.545  10.974  66.700  1.00  0.00    -0.134 OA 
BRANCH  15  16
HETATM   16  C   UNL     1      -6.594  10.991  65.724  1.00  0.00     0.073 C  
HETATM   17  O   UNL     1      -5.555  11.638  65.792  1.00  0.00    -0.098 OA 
BRANCH  16  18
HETATM   18  C   UNL     1      -6.977  10.111  64.514  1.00  0.00    -0.117 C  
HETATM   19  C   UNL     1      -8.471  10.308  64.185  1.00  0.00    -0.180 C  
HETATM   20  C   UNL     1      -6.748   8.630  64.840  1.00  0.00    -0.068 C  
HETATM   21  C   UNL     1      -6.161  10.503  63.274  1.00  0.00    -0.062 C  
ENDBRANCH  16  18
ENDBRANCH  15  16
ENDBRANCH  14  15
ENDBRANCH  13  14
BRANCH  11  22
HETATM   22  O   UNL     1     -11.878  11.850  67.823  1.00  0.00    -0.518 OA 
BRANCH  22  23
HETATM   23  C   UNL     1     -11.625  10.519  68.225  1.00  0.00    -0.101 C  
BRANCH  23  24
HETATM   24  C   UNL     1     -11.376  10.509  69.727  1.00  0.00    -0.300 C  
BRANCH  24  25
HETATM   25  N   UNL     1     -10.584   9.364  70.091  1.00  0.00    -0.223 NA 
HETATM   26  C   UNL     1     -11.044   8.289  70.790  1.00  0.00    -0.258 A  
HETATM   27  N   UNL     1     -12.317   7.999  71.106  1.00  0.00    -0.264 NA 
HETATM   28  H2  UNL     1      -8.419   6.367  72.984  1.00  0.00     0.000 HD 
HETATM   29  H1  UNL     1      -9.180   4.914  73.094  1.00  0.00     0.000 HD 
HETATM   30  C   UNL     1      -9.222   9.264  70.006  1.00  0.00    -0.210 A  
HETATM   31  N   UNL     1      -8.773   8.205  70.646  1.00  0.00    -0.132 NA 
HETATM   32  C   UNL     1      -9.906   7.600  71.165  1.00  0.00    -0.173 A  
HETATM   33  C   UNL     1     -10.092   6.482  71.990  1.00  0.00    -0.184 A  
HETATM   34  N   UNL     1      -9.044   5.728  72.494  1.00  0.00    -0.137 NA 
HETATM   35  N   UNL     1     -11.359   6.122  72.312  1.00  0.00    -0.286 NA 
HETATM   36  C   UNL     1     -12.380   6.885  71.861  1.00  0.00    -0.325 A  
ENDBRANCH  24  25
ENDBRANCH  23  24
ENDBRANCH  22  23
ENDBRANCH  11  22
ENDBRANCH   8   9
ENDBRANCH   7   8
ENDBRANCH   5   7
ENDBRANCH   2   5
TORSDOF 12
ENDMDL
MODEL      205
REMARK 921   NORMALIZED FREE ENERGY PREDICTED BY IDOCK:   -4.21 KCAL/MOL
REMARK 922        TOTAL FREE ENERGY PREDICTED BY IDOCK:   -8.75 KCAL/MOL
REMARK 923 INTER-LIGAND FREE ENERGY PREDICTED BY IDOCK:   -7.31 KCAL/MOL
REMARK 924 INTRA-LIGAND FREE ENERGY PREDICTED BY IDOCK:   -1.45 KCAL/MOL
REMARK 927      BINDING AFFINITY PREDICTED BY RF-SCORE:    0.00 PKD
ROOT
HETATM    1  C   UNL     1     -11.433  15.276  71.639  1.00  0.00    -0.471 C  
HETATM    2  C   UNL     1     -12.499  14.456  70.888  1.00  0.00    -0.424 C  
HETATM    3  C   UNL     1     -12.808  13.195  71.703  1.00  0.00    -0.388 C  
HETATM    4  C   UNL     1     -13.767  15.315  70.757  1.00  0.00    -0.255 C  
ENDROOT
BRANCH   2   5
HETATM    5  C   UNL     1     -11.965  14.117  69.487  1.00  0.00    -0.340 C  
HETATM    6  O   UNL     1     -12.634  14.235  68.464  1.00  0.00     0.051 OA 
BRANCH   5   7
HETATM    7  O   UNL     1     -10.713  13.579  69.509  1.00  0.00    -0.002 OA 
BRANCH   7   8
HETATM    8  C   UNL     1     -10.260  13.078  68.237  1.00  0.00    -0.246 C  
BRANCH   8   9
HETATM    9  O   UNL     1      -9.268  13.892  67.619  1.00  0.00    -0.185 OA 
HETATM   10  P   UNL     1      -7.843  13.959  68.403  1.00  0.00    -0.135 P  
HETATM   11  C   UNL     1      -7.212  12.264  68.365  1.00  0.00    -0.102 C  
HETATM   12  O   UNL     1      -7.927  14.587  69.756  1.00  0.00     0.117 OA 
HETATM   13  O   UNL     1      -6.802  14.632  67.376  1.00  0.00    -0.215 OA 
BRANCH  13  14
HETATM   14  C   UNL     1      -6.765  16.004  67.104  1.00  0.00    -0.170 C  
BRANCH  14  15
HETATM   15  O   UNL     1      -8.110  16.537  67.145  1.00  0.00    -0.161 OA 
BRANCH  15  16
HETATM   16  C   UNL     1      -8.276  17.772  66.591  1.00  0.00    -0.259 C  
HETATM   17  O   UNL     1      -7.580  18.214  65.685  1.00  0.00    -0.538 OA 
BRANCH  16  18
HETATM   18  C   UNL     1      -9.435  18.557  67.243  1.00  0.00    -0.296 C  
HETATM   19  C   UNL     1     -10.370  17.578  67.982  1.00  0.00    -0.368 C  
HETATM   20  C   UNL     1     -10.254  19.286  66.170  1.00  0.00    -0.549 C  
HETATM   21  C   UNL     1      -8.902  19.569  68.267  1.00  0.00    -0.383 C  
ENDBRANCH  16  18
ENDBRANCH  15  16
ENDBRANCH  14  15
ENDBRANCH  13  14
BRANCH  11  22
HETATM   22  O   UNL     1      -7.152  11.938  66.974  1.00  0.00    -0.142 OA 
BRANCH  22  23
HETATM   23  C   UNL     1      -7.226  10.549  66.728  1.00  0.00    -0.114 C  
BRANCH  23  24
HETATM   24  C   UNL     1      -8.544  10.031  67.286  1.00  0.00    -0.125 C  
BRANCH  24  25
HETATM   25  N   UNL     1      -8.300   9.122  68.375  1.00  0.00    -0.119 NA 
HETATM   26  C   UNL     1      -9.009   9.091  69.537  1.00  0.00    -0.147 A  
HETATM   27  N   UNL     1     -10.149   9.742  69.821  1.00  0.00    -0.223 NA 
HETATM   28  H2  UNL     1      -7.097   7.836  72.727  1.00  0.00     0.000 HD 
HETATM   29  H1  UNL     1      -8.384   7.375  73.640  1.00  0.00     0.000 HD 
HETATM   30  C   UNL     1      -7.204   8.316  68.524  1.00  0.00    -0.088 A  
HETATM   31  N   UNL     1      -7.145   7.798  69.733  1.00  0.00    -0.064 NA 
HETATM   32  C   UNL     1      -8.258   8.299  70.386  1.00  0.00    -0.114 A  
HETATM   33  C   UNL     1      -8.722   8.176  71.703  1.00  0.00    -0.145 A  
HETATM   34  N   UNL     1      -8.046   7.464  72.682  1.00  0.00    -0.101 NA 
HETATM   35  N   UNL     1      -9.887   8.784  72.036  1.00  0.00    -0.319 NA 
HETATM   36  C   UNL     1     -10.523   9.517  71.095  1.00  0.00    -0.288 A  
ENDBRANCH  24  25
ENDBRANCH  23  24
ENDBRANCH  22  23
ENDBRANCH  11  22
ENDBRANCH   8   9
ENDBRANCH   7   8
ENDBRANCH   5   7
ENDBRANCH   2   5
TORSDOF 12
ENDMDL
MODEL      206
REMARK 921   NORMALIZED FREE ENERGY PREDICTED BY IDOCK:   -4.20 KCAL/MOL
REMARK 922        TOTAL FREE ENERGY PREDICTED BY IDOCK:   -8.74 KCAL/MOL
REMARK 923 INTER-LIGAND FREE ENERGY PREDICTED BY IDOCK:   -7.36 KCAL/MOL
REMARK 924 INTRA-LIGAND FREE ENERGY PREDICTED BY IDOCK:   -1.38 KCAL/MOL
REMARK 927      BINDING AFFINITY PREDICTED BY RF-SCORE:    0.00 PKD
ROOT
HETATM    1  C   UNL     1     -10.845  14.378  64.561  1.00  0.00    -0.271 C  
HETATM    2  C   UNL     1     -11.858  13.234  64.758  1.00  0.00    -0.411 C  
HETATM    3  C   UNL     1     -13.019  13.753  65.614  1.00  0.00    -0.346 C  
HETATM    4  C   UNL     1     -12.379  12.807  63.377  1.00  0.00    -0.531 C  
ENDROOT
BRANCH   2   5
HETATM    5  C   UNL     1     -11.141  12.047  65.423  1.00  0.00    -0.320 C  
HETATM    6  O   UNL     1     -10.584  11.156  64.789  1.00  0.00    -0.317 OA 
BRANCH   5   7
HETATM    7  O   UNL     1     -11.274  12.036  66.779  1.00  0.00    -0.287 OA 
BRANCH   7   8
HETATM    8  C   UNL     1     -10.036  12.192  67.498  1.00  0.00    -0.196 C  
BRANCH   8   9
HETATM    9  O   UNL     1      -9.216  13.248  67.006  1.00  0.00    -0.222 OA 
HETATM   10  P   UNL     1      -8.525  14.176  68.151  1.00  0.00    -0.191 P  
HETATM   11  C   UNL     1      -7.432  13.058  69.060  1.00  0.00     0.097 C  
HETATM   12  O   UNL     1      -9.505  14.939  68.982  1.00  0.00    -0.210 OA 
HETATM   13  O   UNL     1      -7.406  15.054  67.395  1.00  0.00    -0.189 OA 
BRANCH  13  14
HETATM   14  C   UNL     1      -7.704  16.171  66.608  1.00  0.00    -0.230 C  
BRANCH  14  15
HETATM   15  O   UNL     1      -7.898  17.322  67.463  1.00  0.00    -0.177 OA 
BRANCH  15  16
HETATM   16  C   UNL     1      -8.555  18.376  66.900  1.00  0.00    -0.271 C  
HETATM   17  O   UNL     1      -8.824  18.456  65.707  1.00  0.00    -0.433 OA 
BRANCH  16  18
HETATM   18  C   UNL     1      -8.913  19.465  67.933  1.00  0.00    -0.369 C  
HETATM   19  C   UNL     1      -9.318  20.760  67.199  1.00  0.00    -0.402 C  
HETATM   20  C   UNL     1      -7.703  19.775  68.823  1.00  0.00    -0.273 C  
HETATM   21  C   UNL     1     -10.099  19.023  68.804  1.00  0.00    -0.429 C  
ENDBRANCH  16  18
ENDBRANCH  15  16
ENDBRANCH  14  15
ENDBRANCH  13  14
BRANCH  11  22
HETATM   22  O   UNL     1      -6.555  12.530  68.062  1.00  0.00    -0.068 OA 
BRANCH  22  23
HETATM   23  C   UNL     1      -6.189  11.187  68.303  1.00  0.00    -0.049 C  
BRANCH  23  24
HETATM   24  C   UNL     1      -7.208  10.573  69.252  1.00  0.00    -0.103 C  
BRANCH  24  25
HETATM   25  N   UNL     1      -7.313   9.156  69.021  1.00  0.00    -0.072 NA 
HETATM   26  C   UNL     1      -8.056   8.581  68.034  1.00  0.00    -0.115 A  
HETATM   27  N   UNL     1      -8.666   9.191  67.004  1.00  0.00    -0.123 NA 
HETATM   28  H2  UNL     1      -9.441   4.980  68.752  1.00  0.00     0.000 HD 
HETATM   29  H1  UNL     1      -9.672   4.474  67.205  1.00  0.00     0.000 HD 
HETATM   30  C   UNL     1      -6.888   8.166  69.864  1.00  0.00    -0.044 A  
HETATM   31  N   UNL     1      -7.349   6.988  69.499  1.00  0.00    -0.091 NA 
HETATM   32  C   UNL     1      -8.105   7.241  68.368  1.00  0.00    -0.125 A  
HETATM   33  C   UNL     1      -8.900   6.421  67.554  1.00  0.00    -0.111 A  
HETATM   34  N   UNL     1      -9.094   5.070  67.798  1.00  0.00    -0.111 NA 
HETATM   35  N   UNL     1      -9.511   6.977  66.480  1.00  0.00    -0.167 NA 
HETATM   36  C   UNL     1      -9.363   8.304  66.268  1.00  0.00    -0.204 A  
ENDBRANCH  24  25
ENDBRANCH  23  24
ENDBRANCH  22  23
ENDBRANCH  11  22
ENDBRANCH   8   9
ENDBRANCH   7   8
ENDBRANCH   5   7
ENDBRANCH   2   5
TORSDOF 12
ENDMDL
MODEL      207
REMARK 921   NORMALIZED FREE ENERGY PREDICTED BY IDOCK:   -4.19 KCAL/MOL
REMARK 922        TOTAL FREE ENERGY PREDICTED BY IDOCK:   -8.73 KCAL/MOL
REMARK 923 INTER-LIGAND FREE ENERGY PREDICTED BY IDOCK:   -7.53 KCAL/MOL
REMARK 924 INTRA-LIGAND FREE ENERGY PREDICTED BY IDOCK:   -1.20 KCAL/MOL
REMARK 927      BINDING AFFINITY PREDICTED BY RF-SCORE:    0.00 PKD
ROOT
HETATM    1  C   UNL     1     -12.755   6.959  71.188  1.00  0.00    -0.331 C  
HETATM    2  C   UNL     1     -11.431   7.709  71.434  1.00  0.00    -0.290 C  
HETATM    3  C   UNL     1     -11.281   7.950  72.941  1.00  0.00    -0.429 C  
HETATM    4  C   UNL     1     -10.277   6.830  70.930  1.00  0.00    -0.215 C  
ENDROOT
BRANCH   2   5
HETATM    5  C   UNL     1     -11.454   9.026  70.642  1.00  0.00    -0.248 C  
HETATM    6  O   UNL     1     -12.266   9.923  70.850  1.00  0.00    -0.300 OA 
BRANCH   5   7
HETATM    7  O   UNL     1     -10.549   9.051  69.623  1.00  0.00    -0.219 OA 
BRANCH   7   8
HETATM    8  C   UNL     1      -9.839  10.297  69.492  1.00  0.00    -0.220 C  
BRANCH   8   9
HETATM    9  O   UNL     1      -9.225  10.476  68.218  1.00  0.00    -0.143 OA 
HETATM   10  P   UNL     1     -10.251  10.494  66.954  1.00  0.00    -0.243 P  
HETATM   11  C   UNL     1     -11.300  11.942  67.227  1.00  0.00    -0.329 C  
HETATM   12  O   UNL     1     -10.974   9.203  66.745  1.00  0.00    -0.018 OA 
HETATM   13  O   UNL     1      -9.401  11.038  65.700  1.00  0.00    -0.199 OA 
BRANCH  13  14
HETATM   14  C   UNL     1      -8.479  10.257  64.996  1.00  0.00    -0.172 C  
BRANCH  14  15
HETATM   15  O   UNL     1      -7.390   9.891  65.876  1.00  0.00    -0.099 OA 
BRANCH  15  16
HETATM   16  C   UNL     1      -6.812   8.680  65.634  1.00  0.00    -0.071 C  
HETATM   17  O   UNL     1      -6.463   8.298  64.523  1.00  0.00    -0.064 OA 
BRANCH  16  18
HETATM   18  C   UNL     1      -6.657   7.836  66.917  1.00  0.00    -0.059 C  
HETATM   19  C   UNL     1      -6.342   8.763  68.109  1.00  0.00    -0.056 C  
HETATM   20  C   UNL     1      -5.501   6.840  66.763  1.00  0.00    -0.017 C  
HETATM   21  C   UNL     1      -7.956   7.080  67.234  1.00  0.00    -0.111 C  
ENDBRANCH  16  18
ENDBRANCH  15  16
ENDBRANCH  14  15
ENDBRANCH  13  14
BRANCH  11  22
HETATM   22  O   UNL     1     -10.382  13.035  67.310  1.00  0.00    -0.236 OA 
BRANCH  22  23
HETATM   23  C   UNL     1     -10.510  13.775  68.506  1.00  0.00    -0.244 C  
BRANCH  23  24
HETATM   24  C   UNL     1     -11.182  15.102  68.181  1.00  0.00    -0.320 C  
BRANCH  24  25
HETATM   25  N   UNL     1     -10.368  15.862  67.269  1.00  0.00    -0.286 NA 
HETATM   26  C   UNL     1      -9.212  16.499  67.603  1.00  0.00    -0.200 A  
HETATM   27  N   UNL     1      -8.522  16.402  68.752  1.00  0.00    -0.238 NA 
HETATM   28  H2  UNL     1      -8.296  19.688  65.506  1.00  0.00     0.000 HD 
HETATM   29  H1  UNL     1      -6.675  19.724  65.777  1.00  0.00     0.000 HD 
HETATM   30  C   UNL     1     -10.722  16.257  66.008  1.00  0.00    -0.214 A  
HETATM   31  N   UNL     1      -9.880  17.146  65.525  1.00  0.00    -0.514 NA 
HETATM   32  C   UNL     1      -8.943  17.325  66.528  1.00  0.00    -0.268 A  
HETATM   33  C   UNL     1      -7.838  18.179  66.654  1.00  0.00    -0.242 A  
HETATM   34  N   UNL     1      -7.479  19.104  65.685  1.00  0.00    -0.465 NA 
HETATM   35  N   UNL     1      -7.085  18.098  67.778  1.00  0.00    -0.209 NA 
HETATM   36  C   UNL     1      -7.461  17.230  68.745  1.00  0.00    -0.260 A  
ENDBRANCH  24  25
ENDBRANCH  23  24
ENDBRANCH  22  23
ENDBRANCH  11  22
ENDBRANCH   8   9
ENDBRANCH   7   8
ENDBRANCH   5   7
ENDBRANCH   2   5
TORSDOF 12
ENDMDL
MODEL      208
REMARK 921   NORMALIZED FREE ENERGY PREDICTED BY IDOCK:   -4.19 KCAL/MOL
REMARK 922        TOTAL FREE ENERGY PREDICTED BY IDOCK:   -8.73 KCAL/MOL
REMARK 923 INTER-LIGAND FREE ENERGY PREDICTED BY IDOCK:   -7.13 KCAL/MOL
REMARK 924 INTRA-LIGAND FREE ENERGY PREDICTED BY IDOCK:   -1.60 KCAL/MOL
REMARK 927      BINDING AFFINITY PREDICTED BY RF-SCORE:    0.00 PKD
ROOT
HETATM    1  C   UNL     1     -10.814  14.549  64.761  1.00  0.00    -0.410 C  
HETATM    2  C   UNL     1     -11.493  13.208  64.421  1.00  0.00    -0.407 C  
HETATM    3  C   UNL     1     -12.327  12.764  65.628  1.00  0.00    -0.444 C  
HETATM    4  C   UNL     1     -12.409  13.425  63.206  1.00  0.00    -0.244 C  
ENDROOT
BRANCH   2   5
HETATM    5  C   UNL     1     -10.407  12.181  64.064  1.00  0.00    -0.385 C  
HETATM    6  O   UNL     1      -9.776  12.205  63.011  1.00  0.00    -0.347 OA 
BRANCH   5   7
HETATM    7  O   UNL     1     -10.288  11.188  64.990  1.00  0.00    -0.272 OA 
BRANCH   7   8
HETATM    8  C   UNL     1      -9.121  11.293  65.827  1.00  0.00    -0.203 C  
BRANCH   8   9
HETATM    9  O   UNL     1      -9.010  12.543  66.502  1.00  0.00    -0.207 OA 
HETATM   10  P   UNL     1      -9.023  12.454  68.128  1.00  0.00    -0.158 P  
HETATM   11  C   UNL     1      -7.542  11.507  68.553  1.00  0.00    -0.130 C  
HETATM   12  O   UNL     1     -10.306  11.936  68.693  1.00  0.00    -0.214 OA 
HETATM   13  O   UNL     1      -8.552  13.900  68.656  1.00  0.00    -0.155 OA 
BRANCH  13  14
HETATM   14  C   UNL     1      -9.382  15.025  68.668  1.00  0.00    -0.202 C  
BRANCH  14  15
HETATM   15  O   UNL     1      -8.968  15.938  67.624  1.00  0.00    -0.187 OA 
BRANCH  15  16
HETATM   16  C   UNL     1      -9.615  17.138  67.594  1.00  0.00    -0.254 C  
HETATM   17  O   UNL     1     -10.813  17.275  67.818  1.00  0.00    -0.351 OA 
BRANCH  16  18
HETATM   18  C   UNL     1      -8.671  18.305  67.235  1.00  0.00    -0.255 C  
HETATM   19  C   UNL     1      -7.580  17.807  66.266  1.00  0.00    -0.322 C  
HETATM   20  C   UNL     1      -7.985  18.843  68.497  1.00  0.00    -0.382 C  
HETATM   21  C   UNL     1      -9.443  19.437  66.540  1.00  0.00    -0.427 C  
ENDBRANCH  16  18
ENDBRANCH  15  16
ENDBRANCH  14  15
ENDBRANCH  13  14
BRANCH  11  22
HETATM   22  O   UNL     1      -6.467  12.248  67.971  1.00  0.00    -0.063 OA 
BRANCH  22  23
HETATM   23  C   UNL     1      -5.637  11.461  67.143  1.00  0.00    -0.087 C  
BRANCH  23  24
HETATM   24  C   UNL     1      -5.796  10.002  67.549  1.00  0.00    -0.049 C  
BRANCH  24  25
HETATM   25  N   UNL     1      -6.387   9.249  66.474  1.00  0.00    -0.065 NA 
HETATM   26  C   UNL     1      -7.254   8.211  66.636  1.00  0.00    -0.081 A  
HETATM   27  N   UNL     1      -7.857   7.813  67.768  1.00  0.00    -0.121 NA 
HETATM   28  H2  UNL     1      -7.250   5.468  63.829  1.00  0.00     0.000 HD 
HETATM   29  H1  UNL     1      -8.752   4.844  64.069  1.00  0.00     0.000 HD 
HETATM   30  C   UNL     1      -6.014   9.290  65.158  1.00  0.00    -0.060 A  
HETATM   31  N   UNL     1      -6.561   8.311  64.469  1.00  0.00    -0.065 NA 
HETATM   32  C   UNL     1      -7.319   7.612  65.392  1.00  0.00    -0.071 A  
HETATM   33  C   UNL     1      -8.084   6.440  65.300  1.00  0.00    -0.133 A  
HETATM   34  N   UNL     1      -8.196   5.697  64.135  1.00  0.00    -0.128 NA 
HETATM   35  N   UNL     1      -8.744   6.012  66.404  1.00  0.00    -0.128 NA 
HETATM   36  C   UNL     1      -8.597   6.709  67.554  1.00  0.00    -0.120 A  
ENDBRANCH  24  25
ENDBRANCH  23  24
ENDBRANCH  22  23
ENDBRANCH  11  22
ENDBRANCH   8   9
ENDBRANCH   7   8
ENDBRANCH   5   7
ENDBRANCH   2   5
TORSDOF 12
ENDMDL
MODEL      209
REMARK 921   NORMALIZED FREE ENERGY PREDICTED BY IDOCK:   -4.19 KCAL/MOL
REMARK 922        TOTAL FREE ENERGY PREDICTED BY IDOCK:   -8.72 KCAL/MOL
REMARK 923 INTER-LIGAND FREE ENERGY PREDICTED BY IDOCK:   -7.46 KCAL/MOL
REMARK 924 INTRA-LIGAND FREE ENERGY PREDICTED BY IDOCK:   -1.25 KCAL/MOL
REMARK 927      BINDING AFFINITY PREDICTED BY RF-SCORE:    0.00 PKD
ROOT
HETATM    1  C   UNL     1      -9.431  13.106  66.693  1.00  0.00    -0.260 C  
HETATM    2  C   UNL     1     -10.627  13.003  65.726  1.00  0.00    -0.291 C  
HETATM    3  C   UNL     1     -11.916  12.918  66.552  1.00  0.00    -0.447 C  
HETATM    4  C   UNL     1     -10.652  14.267  64.851  1.00  0.00    -0.452 C  
ENDROOT
BRANCH   2   5
HETATM    5  C   UNL     1     -10.435  11.767  64.833  1.00  0.00    -0.287 C  
HETATM    6  O   UNL     1     -10.155  11.835  63.639  1.00  0.00    -0.345 OA 
BRANCH   5   7
HETATM    7  O   UNL     1     -10.706  10.597  65.476  1.00  0.00    -0.165 OA 
BRANCH   7   8
HETATM    8  C   UNL     1      -9.631   9.640  65.446  1.00  0.00    -0.291 C  
BRANCH   8   9
HETATM    9  O   UNL     1      -9.959   8.388  66.042  1.00  0.00    -0.153 OA 
HETATM   10  P   UNL     1      -8.781   7.266  65.985  1.00  0.00    -0.093 P  
HETATM   11  C   UNL     1      -7.428   7.962  66.963  1.00  0.00    -0.092 C  
HETATM   12  O   UNL     1      -8.423   6.837  64.599  1.00  0.00    -0.019 OA 
HETATM   13  O   UNL     1      -9.236   6.094  66.991  1.00  0.00    -0.119 OA 
BRANCH  13  14
HETATM   14  C   UNL     1     -10.214   5.145  66.678  1.00  0.00    -0.261 C  
BRANCH  14  15
HETATM   15  O   UNL     1      -9.974   4.630  65.346  1.00  0.00    -0.182 OA 
BRANCH  15  16
HETATM   16  C   UNL     1      -9.340   3.425  65.281  1.00  0.00    -0.155 C  
HETATM   17  O   UNL     1      -8.865   2.848  66.253  1.00  0.00    -0.131 OA 
BRANCH  16  18
HETATM   18  C   UNL     1      -9.275   2.872  63.841  1.00  0.00    -0.106 C  
HETATM   19  C   UNL     1      -9.658   3.985  62.844  1.00  0.00    -0.139 C  
HETATM   20  C   UNL     1     -10.265   1.713  63.671  1.00  0.00    -0.116 C  
HETATM   21  C   UNL     1      -7.855   2.398  63.501  1.00  0.00    -0.068 C  
ENDBRANCH  16  18
ENDBRANCH  15  16
ENDBRANCH  14  15
ENDBRANCH  13  14
BRANCH  11  22
HETATM   22  O   UNL     1      -8.007   8.204  68.248  1.00  0.00    -0.119 OA 
BRANCH  22  23
HETATM   23  C   UNL     1      -7.899   9.551  68.658  1.00  0.00    -0.084 C  
BRANCH  23  24
HETATM   24  C   UNL     1      -8.230   9.631  70.142  1.00  0.00    -0.187 C  
BRANCH  24  25
HETATM   25  N   UNL     1      -9.647   9.803  70.327  1.00  0.00    -0.247 NA 
HETATM   26  C   UNL     1     -10.396   9.148  71.257  1.00  0.00    -0.334 A  
HETATM   27  N   UNL     1      -9.962   8.381  72.270  1.00  0.00    -0.291 NA 
HETATM   28  H2  UNL     1     -14.171   8.552  70.364  1.00  0.00     0.000 HD 
HETATM   29  H1  UNL     1     -14.773   8.359  71.881  1.00  0.00     0.000 HD 
HETATM   30  C   UNL     1     -10.498  10.458  69.479  1.00  0.00    -0.247 A  
HETATM   31  N   UNL     1     -11.757  10.228  69.785  1.00  0.00    -0.222 NA 
HETATM   32  C   UNL     1     -11.706   9.386  70.882  1.00  0.00    -0.308 A  
HETATM   33  C   UNL     1     -12.699   8.736  71.629  1.00  0.00    -0.348 A  
HETATM   34  N   UNL     1     -14.051   8.831  71.337  1.00  0.00    -0.323 NA 
HETATM   35  N   UNL     1     -12.319   7.978  72.686  1.00  0.00    -0.194 NA 
HETATM   36  C   UNL     1     -10.998   7.846  72.943  1.00  0.00    -0.388 A  
ENDBRANCH  24  25
ENDBRANCH  23  24
ENDBRANCH  22  23
ENDBRANCH  11  22
ENDBRANCH   8   9
ENDBRANCH   7   8
ENDBRANCH   5   7
ENDBRANCH   2   5
TORSDOF 12
ENDMDL
MODEL      210
REMARK 921   NORMALIZED FREE ENERGY PREDICTED BY IDOCK:   -4.18 KCAL/MOL
REMARK 922        TOTAL FREE ENERGY PREDICTED BY IDOCK:   -8.72 KCAL/MOL
REMARK 923 INTER-LIGAND FREE ENERGY PREDICTED BY IDOCK:   -7.55 KCAL/MOL
REMARK 924 INTRA-LIGAND FREE ENERGY PREDICTED BY IDOCK:   -1.16 KCAL/MOL
REMARK 927      BINDING AFFINITY PREDICTED BY RF-SCORE:    0.00 PKD
ROOT
HETATM    1  C   UNL     1      -5.214  15.316  68.721  1.00  0.00    -0.095 C  
HETATM    2  C   UNL     1      -6.601  14.645  68.730  1.00  0.00    -0.090 C  
HETATM    3  C   UNL     1      -7.539  15.476  69.613  1.00  0.00    -0.144 C  
HETATM    4  C   UNL     1      -7.133  14.615  67.289  1.00  0.00    -0.030 C  
ENDROOT
BRANCH   2   5
HETATM    5  C   UNL     1      -6.451  13.206  69.248  1.00  0.00    -0.107 C  
HETATM    6  O   UNL     1      -5.953  12.930  70.336  1.00  0.00    -0.162 OA 
BRANCH   5   7
HETATM    7  O   UNL     1      -6.834  12.268  68.337  1.00  0.00    -0.064 OA 
BRANCH   7   8
HETATM    8  C   UNL     1      -7.870  11.380  68.798  1.00  0.00    -0.128 C  
BRANCH   8   9
HETATM    9  O   UNL     1      -9.171  11.726  68.333  1.00  0.00    -0.183 OA 
HETATM   10  P   UNL     1     -10.073  10.476  67.811  1.00  0.00    -0.195 P  
HETATM   11  C   UNL     1     -10.309   9.432  69.269  1.00  0.00    -0.208 C  
HETATM   12  O   UNL     1      -9.513   9.788  66.608  1.00  0.00    -0.158 OA 
HETATM   13  O   UNL     1     -11.574  11.040  67.666  1.00  0.00    -0.526 OA 
BRANCH  13  14
HETATM   14  C   UNL     1     -11.996  11.844  66.602  1.00  0.00     0.114 C  
BRANCH  14  15
HETATM   15  O   UNL     1     -12.083  13.219  67.046  1.00  0.00    -0.375 OA 
BRANCH  15  16
HETATM   16  C   UNL     1     -12.348  14.140  66.076  1.00  0.00    -0.445 C  
HETATM   17  O   UNL     1     -13.455  14.309  65.577  1.00  0.00    -0.580 OA 
BRANCH  16  18
HETATM   18  C   UNL     1     -11.094  14.942  65.669  1.00  0.00    -0.348 C  
HETATM   19  C   UNL     1     -10.683  15.880  66.822  1.00  0.00    -0.281 C  
HETATM   20  C   UNL     1     -11.389  15.801  64.432  1.00  0.00    -0.274 C  
HETATM   21  C   UNL     1      -9.914  14.001  65.379  1.00  0.00    -0.292 C  
ENDBRANCH  16  18
ENDBRANCH  15  16
ENDBRANCH  14  15
ENDBRANCH  13  14
BRANCH  11  22
HETATM   22  O   UNL     1     -10.924  10.296  70.228  1.00  0.00    -0.286 OA 
BRANCH  22  23
HETATM   23  C   UNL     1     -11.575   9.594  71.267  1.00  0.00    -0.393 C  
BRANCH  23  24
HETATM   24  C   UNL     1     -11.726   8.139  70.844  1.00  0.00    -0.244 C  
BRANCH  24  25
HETATM   25  N   UNL     1     -11.076   7.276  71.795  1.00  0.00    -0.232 NA 
HETATM   26  C   UNL     1     -10.593   6.033  71.514  1.00  0.00    -0.243 A  
HETATM   27  N   UNL     1     -10.459   5.457  70.308  1.00  0.00    -0.288 NA 
HETATM   28  H2  UNL     1     -10.527   3.465  74.482  1.00  0.00     0.000 HD 
HETATM   29  H1  UNL     1      -9.371   2.441  73.918  1.00  0.00     0.000 HD 
HETATM   30  C   UNL     1     -11.040   7.450  73.152  1.00  0.00    -0.309 A  
HETATM   31  N   UNL     1     -10.598   6.373  73.766  1.00  0.00    -0.286 NA 
HETATM   32  C   UNL     1     -10.340   5.468  72.750  1.00  0.00    -0.194 A  
HETATM   33  C   UNL     1      -9.916   4.132  72.753  1.00  0.00    -0.151 A  
HETATM   34  N   UNL     1      -9.680   3.413  73.916  1.00  0.00    -0.102 NA 
HETATM   35  N   UNL     1      -9.730   3.511  71.563  1.00  0.00    -0.165 NA 
HETATM   36  C   UNL     1     -10.005   4.195  70.430  1.00  0.00    -0.093 A  
ENDBRANCH  24  25
ENDBRANCH  23  24
ENDBRANCH  22  23
ENDBRANCH  11  22
ENDBRANCH   8   9
ENDBRANCH   7   8
ENDBRANCH   5   7
ENDBRANCH   2   5
TORSDOF 12
ENDMDL
MODEL      211
REMARK 921   NORMALIZED FREE ENERGY PREDICTED BY IDOCK:   -4.17 KCAL/MOL
REMARK 922        TOTAL FREE ENERGY PREDICTED BY IDOCK:   -8.69 KCAL/MOL
REMARK 923 INTER-LIGAND FREE ENERGY PREDICTED BY IDOCK:   -7.13 KCAL/MOL
REMARK 924 INTRA-LIGAND FREE ENERGY PREDICTED BY IDOCK:   -1.56 KCAL/MOL
REMARK 927      BINDING AFFINITY PREDICTED BY RF-SCORE:    0.00 PKD
ROOT
HETATM    1  C   UNL     1     -10.139  11.915  63.147  1.00  0.00    -0.341 C  
HETATM    2  C   UNL     1     -11.215  12.355  64.158  1.00  0.00    -0.434 C  
HETATM    3  C   UNL     1     -11.119  13.874  64.342  1.00  0.00    -0.332 C  
HETATM    4  C   UNL     1     -12.594  11.986  63.588  1.00  0.00    -0.605 C  
ENDROOT
BRANCH   2   5
HETATM    5  C   UNL     1     -10.990  11.602  65.479  1.00  0.00    -0.270 C  
HETATM    6  O   UNL     1     -11.727  11.717  66.454  1.00  0.00    -0.511 OA 
BRANCH   5   7
HETATM    7  O   UNL     1      -9.838  10.874  65.489  1.00  0.00    -0.219 OA 
BRANCH   7   8
HETATM    8  C   UNL     1     -10.015   9.487  65.831  1.00  0.00    -0.272 C  
BRANCH   8   9
HETATM    9  O   UNL     1      -9.181   9.049  66.901  1.00  0.00    -0.134 OA 
HETATM   10  P   UNL     1      -9.973   8.530  68.225  1.00  0.00    -0.196 P  
HETATM   11  C   UNL     1     -10.903   7.080  67.672  1.00  0.00    -0.242 C  
HETATM   12  O   UNL     1     -10.775   9.592  68.904  1.00  0.00    -0.222 OA 
HETATM   13  O   UNL     1      -8.874   7.785  69.136  1.00  0.00    -0.138 OA 
BRANCH  13  14
HETATM   14  C   UNL     1      -7.929   8.462  69.913  1.00  0.00    -0.107 C  
BRANCH  14  15
HETATM   15  O   UNL     1      -7.169   9.360  69.070  1.00  0.00    -0.069 OA 
BRANCH  15  16
HETATM   16  C   UNL     1      -6.914  10.593  69.594  1.00  0.00    -0.134 C  
HETATM   17  O   UNL     1      -6.646  10.793  70.773  1.00  0.00    -0.331 OA 
BRANCH  16  18
HETATM   18  C   UNL     1      -7.011  11.712  68.535  1.00  0.00    -0.085 C  
HETATM   19  C   UNL     1      -8.485  12.132  68.362  1.00  0.00    -0.145 C  
HETATM   20  C   UNL     1      -6.490  11.212  67.182  1.00  0.00    -0.090 C  
HETATM   21  C   UNL     1      -6.214  12.949  68.975  1.00  0.00    -0.095 C  
ENDBRANCH  16  18
ENDBRANCH  15  16
ENDBRANCH  14  15
ENDBRANCH  13  14
BRANCH  11  22
HETATM   22  O   UNL     1      -9.908   6.199  67.147  1.00  0.00    -0.126 OA 
BRANCH  22  23
HETATM   23  C   UNL     1     -10.018   4.881  67.645  1.00  0.00    -0.141 C  
BRANCH  23  24
HETATM   24  C   UNL     1      -8.931   4.669  68.690  1.00  0.00    -0.109 C  
BRANCH  24  25
HETATM   25  N   UNL     1      -9.455   3.932  69.809  1.00  0.00    -0.181 NA 
HETATM   26  C   UNL     1     -10.128   4.482  70.858  1.00  0.00    -0.158 A  
HETATM   27  N   UNL     1     -10.585   5.740  70.971  1.00  0.00    -0.242 NA 
HETATM   28  H2  UNL     1      -9.845   2.614  74.298  1.00  0.00     0.000 HD 
HETATM   29  H1  UNL     1     -11.206   3.187  75.021  1.00  0.00     0.000 HD 
HETATM   30  C   UNL     1      -9.176   2.628  70.120  1.00  0.00    -0.132 A  
HETATM   31  N   UNL     1      -9.596   2.319  71.328  1.00  0.00    -0.147 NA 
HETATM   32  C   UNL     1     -10.170   3.482  71.811  1.00  0.00     0.015 A  
HETATM   33  C   UNL     1     -10.735   3.820  73.049  1.00  0.00    -0.145 A  
HETATM   34  N   UNL     1     -10.795   2.941  74.120  1.00  0.00    -0.179 NA 
HETATM   35  N   UNL     1     -11.245   5.065  73.207  1.00  0.00    -0.332 NA 
HETATM   36  C   UNL     1     -11.145   5.938  72.180  1.00  0.00    -0.281 A  
ENDBRANCH  24  25
ENDBRANCH  23  24
ENDBRANCH  22  23
ENDBRANCH  11  22
ENDBRANCH   8   9
ENDBRANCH   7   8
ENDBRANCH   5   7
ENDBRANCH   2   5
TORSDOF 12
ENDMDL
MODEL      212
REMARK 921   NORMALIZED FREE ENERGY PREDICTED BY IDOCK:   -4.16 KCAL/MOL
REMARK 922        TOTAL FREE ENERGY PREDICTED BY IDOCK:   -8.68 KCAL/MOL
REMARK 923 INTER-LIGAND FREE ENERGY PREDICTED BY IDOCK:   -7.04 KCAL/MOL
REMARK 924 INTRA-LIGAND FREE ENERGY PREDICTED BY IDOCK:   -1.64 KCAL/MOL
REMARK 927      BINDING AFFINITY PREDICTED BY RF-SCORE:    0.00 PKD
ROOT
HETATM    1  C   UNL     1     -10.371  14.138  65.763  1.00  0.00    -0.338 C  
HETATM    2  C   UNL     1     -11.371  12.965  65.781  1.00  0.00    -0.349 C  
HETATM    3  C   UNL     1     -11.603  12.546  67.237  1.00  0.00    -0.434 C  
HETATM    4  C   UNL     1     -12.691  13.446  65.160  1.00  0.00    -0.459 C  
ENDROOT
BRANCH   2   5
HETATM    5  C   UNL     1     -10.798  11.815  64.937  1.00  0.00    -0.298 C  
HETATM    6  O   UNL     1     -11.041  11.671  63.742  1.00  0.00    -0.374 OA 
BRANCH   5   7
HETATM    7  O   UNL     1     -10.078  10.922  65.671  1.00  0.00    -0.239 OA 
BRANCH   7   8
HETATM    8  C   UNL     1      -8.673  10.891  65.358  1.00  0.00    -0.155 C  
BRANCH   8   9
HETATM    9  O   UNL     1      -8.080   9.603  65.501  1.00  0.00    -0.116 OA 
HETATM   10  P   UNL     1      -6.455   9.597  65.591  1.00  0.00    -0.084 P  
HETATM   11  C   UNL     1      -6.069  10.512  67.103  1.00  0.00    -0.055 C  
HETATM   12  O   UNL     1      -5.780  10.085  64.350  1.00  0.00    -0.093 OA 
HETATM   13  O   UNL     1      -6.043   8.121  66.083  1.00  0.00    -0.043 OA 
BRANCH  13  14
HETATM   14  C   UNL     1      -6.044   7.000  65.246  1.00  0.00    -0.037 C  
BRANCH  14  15
HETATM   15  O   UNL     1      -6.929   5.994  65.794  1.00  0.00    -0.058 OA 
BRANCH  15  16
HETATM   16  C   UNL     1      -8.028   5.698  65.044  1.00  0.00    -0.115 C  
HETATM   17  O   UNL     1      -8.146   5.987  63.859  1.00  0.00    -0.119 OA 
BRANCH  16  18
HETATM   18  C   UNL     1      -9.116   4.967  65.860  1.00  0.00    -0.147 C  
HETATM   19  C   UNL     1      -9.953   5.997  66.646  1.00  0.00    -0.211 C  
HETATM   20  C   UNL     1      -8.471   4.004  66.864  1.00  0.00    -0.101 C  
HETATM   21  C   UNL     1     -10.065   4.193  64.933  1.00  0.00    -0.213 C  
ENDBRANCH  16  18
ENDBRANCH  15  16
ENDBRANCH  14  15
ENDBRANCH  13  14
BRANCH  11  22
HETATM   22  O   UNL     1      -6.759   9.801  68.134  1.00  0.00    -0.060 OA 
BRANCH  22  23
HETATM   23  C   UNL     1      -7.453  10.652  69.022  1.00  0.00    -0.117 C  
BRANCH  23  24
HETATM   24  C   UNL     1      -7.792   9.863  70.279  1.00  0.00    -0.129 C  
BRANCH  24  25
HETATM   25  N   UNL     1      -9.219   9.728  70.411  1.00  0.00    -0.193 NA 
HETATM   26  C   UNL     1      -9.846   8.966  71.351  1.00  0.00    -0.306 A  
HETATM   27  N   UNL     1      -9.296   8.360  72.416  1.00  0.00    -0.268 NA 
HETATM   28  H2  UNL     1     -13.360   7.515  70.376  1.00  0.00     0.000 HD 
HETATM   29  H1  UNL     1     -13.967   7.262  71.883  1.00  0.00     0.000 HD 
HETATM   30  C   UNL     1     -10.157  10.141  69.504  1.00  0.00    -0.235 A  
HETATM   31  N   UNL     1     -11.348   9.654  69.783  1.00  0.00    -0.174 NA 
HETATM   32  C   UNL     1     -11.159   8.893  70.925  1.00  0.00    -0.271 A  
HETATM   33  C   UNL     1     -12.016   8.076  71.675  1.00  0.00    -0.298 A  
HETATM   34  N   UNL     1     -13.343   7.857  71.337  1.00  0.00    -0.280 NA 
HETATM   35  N   UNL     1     -11.524   7.467  72.781  1.00  0.00    -0.326 NA 
HETATM   36  C   UNL     1     -10.218   7.641  73.085  1.00  0.00    -0.342 A  
ENDBRANCH  24  25
ENDBRANCH  23  24
ENDBRANCH  22  23
ENDBRANCH  11  22
ENDBRANCH   8   9
ENDBRANCH   7   8
ENDBRANCH   5   7
ENDBRANCH   2   5
TORSDOF 12
ENDMDL
MODEL      213
REMARK 921   NORMALIZED FREE ENERGY PREDICTED BY IDOCK:   -4.16 KCAL/MOL
REMARK 922        TOTAL FREE ENERGY PREDICTED BY IDOCK:   -8.67 KCAL/MOL
REMARK 923 INTER-LIGAND FREE ENERGY PREDICTED BY IDOCK:   -6.84 KCAL/MOL
REMARK 924 INTRA-LIGAND FREE ENERGY PREDICTED BY IDOCK:   -1.83 KCAL/MOL
REMARK 927      BINDING AFFINITY PREDICTED BY RF-SCORE:    0.00 PKD
ROOT
HETATM    1  C   UNL     1     -10.465   6.928  67.050  1.00  0.00    -0.374 C  
HETATM    2  C   UNL     1      -9.736   6.866  68.407  1.00  0.00    -0.137 C  
HETATM    3  C   UNL     1     -10.492   7.750  69.406  1.00  0.00    -0.221 C  
HETATM    4  C   UNL     1      -9.742   5.408  68.892  1.00  0.00    -0.205 C  
ENDROOT
BRANCH   2   5
HETATM    5  C   UNL     1      -8.285   7.333  68.210  1.00  0.00    -0.125 C  
HETATM    6  O   UNL     1      -7.559   6.917  67.312  1.00  0.00    -0.103 OA 
BRANCH   5   7
HETATM    7  O   UNL     1      -7.859   8.177  69.192  1.00  0.00    -0.103 OA 
BRANCH   7   8
HETATM    8  C   UNL     1      -6.907   9.165  68.754  1.00  0.00    -0.061 C  
BRANCH   8   9
HETATM    9  O   UNL     1      -7.451  10.477  68.640  1.00  0.00    -0.085 OA 
HETATM   10  P   UNL     1      -7.348  11.141  67.158  1.00  0.00    -0.135 P  
HETATM   11  C   UNL     1      -8.354  10.074  66.099  1.00  0.00    -0.120 C  
HETATM   12  O   UNL     1      -5.946  11.373  66.696  1.00  0.00    -0.129 OA 
HETATM   13  O   UNL     1      -8.305  12.436  67.184  1.00  0.00    -0.175 OA 
BRANCH  13  14
HETATM   14  C   UNL     1      -7.954  13.643  67.797  1.00  0.00    -0.172 C  
BRANCH  14  15
HETATM   15  O   UNL     1      -8.847  13.895  68.907  1.00  0.00    -0.049 OA 
BRANCH  15  16
HETATM   16  C   UNL     1      -9.955  14.637  68.621  1.00  0.00    -0.234 C  
HETATM   17  O   UNL     1      -9.920  15.808  68.262  1.00  0.00    -0.218 OA 
BRANCH  16  18
HETATM   18  C   UNL     1     -11.262  13.837  68.809  1.00  0.00    -0.303 C  
HETATM   19  C   UNL     1     -12.147  13.993  67.556  1.00  0.00    -0.361 C  
HETATM   20  C   UNL     1     -12.042  14.368  70.018  1.00  0.00    -0.401 C  
HETATM   21  C   UNL     1     -10.965  12.342  68.997  1.00  0.00    -0.250 C  
ENDBRANCH  16  18
ENDBRANCH  15  16
ENDBRANCH  14  15
ENDBRANCH  13  14
BRANCH  11  22
HETATM   22  O   UNL     1      -9.648  10.088  66.707  1.00  0.00    -0.169 OA 
BRANCH  22  23
HETATM   23  C   UNL     1     -10.697  10.233  65.772  1.00  0.00     0.114 C  
BRANCH  23  24
HETATM   24  C   UNL     1     -10.120  10.810  64.487  1.00  0.00    -0.350 C  
BRANCH  24  25
HETATM   25  N   UNL     1     -10.950  11.883  64.007  1.00  0.00    -0.348 NA 
HETATM   26  C   UNL     1     -10.740  13.204  64.265  1.00  0.00    -0.409 A  
HETATM   27  N   UNL     1      -9.663  13.769  64.836  1.00  0.00     0.030 NA 
HETATM   28  H2  UNL     1     -13.918  15.506  64.324  1.00  0.00     0.000 HD 
HETATM   29  H1  UNL     1     -13.199  16.955  64.031  1.00  0.00     0.000 HD 
HETATM   30  C   UNL     1     -12.181  11.754  63.424  1.00  0.00    -0.348 A  
HETATM   31  N   UNL     1     -12.795  12.914  63.329  1.00  0.00    -0.491 NA 
HETATM   32  C   UNL     1     -11.912  13.827  63.878  1.00  0.00    -0.371 A  
HETATM   33  C   UNL     1     -12.001  15.204  64.128  1.00  0.00    -0.170 A  
HETATM   34  N   UNL     1     -13.134  15.953  63.849  1.00  0.00     0.150 NA 
HETATM   35  N   UNL     1     -10.930  15.833  64.670  1.00  0.00    -0.497 NA 
HETATM   36  C   UNL     1      -9.842  15.095  64.986  1.00  0.00    -0.020 A  
ENDBRANCH  24  25
ENDBRANCH  23  24
ENDBRANCH  22  23
ENDBRANCH  11  22
ENDBRANCH   8   9
ENDBRANCH   7   8
ENDBRANCH   5   7
ENDBRANCH   2   5
TORSDOF 12
ENDMDL
MODEL      214
REMARK 921   NORMALIZED FREE ENERGY PREDICTED BY IDOCK:   -4.13 KCAL/MOL
REMARK 922        TOTAL FREE ENERGY PREDICTED BY IDOCK:   -8.63 KCAL/MOL
REMARK 923 INTER-LIGAND FREE ENERGY PREDICTED BY IDOCK:   -6.77 KCAL/MOL
REMARK 924 INTRA-LIGAND FREE ENERGY PREDICTED BY IDOCK:   -1.86 KCAL/MOL
REMARK 927      BINDING AFFINITY PREDICTED BY RF-SCORE:    0.00 PKD
ROOT
HETATM    1  C   UNL     1     -10.552  15.349  70.472  1.00  0.00    -0.229 C  
HETATM    2  C   UNL     1     -11.765  14.587  69.905  1.00  0.00    -0.354 C  
HETATM    3  C   UNL     1     -12.492  13.894  71.064  1.00  0.00    -0.452 C  
HETATM    4  C   UNL     1     -12.704  15.602  69.234  1.00  0.00     0.436 C  
ENDROOT
BRANCH   2   5
HETATM    5  C   UNL     1     -11.269  13.579  68.856  1.00  0.00    -0.275 C  
HETATM    6  O   UNL     1     -11.987  13.114  67.976  1.00  0.00    -0.351 OA 
BRANCH   5   7
HETATM    7  O   UNL     1      -9.982  13.182  69.065  1.00  0.00     0.021 OA 
BRANCH   7   8
HETATM    8  C   UNL     1      -9.277  12.798  67.869  1.00  0.00    -0.205 C  
BRANCH   8   9
HETATM    9  O   UNL     1      -8.468  13.835  67.321  1.00  0.00    -0.186 OA 
HETATM   10  P   UNL     1      -7.127  14.187  68.174  1.00  0.00    -0.170 P  
HETATM   11  C   UNL     1      -6.132  12.677  68.121  1.00  0.00    -0.080 C  
HETATM   12  O   UNL     1      -7.404  14.731  69.538  1.00  0.00    -0.172 OA 
HETATM   13  O   UNL     1      -6.222  15.112  67.216  1.00  0.00    -0.318 OA 
BRANCH  13  14
HETATM   14  C   UNL     1      -6.481  16.467  66.983  1.00  0.00    -0.167 C  
BRANCH  14  15
HETATM   15  O   UNL     1      -7.693  16.595  66.202  1.00  0.00    -0.289 OA 
BRANCH  15  16
HETATM   16  C   UNL     1      -8.231  17.847  66.143  1.00  0.00    -0.150 C  
HETATM   17  O   UNL     1      -7.639  18.826  65.702  1.00  0.00    -0.494 OA 
BRANCH  16  18
HETATM   18  C   UNL     1      -9.668  17.895  66.704  1.00  0.00    -0.319 C  
HETATM   19  C   UNL     1      -9.627  18.282  68.196  1.00  0.00    -0.316 C  
HETATM   20  C   UNL     1     -10.334  16.519  66.581  1.00  0.00    -0.298 C  
HETATM   21  C   UNL     1     -10.508  18.947  65.964  1.00  0.00    -0.507 C  
ENDBRANCH  16  18
ENDBRANCH  15  16
ENDBRANCH  14  15
ENDBRANCH  13  14
BRANCH  11  22
HETATM   22  O   UNL     1      -5.944  12.424  66.726  1.00  0.00    -0.245 OA 
BRANCH  22  23
HETATM   23  C   UNL     1      -6.011  11.052  66.399  1.00  0.00    -0.143 C  
BRANCH  23  24
HETATM   24  C   UNL     1      -6.611  10.304  67.582  1.00  0.00    -0.066 C  
BRANCH  24  25
HETATM   25  N   UNL     1      -7.034   8.989  67.175  1.00  0.00    -0.077 NA 
HETATM   26  C   UNL     1      -8.331   8.582  67.087  1.00  0.00    -0.111 A  
HETATM   27  N   UNL     1      -9.437   9.338  67.174  1.00  0.00    -0.144 NA 
HETATM   28  H2  UNL     1      -9.011   4.759  67.657  1.00  0.00     0.000 HD 
HETATM   29  H1  UNL     1     -10.450   4.628  66.873  1.00  0.00     0.000 HD 
HETATM   30  C   UNL     1      -6.232   7.889  67.037  1.00  0.00    -0.054 A  
HETATM   31  N   UNL     1      -6.940   6.788  66.905  1.00  0.00    -0.068 NA 
HETATM   32  C   UNL     1      -8.259   7.207  66.962  1.00  0.00    -0.117 A  
HETATM   33  C   UNL     1      -9.478   6.514  66.946  1.00  0.00    -0.152 A  
HETATM   34  N   UNL     1      -9.563   5.132  66.885  1.00  0.00    -0.137 NA 
HETATM   35  N   UNL     1     -10.627   7.230  66.995  1.00  0.00    -0.335 NA 
HETATM   36  C   UNL     1     -10.545   8.575  67.104  1.00  0.00    -0.243 A  
ENDBRANCH  24  25
ENDBRANCH  23  24
ENDBRANCH  22  23
ENDBRANCH  11  22
ENDBRANCH   8   9
ENDBRANCH   7   8
ENDBRANCH   5   7
ENDBRANCH   2   5
TORSDOF 12
ENDMDL
MODEL      215
REMARK 921   NORMALIZED FREE ENERGY PREDICTED BY IDOCK:   -4.11 KCAL/MOL
REMARK 922        TOTAL FREE ENERGY PREDICTED BY IDOCK:   -8.58 KCAL/MOL
REMARK 923 INTER-LIGAND FREE ENERGY PREDICTED BY IDOCK:   -7.31 KCAL/MOL
REMARK 924 INTRA-LIGAND FREE ENERGY PREDICTED BY IDOCK:   -1.27 KCAL/MOL
REMARK 927      BINDING AFFINITY PREDICTED BY RF-SCORE:    0.00 PKD
ROOT
HETATM    1  C   UNL     1      -6.934   9.009  67.005  1.00  0.00    -0.078 C  
HETATM    2  C   UNL     1      -7.322   9.026  65.514  1.00  0.00    -0.085 C  
HETATM    3  C   UNL     1      -6.331   9.925  64.763  1.00  0.00    -0.115 C  
HETATM    4  C   UNL     1      -7.234   7.590  64.975  1.00  0.00    -0.066 C  
ENDROOT
BRANCH   2   5
HETATM    5  C   UNL     1      -8.767   9.533  65.385  1.00  0.00    -0.164 C  
HETATM    6  O   UNL     1      -9.740   8.904  65.792  1.00  0.00    -0.240 OA 
BRANCH   5   7
HETATM    7  O   UNL     1      -8.863  10.699  64.686  1.00  0.00    -0.187 OA 
BRANCH   7   8
HETATM    8  C   UNL     1     -10.140  11.355  64.799  1.00  0.00    -0.277 C  
BRANCH   8   9
HETATM    9  O   UNL     1     -10.064  12.669  65.345  1.00  0.00    -0.280 OA 
HETATM   10  P   UNL     1     -11.497  13.348  65.712  1.00  0.00    -0.346 P  
HETATM   11  C   UNL     1     -12.194  12.294  67.006  1.00  0.00     0.311 C  
HETATM   12  O   UNL     1     -12.376  13.582  64.526  1.00  0.00    -0.489 OA 
HETATM   13  O   UNL     1     -11.158  14.644  66.605  1.00  0.00    -0.320 OA 
BRANCH  13  14
HETATM   14  C   UNL     1     -10.677  15.844  66.072  1.00  0.00    -0.284 C  
BRANCH  14  15
HETATM   15  O   UNL     1      -9.537  16.290  66.845  1.00  0.00    -0.222 OA 
BRANCH  15  16
HETATM   16  C   UNL     1      -9.416  17.639  67.000  1.00  0.00    -0.266 C  
HETATM   17  O   UNL     1     -10.345  18.428  66.873  1.00  0.00    -0.356 OA 
BRANCH  16  18
HETATM   18  C   UNL     1      -7.972  18.063  67.345  1.00  0.00    -0.227 C  
HETATM   19  C   UNL     1      -7.166  18.253  66.044  1.00  0.00    -0.298 C  
HETATM   20  C   UNL     1      -7.285  16.978  68.183  1.00  0.00    -0.186 C  
HETATM   21  C   UNL     1      -7.962  19.395  68.108  1.00  0.00    -0.352 C  
ENDBRANCH  16  18
ENDBRANCH  15  16
ENDBRANCH  14  15
ENDBRANCH  13  14
BRANCH  11  22
HETATM   22  O   UNL     1     -11.208  12.304  68.042  1.00  0.00    -0.233 OA 
BRANCH  22  23
HETATM   23  C   UNL     1     -11.470  11.365  69.064  1.00  0.00    -0.300 C  
BRANCH  23  24
HETATM   24  C   UNL     1     -11.023   9.992  68.582  1.00  0.00    -0.204 C  
BRANCH  24  25
HETATM   25  N   UNL     1     -10.123   9.399  69.537  1.00  0.00    -0.194 NA 
HETATM   26  C   UNL     1     -10.440   8.367  70.368  1.00  0.00    -0.214 A  
HETATM   27  N   UNL     1     -11.542   7.600  70.342  1.00  0.00    -0.182 NA 
HETATM   28  H2  UNL     1      -8.519   8.217  73.787  1.00  0.00     0.000 HD 
HETATM   29  H1  UNL     1      -8.708   6.619  74.125  1.00  0.00     0.000 HD 
HETATM   30  C   UNL     1      -8.912   9.903  69.926  1.00  0.00    -0.202 A  
HETATM   31  N   UNL     1      -8.447   9.280  70.988  1.00  0.00    -0.299 NA 
HETATM   32  C   UNL     1      -9.411   8.332  71.290  1.00  0.00    -0.173 A  
HETATM   33  C   UNL     1      -9.537   7.405  72.335  1.00  0.00    -0.153 A  
HETATM   34  N   UNL     1      -8.616   7.294  73.365  1.00  0.00    -0.132 NA 
HETATM   35  N   UNL     1     -10.612   6.580  72.339  1.00  0.00    -0.209 NA 
HETATM   36  C   UNL     1     -11.536   6.720  71.361  1.00  0.00    -0.292 A  
ENDBRANCH  24  25
ENDBRANCH  23  24
ENDBRANCH  22  23
ENDBRANCH  11  22
ENDBRANCH   8   9
ENDBRANCH   7   8
ENDBRANCH   5   7
ENDBRANCH   2   5
TORSDOF 12
ENDMDL
MODEL      216
REMARK 921   NORMALIZED FREE ENERGY PREDICTED BY IDOCK:   -4.10 KCAL/MOL
REMARK 922        TOTAL FREE ENERGY PREDICTED BY IDOCK:   -8.58 KCAL/MOL
REMARK 923 INTER-LIGAND FREE ENERGY PREDICTED BY IDOCK:   -7.97 KCAL/MOL
REMARK 924 INTRA-LIGAND FREE ENERGY PREDICTED BY IDOCK:   -0.61 KCAL/MOL
REMARK 927      BINDING AFFINITY PREDICTED BY RF-SCORE:    0.00 PKD
ROOT
HETATM    1  C   UNL     1      -7.447   9.682  69.861  1.00  0.00    -0.127 C  
HETATM    2  C   UNL     1      -6.188  10.243  69.172  1.00  0.00    -0.040 C  
HETATM    3  C   UNL     1      -5.467  11.172  70.156  1.00  0.00    -0.089 C  
HETATM    4  C   UNL     1      -5.274   9.065  68.803  1.00  0.00    -0.034 C  
ENDROOT
BRANCH   2   5
HETATM    5  C   UNL     1      -6.613  10.981  67.892  1.00  0.00    -0.062 C  
HETATM    6  O   UNL     1      -5.880  11.113  66.916  1.00  0.00    -0.065 OA 
BRANCH   5   7
HETATM    7  O   UNL     1      -7.844  11.557  67.992  1.00  0.00    -0.113 OA 
BRANCH   7   8
HETATM    8  C   UNL     1      -7.837  12.994  67.891  1.00  0.00    -0.149 C  
BRANCH   8   9
HETATM    9  O   UNL     1      -9.135  13.566  67.760  1.00  0.00    -0.187 OA 
HETATM   10  P   UNL     1     -10.191  12.689  66.885  1.00  0.00    -0.240 P  
HETATM   11  C   UNL     1     -10.400  11.150  67.813  1.00  0.00    -0.187 C  
HETATM   12  O   UNL     1      -9.802  12.531  65.451  1.00  0.00    -0.246 OA 
HETATM   13  O   UNL     1     -11.639  13.338  67.155  1.00  0.00    -0.319 OA 
BRANCH  13  14
HETATM   14  C   UNL     1     -12.073  14.529  66.565  1.00  0.00    -0.309 C  
BRANCH  14  15
HETATM   15  O   UNL     1     -11.320  15.638  67.111  1.00  0.00    -0.229 OA 
BRANCH  15  16
HETATM   16  C   UNL     1     -10.540  16.321  66.225  1.00  0.00    -0.255 C  
HETATM   17  O   UNL     1     -10.533  16.111  65.017  1.00  0.00    -0.595 OA 
BRANCH  16  18
HETATM   18  C   UNL     1      -9.658  17.383  66.916  1.00  0.00    -0.279 C  
HETATM   19  C   UNL     1     -10.433  18.713  67.015  1.00  0.00    -0.453 C  
HETATM   20  C   UNL     1      -8.383  17.629  66.099  1.00  0.00    -0.183 C  
HETATM   21  C   UNL     1      -9.287  16.943  68.339  1.00  0.00    -0.255 C  
ENDBRANCH  16  18
ENDBRANCH  15  16
ENDBRANCH  14  15
ENDBRANCH  13  14
BRANCH  11  22
HETATM   22  O   UNL     1     -10.848  11.572  69.103  1.00  0.00    -0.216 OA 
BRANCH  22  23
HETATM   23  C   UNL     1     -11.976  10.855  69.558  1.00  0.00    -0.330 C  
BRANCH  23  24
HETATM   24  C   UNL     1     -12.034  10.959  71.076  1.00  0.00    -0.270 C  
BRANCH  24  25
HETATM   25  N   UNL     1     -12.262   9.662  71.655  1.00  0.00    -0.383 NA 
HETATM   26  C   UNL     1     -11.283   8.807  72.063  1.00  0.00    -0.373 A  
HETATM   27  N   UNL     1      -9.968   9.059  72.177  1.00  0.00    -0.192 NA 
HETATM   28  H2  UNL     1     -12.125   4.976  71.920  1.00  0.00     0.000 HD 
HETATM   29  H1  UNL     1     -11.031   4.426  73.017  1.00  0.00     0.000 HD 
HETATM   30  C   UNL     1     -13.453   8.987  71.683  1.00  0.00    -0.386 A  
HETATM   31  N   UNL     1     -13.290   7.733  72.046  1.00  0.00    -0.235 NA 
HETATM   32  C   UNL     1     -11.929   7.601  72.260  1.00  0.00    -0.285 A  
HETATM   33  C   UNL     1     -11.122   6.506  72.598  1.00  0.00    -0.257 A  
HETATM   34  N   UNL     1     -11.618   5.222  72.770  1.00  0.00    -0.259 NA 
HETATM   35  N   UNL     1      -9.792   6.710  72.762  1.00  0.00    -0.167 NA 
HETATM   36  C   UNL     1      -9.299   7.951  72.548  1.00  0.00    -0.197 A  
ENDBRANCH  24  25
ENDBRANCH  23  24
ENDBRANCH  22  23
ENDBRANCH  11  22
ENDBRANCH   8   9
ENDBRANCH   7   8
ENDBRANCH   5   7
ENDBRANCH   2   5
TORSDOF 12
ENDMDL
MODEL      217
REMARK 921   NORMALIZED FREE ENERGY PREDICTED BY IDOCK:   -4.10 KCAL/MOL
REMARK 922        TOTAL FREE ENERGY PREDICTED BY IDOCK:   -8.57 KCAL/MOL
REMARK 923 INTER-LIGAND FREE ENERGY PREDICTED BY IDOCK:   -7.23 KCAL/MOL
REMARK 924 INTRA-LIGAND FREE ENERGY PREDICTED BY IDOCK:   -1.34 KCAL/MOL
REMARK 927      BINDING AFFINITY PREDICTED BY RF-SCORE:    0.00 PKD
ROOT
HETATM    1  C   UNL     1     -11.286   4.636  73.223  1.00  0.00    -0.411 C  
HETATM    2  C   UNL     1      -9.865   4.361  72.694  1.00  0.00    -0.205 C  
HETATM    3  C   UNL     1      -8.929   4.161  73.892  1.00  0.00    -0.091 C  
HETATM    4  C   UNL     1      -9.905   3.080  71.845  1.00  0.00    -0.236 C  
ENDROOT
BRANCH   2   5
HETATM    5  C   UNL     1      -9.427   5.543  71.815  1.00  0.00    -0.149 C  
HETATM    6  O   UNL     1      -8.256   5.889  71.686  1.00  0.00    -0.117 OA 
BRANCH   5   7
HETATM    7  O   UNL     1     -10.476   6.225  71.276  1.00  0.00    -0.206 OA 
BRANCH   7   8
HETATM    8  C   UNL     1     -10.235   6.735  69.951  1.00  0.00    -0.190 C  
BRANCH   8   9
HETATM    9  O   UNL     1     -10.733   8.054  69.745  1.00  0.00    -0.245 OA 
HETATM   10  P   UNL     1     -10.335   9.130  70.900  1.00  0.00    -0.324 P  
HETATM   11  C   UNL     1      -8.531   9.244  70.828  1.00  0.00    -0.195 C  
HETATM   12  O   UNL     1     -10.909   8.814  72.243  1.00  0.00    -0.352 OA 
HETATM   13  O   UNL     1     -10.698  10.580  70.301  1.00  0.00    -0.253 OA 
BRANCH  13  14
HETATM   14  C   UNL     1     -12.002  11.078  70.225  1.00  0.00    -0.365 C  
BRANCH  14  15
HETATM   15  O   UNL     1     -11.989  12.354  69.540  1.00  0.00    -0.298 OA 
BRANCH  15  16
HETATM   16  C   UNL     1     -11.817  12.300  68.189  1.00  0.00    -0.311 C  
HETATM   17  O   UNL     1     -11.987  11.288  67.517  1.00  0.00    -0.612 OA 
BRANCH  16  18
HETATM   18  C   UNL     1     -11.373  13.655  67.599  1.00  0.00    -0.328 C  
HETATM   19  C   UNL     1     -11.543  14.761  68.661  1.00  0.00    -0.345 C  
HETATM   20  C   UNL     1     -12.239  14.017  66.385  1.00  0.00    -0.492 C  
HETATM   21  C   UNL     1      -9.894  13.614  67.188  1.00  0.00    -0.242 C  
ENDBRANCH  16  18
ENDBRANCH  15  16
ENDBRANCH  14  15
ENDBRANCH  13  14
BRANCH  11  22
HETATM   22  O   UNL     1      -8.253   9.634  69.481  1.00  0.00    -0.109 OA 
BRANCH  22  23
HETATM   23  C   UNL     1      -6.963  10.187  69.320  1.00  0.00    -0.068 C  
BRANCH  23  24
HETATM   24  C   UNL     1      -6.145   9.251  68.440  1.00  0.00    -0.045 C  
BRANCH  24  25
HETATM   25  N   UNL     1      -6.668   9.246  67.099  1.00  0.00    -0.075 NA 
HETATM   26  C   UNL     1      -7.272   8.180  66.504  1.00  0.00    -0.080 A  
HETATM   27  N   UNL     1      -7.656   7.027  67.077  1.00  0.00    -0.100 NA 
HETATM   28  H2  UNL     1      -6.969   7.950  62.597  1.00  0.00     0.000 HD 
HETATM   29  H1  UNL     1      -8.270   6.993  62.288  1.00  0.00     0.000 HD 
HETATM   30  C   UNL     1      -6.450  10.200  66.143  1.00  0.00    -0.096 A  
HETATM   31  N   UNL     1      -6.842   9.793  64.955  1.00  0.00    -0.110 NA 
HETATM   32  C   UNL     1      -7.335   8.516  65.164  1.00  0.00    -0.081 A  
HETATM   33  C   UNL     1      -7.836   7.536  64.295  1.00  0.00    -0.133 A  
HETATM   34  N   UNL     1      -7.905   7.706  62.921  1.00  0.00    -0.127 NA 
HETATM   35  N   UNL     1      -8.271   6.367  64.823  1.00  0.00    -0.124 NA 
HETATM   36  C   UNL     1      -8.160   6.181  66.158  1.00  0.00    -0.115 A  
ENDBRANCH  24  25
ENDBRANCH  23  24
ENDBRANCH  22  23
ENDBRANCH  11  22
ENDBRANCH   8   9
ENDBRANCH   7   8
ENDBRANCH   5   7
ENDBRANCH   2   5
TORSDOF 12
ENDMDL
MODEL      218
REMARK 921   NORMALIZED FREE ENERGY PREDICTED BY IDOCK:   -4.08 KCAL/MOL
REMARK 922        TOTAL FREE ENERGY PREDICTED BY IDOCK:   -8.54 KCAL/MOL
REMARK 923 INTER-LIGAND FREE ENERGY PREDICTED BY IDOCK:   -7.87 KCAL/MOL
REMARK 924 INTRA-LIGAND FREE ENERGY PREDICTED BY IDOCK:   -0.66 KCAL/MOL
REMARK 927      BINDING AFFINITY PREDICTED BY RF-SCORE:    0.00 PKD
ROOT
HETATM    1  C   UNL     1     -11.032   7.714  73.074  1.00  0.00    -0.457 C  
HETATM    2  C   UNL     1     -11.789   8.184  71.816  1.00  0.00    -0.346 C  
HETATM    3  C   UNL     1     -12.759   7.076  71.389  1.00  0.00    -0.421 C  
HETATM    4  C   UNL     1     -12.575   9.456  72.172  1.00  0.00    -0.423 C  
ENDROOT
BRANCH   2   5
HETATM    5  C   UNL     1     -10.766   8.507  70.716  1.00  0.00    -0.217 C  
HETATM    6  O   UNL     1      -9.878   9.345  70.846  1.00  0.00    -0.276 OA 
BRANCH   5   7
HETATM    7  O   UNL     1     -11.007   7.842  69.551  1.00  0.00    -0.191 OA 
BRANCH   7   8
HETATM    8  C   UNL     1     -10.066   6.792  69.261  1.00  0.00    -0.168 C  
BRANCH   8   9
HETATM    9  O   UNL     1      -8.915   7.234  68.546  1.00  0.00    -0.132 OA 
HETATM   10  P   UNL     1      -9.125   7.415  66.943  1.00  0.00    -0.154 P  
HETATM   11  C   UNL     1     -10.364   8.724  66.781  1.00  0.00    -0.258 C  
HETATM   12  O   UNL     1      -9.435   6.141  66.226  1.00  0.00    -0.159 OA 
HETATM   13  O   UNL     1      -7.839   8.227  66.415  1.00  0.00    -0.092 OA 
BRANCH  13  14
HETATM   14  C   UNL     1      -6.582   7.643  66.227  1.00  0.00    -0.050 C  
BRANCH  14  15
HETATM   15  O   UNL     1      -5.740   8.548  65.474  1.00  0.00    -0.043 OA 
BRANCH  15  16
HETATM   16  C   UNL     1      -6.375   9.606  64.896  1.00  0.00    -0.090 C  
HETATM   17  O   UNL     1      -6.519  10.697  65.436  1.00  0.00    -0.109 OA 
BRANCH  16  18
HETATM   18  C   UNL     1      -6.904   9.274  63.484  1.00  0.00    -0.091 C  
HETATM   19  C   UNL     1      -6.624  10.458  62.536  1.00  0.00    -0.146 C  
HETATM   20  C   UNL     1      -8.419   9.037  63.524  1.00  0.00    -0.173 C  
HETATM   21  C   UNL     1      -6.199   8.034  62.914  1.00  0.00    -0.080 C  
ENDBRANCH  16  18
ENDBRANCH  15  16
ENDBRANCH  14  15
ENDBRANCH  13  14
BRANCH  11  22
HETATM   22  O   UNL     1      -9.795   9.838  67.473  1.00  0.00    -0.155 OA 
BRANCH  22  23
HETATM   23  C   UNL     1      -9.879  11.044  66.741  1.00  0.00    -0.197 C  
BRANCH  23  24
HETATM   24  C   UNL     1     -11.340  11.469  66.681  1.00  0.00    -0.214 C  
BRANCH  24  25
HETATM   25  N   UNL     1     -11.676  12.260  67.836  1.00  0.00    -0.381 NA 
HETATM   26  C   UNL     1     -11.535  13.613  67.921  1.00  0.00    -0.314 A  
HETATM   27  N   UNL     1     -11.245  14.472  66.930  1.00  0.00    -0.326 NA 
HETATM   28  H2  UNL     1     -10.885  15.087  71.500  1.00  0.00     0.000 HD 
HETATM   29  H1  UNL     1     -11.401  16.627  71.247  1.00  0.00     0.000 HD 
HETATM   30  C   UNL     1     -11.964  11.784  69.086  1.00  0.00    -0.293 A  
HETATM   31  N   UNL     1     -11.977  12.748  69.981  1.00  0.00    -0.335 NA 
HETATM   32  C   UNL     1     -11.682  13.897  69.266  1.00  0.00    -0.334 A  
HETATM   33  C   UNL     1     -11.486  15.231  69.650  1.00  0.00    -0.305 A  
HETATM   34  N   UNL     1     -11.543  15.657  70.968  1.00  0.00    -0.354 NA 
HETATM   35  N   UNL     1     -11.227  16.148  68.686  1.00  0.00    -0.355 NA 
HETATM   36  C   UNL     1     -11.123  15.726  67.406  1.00  0.00    -0.235 A  
ENDBRANCH  24  25
ENDBRANCH  23  24
ENDBRANCH  22  23
ENDBRANCH  11  22
ENDBRANCH   8   9
ENDBRANCH   7   8
ENDBRANCH   5   7
ENDBRANCH   2   5
TORSDOF 12
ENDMDL
MODEL      219
REMARK 921   NORMALIZED FREE ENERGY PREDICTED BY IDOCK:   -4.07 KCAL/MOL
REMARK 922        TOTAL FREE ENERGY PREDICTED BY IDOCK:   -8.52 KCAL/MOL
REMARK 923 INTER-LIGAND FREE ENERGY PREDICTED BY IDOCK:   -7.63 KCAL/MOL
REMARK 924 INTRA-LIGAND FREE ENERGY PREDICTED BY IDOCK:   -0.89 KCAL/MOL
REMARK 927      BINDING AFFINITY PREDICTED BY RF-SCORE:    0.00 PKD
ROOT
HETATM    1  C   UNL     1      -5.753   7.930  64.625  1.00  0.00    -0.044 C  
HETATM    2  C   UNL     1      -7.238   8.109  64.996  1.00  0.00    -0.076 C  
HETATM    3  C   UNL     1      -8.063   7.083  64.210  1.00  0.00    -0.040 C  
HETATM    4  C   UNL     1      -7.394   7.857  66.504  1.00  0.00    -0.087 C  
ENDROOT
BRANCH   2   5
HETATM    5  C   UNL     1      -7.658   9.552  64.673  1.00  0.00    -0.113 C  
HETATM    6  O   UNL     1      -7.140  10.221  63.783  1.00  0.00    -0.125 OA 
BRANCH   5   7
HETATM    7  O   UNL     1      -8.591  10.042  65.537  1.00  0.00    -0.139 OA 
BRANCH   7   8
HETATM    8  C   UNL     1      -8.225  11.287  66.162  1.00  0.00    -0.088 C  
BRANCH   8   9
HETATM    9  O   UNL     1      -9.282  12.241  66.203  1.00  0.00    -0.214 OA 
HETATM   10  P   UNL     1     -10.749  11.664  65.799  1.00  0.00    -0.256 P  
HETATM   11  C   UNL     1     -11.126  10.425  67.062  1.00  0.00    -0.067 C  
HETATM   12  O   UNL     1     -10.844  11.193  64.384  1.00  0.00    -0.344 OA 
HETATM   13  O   UNL     1     -11.808  12.795  66.238  1.00  0.00    -0.390 OA 
BRANCH  13  14
HETATM   14  C   UNL     1     -12.024  13.972  65.515  1.00  0.00    -0.384 C  
BRANCH  14  15
HETATM   15  O   UNL     1     -10.749  14.556  65.157  1.00  0.00    -0.352 OA 
BRANCH  15  16
HETATM   16  C   UNL     1     -10.695  15.918  65.171  1.00  0.00    -0.429 C  
HETATM   17  O   UNL     1     -11.210  16.632  64.317  1.00  0.00    -1.098 OA 
BRANCH  16  18
HETATM   18  C   UNL     1      -9.904  16.463  66.379  1.00  0.00    -0.312 C  
HETATM   19  C   UNL     1     -10.830  16.539  67.611  1.00  0.00    -0.269 C  
HETATM   20  C   UNL     1      -9.383  17.875  66.082  1.00  0.00    -0.151 C  
HETATM   21  C   UNL     1      -8.729  15.537  66.725  1.00  0.00    -0.302 C  
ENDBRANCH  16  18
ENDBRANCH  15  16
ENDBRANCH  14  15
ENDBRANCH  13  14
BRANCH  11  22
HETATM   22  O   UNL     1     -11.048  11.143  68.297  1.00  0.00    -0.211 OA 
BRANCH  22  23
HETATM   23  C   UNL     1     -10.207  10.521  69.246  1.00  0.00    -0.225 C  
BRANCH  23  24
HETATM   24  C   UNL     1     -10.912   9.279  69.774  1.00  0.00    -0.196 C  
BRANCH  24  25
HETATM   25  N   UNL     1     -10.032   8.142  69.709  1.00  0.00    -0.188 NA 
HETATM   26  C   UNL     1     -10.117   7.143  68.787  1.00  0.00    -0.173 A  
HETATM   27  N   UNL     1     -10.885   7.105  67.685  1.00  0.00    -0.229 NA 
HETATM   28  H2  UNL     1      -8.827   3.609  69.905  1.00  0.00     0.000 HD 
HETATM   29  H1  UNL     1      -8.528   2.958  68.426  1.00  0.00     0.000 HD 
HETATM   30  C   UNL     1      -9.133   7.760  70.667  1.00  0.00    -0.153 A  
HETATM   31  N   UNL     1      -8.664   6.552  70.438  1.00  0.00    -0.146 NA 
HETATM   32  C   UNL     1      -9.296   6.144  69.275  1.00  0.00    -0.134 A  
HETATM   33  C   UNL     1      -9.273   4.942  68.553  1.00  0.00    -0.120 A  
HETATM   34  N   UNL     1      -8.544   3.832  68.951  1.00  0.00    -0.081 NA 
HETATM   35  N   UNL     1     -10.002   4.861  67.413  1.00  0.00    -0.176 NA 
HETATM   36  C   UNL     1     -10.751   5.926  67.050  1.00  0.00    -0.318 A  
ENDBRANCH  24  25
ENDBRANCH  23  24
ENDBRANCH  22  23
ENDBRANCH  11  22
ENDBRANCH   8   9
ENDBRANCH   7   8
ENDBRANCH   5   7
ENDBRANCH   2   5
TORSDOF 12
ENDMDL
MODEL      220
REMARK 921   NORMALIZED FREE ENERGY PREDICTED BY IDOCK:   -4.06 KCAL/MOL
REMARK 922        TOTAL FREE ENERGY PREDICTED BY IDOCK:   -8.50 KCAL/MOL
REMARK 923 INTER-LIGAND FREE ENERGY PREDICTED BY IDOCK:   -7.57 KCAL/MOL
REMARK 924 INTRA-LIGAND FREE ENERGY PREDICTED BY IDOCK:   -0.93 KCAL/MOL
REMARK 927      BINDING AFFINITY PREDICTED BY RF-SCORE:    0.00 PKD
ROOT
HETATM    1  C   UNL     1     -11.075   4.608  73.795  1.00  0.00    -0.333 C  
HETATM    2  C   UNL     1      -9.981   4.044  72.867  1.00  0.00    -0.203 C  
HETATM    3  C   UNL     1      -8.670   3.955  73.658  1.00  0.00    -0.093 C  
HETATM    4  C   UNL     1     -10.410   2.641  72.411  1.00  0.00    -0.172 C  
ENDROOT
BRANCH   2   5
HETATM    5  C   UNL     1      -9.850   4.962  71.642  1.00  0.00    -0.184 C  
HETATM    6  O   UNL     1      -8.852   4.995  70.928  1.00  0.00    -0.127 OA 
BRANCH   5   7
HETATM    7  O   UNL     1     -10.912   5.803  71.490  1.00  0.00    -0.262 OA 
BRANCH   7   8
HETATM    8  C   UNL     1     -11.040   6.366  70.170  1.00  0.00    -0.365 C  
BRANCH   8   9
HETATM    9  O   UNL     1     -11.443   7.732  70.165  1.00  0.00    -0.185 OA 
HETATM   10  P   UNL     1     -10.753   8.659  71.312  1.00  0.00    -0.307 P  
HETATM   11  C   UNL     1      -8.986   8.642  70.923  1.00  0.00    -0.187 C  
HETATM   12  O   UNL     1     -11.111   8.261  72.707  1.00  0.00    -0.367 OA 
HETATM   13  O   UNL     1     -11.080  10.183  70.907  1.00  0.00    -0.338 OA 
BRANCH  13  14
HETATM   14  C   UNL     1     -12.326  10.784  71.110  1.00  0.00    -0.393 C  
BRANCH  14  15
HETATM   15  O   UNL     1     -12.232  12.196  70.806  1.00  0.00    -0.377 OA 
BRANCH  15  16
HETATM   16  C   UNL     1     -11.929  12.506  69.514  1.00  0.00    -0.266 C  
HETATM   17  O   UNL     1     -11.777  11.673  68.628  1.00  0.00    -0.284 OA 
BRANCH  16  18
HETATM   18  C   UNL     1     -11.788  14.028  69.292  1.00  0.00    -0.389 C  
HETATM   19  C   UNL     1     -12.671  14.781  70.308  1.00  0.00    -0.324 C  
HETATM   20  C   UNL     1     -12.250  14.405  67.879  1.00  0.00    -0.178 C  
HETATM   21  C   UNL     1     -10.334  14.478  69.502  1.00  0.00    -0.028 C  
ENDBRANCH  16  18
ENDBRANCH  15  16
ENDBRANCH  14  15
ENDBRANCH  13  14
BRANCH  11  22
HETATM   22  O   UNL     1      -8.913   9.137  69.584  1.00  0.00    -0.141 OA 
BRANCH  22  23
HETATM   23  C   UNL     1      -7.962  10.170  69.428  1.00  0.00    -0.154 C  
BRANCH  23  24
HETATM   24  C   UNL     1      -7.034   9.801  68.279  1.00  0.00    -0.073 C  
BRANCH  24  25
HETATM   25  N   UNL     1      -7.744   9.855  67.029  1.00  0.00    -0.095 NA 
HETATM   26  C   UNL     1      -8.435  10.936  66.571  1.00  0.00    -0.159 A  
HETATM   27  N   UNL     1      -8.440  12.181  67.076  1.00  0.00    -0.181 NA 
HETATM   28  H2  UNL     1     -11.481  10.202  64.208  1.00  0.00     0.000 HD 
HETATM   29  H1  UNL     1     -11.579  11.656  63.447  1.00  0.00     0.000 HD 
HETATM   30  C   UNL     1      -8.036   8.791  66.219  1.00  0.00    -0.106 A  
HETATM   31  N   UNL     1      -8.907   9.116  65.288  1.00  0.00    -0.191 NA 
HETATM   32  C   UNL     1      -9.185  10.453  65.516  1.00  0.00    -0.184 A  
HETATM   33  C   UNL     1     -10.074  11.355  64.913  1.00  0.00    -0.274 A  
HETATM   34  N   UNL     1     -10.933  11.000  63.885  1.00  0.00    -0.195 NA 
HETATM   35  N   UNL     1     -10.096  12.634  65.360  1.00  0.00    -0.279 NA 
HETATM   36  C   UNL     1      -9.294  12.969  66.395  1.00  0.00    -0.182 A  
ENDBRANCH  24  25
ENDBRANCH  23  24
ENDBRANCH  22  23
ENDBRANCH  11  22
ENDBRANCH   8   9
ENDBRANCH   7   8
ENDBRANCH   5   7
ENDBRANCH   2   5
TORSDOF 12
ENDMDL
MODEL      221
REMARK 921   NORMALIZED FREE ENERGY PREDICTED BY IDOCK:   -4.04 KCAL/MOL
REMARK 922        TOTAL FREE ENERGY PREDICTED BY IDOCK:   -8.47 KCAL/MOL
REMARK 923 INTER-LIGAND FREE ENERGY PREDICTED BY IDOCK:   -7.31 KCAL/MOL
REMARK 924 INTRA-LIGAND FREE ENERGY PREDICTED BY IDOCK:   -1.16 KCAL/MOL
REMARK 927      BINDING AFFINITY PREDICTED BY RF-SCORE:    0.00 PKD
ROOT
HETATM    1  C   UNL     1      -8.847   5.831  66.671  1.00  0.00    -0.121 C  
HETATM    2  C   UNL     1      -7.849   6.906  66.196  1.00  0.00    -0.102 C  
HETATM    3  C   UNL     1      -6.427   6.414  66.489  1.00  0.00    -0.047 C  
HETATM    4  C   UNL     1      -8.032   7.100  64.683  1.00  0.00    -0.114 C  
ENDROOT
BRANCH   2   5
HETATM    5  C   UNL     1      -8.161   8.225  66.921  1.00  0.00    -0.103 C  
HETATM    6  O   UNL     1      -7.861   8.437  68.092  1.00  0.00    -0.107 OA 
BRANCH   5   7
HETATM    7  O   UNL     1      -8.891   9.091  66.163  1.00  0.00    -0.146 OA 
BRANCH   7   8
HETATM    8  C   UNL     1      -9.773   9.943  66.918  1.00  0.00    -0.186 C  
BRANCH   8   9
HETATM    9  O   UNL     1      -9.169  11.160  67.346  1.00  0.00    -0.152 OA 
HETATM   10  P   UNL     1     -10.041  12.503  67.054  1.00  0.00    -0.220 P  
HETATM   11  C   UNL     1     -11.546  12.303  68.037  1.00  0.00    -0.349 C  
HETATM   12  O   UNL     1     -10.250  12.783  65.601  1.00  0.00    -0.273 OA 
HETATM   13  O   UNL     1      -9.344  13.678  67.906  1.00  0.00    -0.191 OA 
BRANCH  13  14
HETATM   14  C   UNL     1      -8.159  14.312  67.520  1.00  0.00    -0.187 C  
BRANCH  14  15
HETATM   15  O   UNL     1      -8.138  15.657  68.055  1.00  0.00    -0.133 OA 
BRANCH  15  16
HETATM   16  C   UNL     1      -9.345  16.287  68.125  1.00  0.00    -0.210 C  
HETATM   17  O   UNL     1     -10.150  16.123  69.034  1.00  0.00    -0.221 OA 
BRANCH  16  18
HETATM   18  C   UNL     1      -9.589  17.224  66.923  1.00  0.00    -0.272 C  
HETATM   19  C   UNL     1      -8.240  17.584  66.266  1.00  0.00    -0.275 C  
HETATM   20  C   UNL     1     -10.260  18.523  67.387  1.00  0.00    -0.401 C  
HETATM   21  C   UNL     1     -10.464  16.537  65.863  1.00  0.00    -0.335 C  
ENDBRANCH  16  18
ENDBRANCH  15  16
ENDBRANCH  14  15
ENDBRANCH  13  14
BRANCH  11  22
HETATM   22  O   UNL     1     -11.076  12.136  69.377  1.00  0.00    -0.207 OA 
BRANCH  22  23
HETATM   23  C   UNL     1     -12.118  11.918  70.305  1.00  0.00    -0.325 C  
BRANCH  23  24
HETATM   24  C   UNL     1     -12.777  10.583  69.985  1.00  0.00    -0.060 C  
BRANCH  24  25
HETATM   25  N   UNL     1     -12.492   9.626  71.021  1.00  0.00    -0.309 NA 
HETATM   26  C   UNL     1     -11.664   8.553  70.884  1.00  0.00    -0.245 A  
HETATM   27  N   UNL     1     -10.835   8.281  69.863  1.00  0.00    -0.240 NA 
HETATM   28  H2  UNL     1     -12.461   5.426  73.117  1.00  0.00     0.000 HD 
HETATM   29  H1  UNL     1     -10.978   4.716  73.115  1.00  0.00     0.000 HD 
HETATM   30  C   UNL     1     -13.159   9.499  72.209  1.00  0.00    -0.408 A  
HETATM   31  N   UNL     1     -12.838   8.383  72.828  1.00  0.00    -0.144 NA 
HETATM   32  C   UNL     1     -11.921   7.768  71.992  1.00  0.00    -0.308 A  
HETATM   33  C   UNL     1     -11.259   6.533  72.053  1.00  0.00    -0.273 A  
HETATM   34  N   UNL     1     -11.460   5.614  73.071  1.00  0.00    -0.244 NA 
HETATM   35  N   UNL     1     -10.383   6.222  71.067  1.00  0.00    -0.205 NA 
HETATM   36  C   UNL     1     -10.222   7.096  70.048  1.00  0.00    -0.196 A  
ENDBRANCH  24  25
ENDBRANCH  23  24
ENDBRANCH  22  23
ENDBRANCH  11  22
ENDBRANCH   8   9
ENDBRANCH   7   8
ENDBRANCH   5   7
ENDBRANCH   2   5
TORSDOF 12
ENDMDL
MODEL      222
REMARK 921   NORMALIZED FREE ENERGY PREDICTED BY IDOCK:   -4.02 KCAL/MOL
REMARK 922        TOTAL FREE ENERGY PREDICTED BY IDOCK:   -8.43 KCAL/MOL
REMARK 923 INTER-LIGAND FREE ENERGY PREDICTED BY IDOCK:   -7.44 KCAL/MOL
REMARK 924 INTRA-LIGAND FREE ENERGY PREDICTED BY IDOCK:   -0.99 KCAL/MOL
REMARK 927      BINDING AFFINITY PREDICTED BY RF-SCORE:    0.00 PKD
ROOT
HETATM    1  C   UNL     1     -10.199   4.437  65.420  1.00  0.00    -0.247 C  
HETATM    2  C   UNL     1      -9.532   5.145  66.615  1.00  0.00    -0.147 C  
HETATM    3  C   UNL     1      -9.907   4.393  67.898  1.00  0.00    -0.141 C  
HETATM    4  C   UNL     1      -8.009   5.103  66.414  1.00  0.00    -0.104 C  
ENDROOT
BRANCH   2   5
HETATM    5  C   UNL     1     -10.003   6.608  66.650  1.00  0.00    -0.140 C  
HETATM    6  O   UNL     1     -11.099   6.952  67.081  1.00  0.00    -0.370 OA 
BRANCH   5   7
HETATM    7  O   UNL     1      -9.122   7.465  66.062  1.00  0.00    -0.159 OA 
BRANCH   7   8
HETATM    8  C   UNL     1      -8.999   8.737  66.726  1.00  0.00    -0.135 C  
BRANCH   8   9
HETATM    9  O   UNL     1      -8.793   8.633  68.131  1.00  0.00    -0.140 OA 
HETATM   10  P   UNL     1      -7.339   9.143  68.655  1.00  0.00    -0.077 P  
HETATM   11  C   UNL     1      -7.293  10.907  68.259  1.00  0.00    -0.087 C  
HETATM   12  O   UNL     1      -6.193   8.335  68.138  1.00  0.00    -0.048 OA 
HETATM   13  O   UNL     1      -7.457   9.253  70.257  1.00  0.00    -0.082 OA 
BRANCH  13  14
HETATM   14  C   UNL     1      -7.425   8.146  71.111  1.00  0.00    -0.074 C  
BRANCH  14  15
HETATM   15  O   UNL     1      -8.484   7.229  70.747  1.00  0.00    -0.129 OA 
BRANCH  15  16
HETATM   16  C   UNL     1      -8.212   5.905  70.932  1.00  0.00    -0.125 C  
HETATM   17  O   UNL     1      -7.362   5.287  70.302  1.00  0.00    -0.063 OA 
BRANCH  16  18
HETATM   18  C   UNL     1      -9.106   5.269  72.018  1.00  0.00    -0.151 C  
HETATM   19  C   UNL     1      -8.796   3.761  72.123  1.00  0.00    -0.124 C  
HETATM   20  C   UNL     1     -10.587   5.431  71.652  1.00  0.00    -0.284 C  
HETATM   21  C   UNL     1      -8.836   5.905  73.389  1.00  0.00    -0.126 C  
ENDBRANCH  16  18
ENDBRANCH  15  16
ENDBRANCH  14  15
ENDBRANCH  13  14
BRANCH  11  22
HETATM   22  O   UNL     1      -8.432  11.452  68.931  1.00  0.00    -0.123 OA 
BRANCH  22  23
HETATM   23  C   UNL     1      -9.307  12.142  68.064  1.00  0.00    -0.197 C  
BRANCH  23  24
HETATM   24  C   UNL     1      -9.840  13.367  68.794  1.00  0.00    -0.021 C  
BRANCH  24  25
HETATM   25  N   UNL     1     -10.269  14.363  67.847  1.00  0.00    -0.230 NA 
HETATM   26  C   UNL     1     -11.114  14.133  66.803  1.00  0.00    -0.310 A  
HETATM   27  N   UNL     1     -11.837  13.027  66.561  1.00  0.00    -0.391 NA 
HETATM   28  H2  UNL     1     -10.671  16.425  63.649  1.00  0.00     0.000 HD 
HETATM   29  H1  UNL     1     -12.169  16.260  62.992  1.00  0.00     0.000 HD 
HETATM   30  C   UNL     1      -9.738  15.616  67.696  1.00  0.00    -0.225 A  
HETATM   31  N   UNL     1     -10.163  16.191  66.591  1.00  0.00    -0.279 NA 
HETATM   32  C   UNL     1     -11.005  15.259  66.009  1.00  0.00    -0.317 A  
HETATM   33  C   UNL     1     -11.712  15.242  64.798  1.00  0.00    -0.276 A  
HETATM   34  N   UNL     1     -11.655  16.272  63.872  1.00  0.00    -0.988 NA 
HETATM   35  N   UNL     1     -12.488  14.166  64.519  1.00  0.00    -0.655 NA 
HETATM   36  C   UNL     1     -12.507  13.140  65.399  1.00  0.00    -0.481 A  
ENDBRANCH  24  25
ENDBRANCH  23  24
ENDBRANCH  22  23
ENDBRANCH  11  22
ENDBRANCH   8   9
ENDBRANCH   7   8
ENDBRANCH   5   7
ENDBRANCH   2   5
TORSDOF 12
ENDMDL
MODEL      223
REMARK 921   NORMALIZED FREE ENERGY PREDICTED BY IDOCK:   -4.02 KCAL/MOL
REMARK 922        TOTAL FREE ENERGY PREDICTED BY IDOCK:   -8.43 KCAL/MOL
REMARK 923 INTER-LIGAND FREE ENERGY PREDICTED BY IDOCK:   -7.25 KCAL/MOL
REMARK 924 INTRA-LIGAND FREE ENERGY PREDICTED BY IDOCK:   -1.19 KCAL/MOL
REMARK 927      BINDING AFFINITY PREDICTED BY RF-SCORE:    0.00 PKD
ROOT
HETATM    1  C   UNL     1      -7.614   2.051  66.817  1.00  0.00    -0.065 C  
HETATM    2  C   UNL     1      -7.672   3.581  66.993  1.00  0.00    -0.080 C  
HETATM    3  C   UNL     1      -8.694   3.907  68.090  1.00  0.00    -0.124 C  
HETATM    4  C   UNL     1      -6.279   4.073  67.416  1.00  0.00    -0.036 C  
ENDROOT
BRANCH   2   5
HETATM    5  C   UNL     1      -8.053   4.219  65.647  1.00  0.00    -0.105 C  
HETATM    6  O   UNL     1      -9.069   3.924  65.025  1.00  0.00    -0.128 OA 
BRANCH   5   7
HETATM    7  O   UNL     1      -7.099   5.068  65.171  1.00  0.00    -0.060 OA 
BRANCH   7   8
HETATM    8  C   UNL     1      -7.556   6.417  64.959  1.00  0.00    -0.091 C  
BRANCH   8   9
HETATM    9  O   UNL     1      -8.259   6.966  66.071  1.00  0.00    -0.112 OA 
HETATM   10  P   UNL     1      -7.661   8.367  66.642  1.00  0.00    -0.090 P  
HETATM   11  C   UNL     1      -7.852   9.544  65.282  1.00  0.00    -0.111 C  
HETATM   12  O   UNL     1      -6.281   8.250  67.206  1.00  0.00    -0.053 OA 
HETATM   13  O   UNL     1      -8.781   8.956  67.637  1.00  0.00    -0.124 OA 
BRANCH  13  14
HETATM   14  C   UNL     1      -8.996   8.471  68.931  1.00  0.00    -0.146 C  
BRANCH  14  15
HETATM   15  O   UNL     1     -10.419   8.391  69.183  1.00  0.00    -0.220 OA 
BRANCH  15  16
HETATM   16  C   UNL     1     -10.884   9.164  70.205  1.00  0.00    -0.246 C  
HETATM   17  O   UNL     1     -10.989  10.384  70.148  1.00  0.00    -0.284 OA 
BRANCH  16  18
HETATM   18  C   UNL     1     -11.256   8.329  71.450  1.00  0.00    -0.304 C  
HETATM   19  C   UNL     1     -10.065   8.306  72.430  1.00  0.00    -0.383 C  
HETATM   20  C   UNL     1     -11.576   6.884  71.047  1.00  0.00    -0.374 C  
HETATM   21  C   UNL     1     -12.459   8.944  72.180  1.00  0.00    -0.459 C  
ENDBRANCH  16  18
ENDBRANCH  15  16
ENDBRANCH  14  15
ENDBRANCH  13  14
BRANCH  11  22
HETATM   22  O   UNL     1      -9.252   9.528  64.993  1.00  0.00    -0.230 OA 
BRANCH  22  23
HETATM   23  C   UNL     1      -9.631  10.500  64.041  1.00  0.00    -0.311 C  
BRANCH  23  24
HETATM   24  C   UNL     1     -11.004  11.038  64.423  1.00  0.00    -0.087 C  
BRANCH  24  25
HETATM   25  N   UNL     1     -11.111  12.427  64.063  1.00  0.00    -0.361 NA 
HETATM   26  C   UNL     1     -10.537  13.455  64.748  1.00  0.00    -0.405 A  
HETATM   27  N   UNL     1      -9.639  13.378  65.745  1.00  0.00    -0.121 NA 
HETATM   28  H2  UNL     1     -12.365  16.923  64.566  1.00  0.00     0.000 HD 
HETATM   29  H1  UNL     1     -11.100  17.907  64.932  1.00  0.00     0.000 HD 
HETATM   30  C   UNL     1     -11.969  12.959  63.139  1.00  0.00    -0.256 A  
HETATM   31  N   UNL     1     -12.011  14.272  63.218  1.00  0.00     0.075 NA 
HETATM   32  C   UNL     1     -11.137  14.593  64.242  1.00  0.00     0.028 A  
HETATM   33  C   UNL     1     -10.790  15.808  64.850  1.00  0.00    -0.413 A  
HETATM   34  N   UNL     1     -11.353  17.023  64.491  1.00  0.00    -0.986 NA 
HETATM   35  N   UNL     1      -9.862  15.794  65.837  1.00  0.00    -0.325 NA 
HETATM   36  C   UNL     1      -9.348  14.604  66.222  1.00  0.00    -0.262 A  
ENDBRANCH  24  25
ENDBRANCH  23  24
ENDBRANCH  22  23
ENDBRANCH  11  22
ENDBRANCH   8   9
ENDBRANCH   7   8
ENDBRANCH   5   7
ENDBRANCH   2   5
TORSDOF 12
ENDMDL
MODEL      224
REMARK 921   NORMALIZED FREE ENERGY PREDICTED BY IDOCK:   -4.01 KCAL/MOL
REMARK 922        TOTAL FREE ENERGY PREDICTED BY IDOCK:   -8.41 KCAL/MOL
REMARK 923 INTER-LIGAND FREE ENERGY PREDICTED BY IDOCK:   -7.16 KCAL/MOL
REMARK 924 INTRA-LIGAND FREE ENERGY PREDICTED BY IDOCK:   -1.26 KCAL/MOL
REMARK 927      BINDING AFFINITY PREDICTED BY RF-SCORE:    0.00 PKD
ROOT
HETATM    1  C   UNL     1      -9.450   6.273  72.576  1.00  0.00    -0.143 C  
HETATM    2  C   UNL     1      -9.305   5.453  71.279  1.00  0.00    -0.182 C  
HETATM    3  C   UNL     1      -7.821   5.134  71.068  1.00  0.00    -0.097 C  
HETATM    4  C   UNL     1     -10.101   4.149  71.441  1.00  0.00    -0.168 C  
ENDROOT
BRANCH   2   5
HETATM    5  C   UNL     1      -9.889   6.266  70.112  1.00  0.00    -0.170 C  
HETATM    6  O   UNL     1     -10.690   5.806  69.305  1.00  0.00    -0.286 OA 
BRANCH   5   7
HETATM    7  O   UNL     1      -9.350   7.514  70.010  1.00  0.00    -0.154 OA 
BRANCH   7   8
HETATM    8  C   UNL     1      -8.866   7.845  68.694  1.00  0.00    -0.134 C  
BRANCH   8   9
HETATM    9  O   UNL     1      -9.600   8.889  68.059  1.00  0.00    -0.144 OA 
HETATM   10  P   UNL     1      -9.641  10.298  68.873  1.00  0.00    -0.208 P  
HETATM   11  C   UNL     1      -7.919  10.847  68.940  1.00  0.00    -0.146 C  
HETATM   12  O   UNL     1     -10.344  10.214  70.190  1.00  0.00    -0.270 OA 
HETATM   13  O   UNL     1     -10.209  11.392  67.839  1.00  0.00    -0.176 OA 
BRANCH  13  14
HETATM   14  C   UNL     1     -11.561  11.501  67.496  1.00  0.00    -0.246 C  
BRANCH  14  15
HETATM   15  O   UNL     1     -12.264  12.217  68.540  1.00  0.00    -0.240 OA 
BRANCH  15  16
HETATM   16  C   UNL     1     -12.075  13.567  68.564  1.00  0.00    -0.268 C  
HETATM   17  O   UNL     1     -11.912  14.253  67.561  1.00  0.00    -0.389 OA 
BRANCH  16  18
HETATM   18  C   UNL     1     -12.079  14.135  69.999  1.00  0.00    -0.409 C  
HETATM   19  C   UNL     1     -10.669  14.647  70.356  1.00  0.00     0.146 C  
HETATM   20  C   UNL     1     -12.463  13.041  71.004  1.00  0.00    -0.385 C  
HETATM   21  C   UNL     1     -13.056  15.315  70.117  1.00  0.00    -0.030 C  
ENDBRANCH  16  18
ENDBRANCH  15  16
ENDBRANCH  14  15
ENDBRANCH  13  14
BRANCH  11  22
HETATM   22  O   UNL     1      -7.517  10.922  67.570  1.00  0.00    -0.093 OA 
BRANCH  22  23
HETATM   23  C   UNL     1      -6.981  12.181  67.219  1.00  0.00    -0.148 C  
BRANCH  23  24
HETATM   24  C   UNL     1      -7.254  13.155  68.358  1.00  0.00    -0.107 C  
BRANCH  24  25
HETATM   25  N   UNL     1      -6.885  14.490  67.969  1.00  0.00    -0.128 NA 
HETATM   26  C   UNL     1      -7.696  15.360  67.304  1.00  0.00    -0.213 A  
HETATM   27  N   UNL     1      -9.008  15.229  67.051  1.00  0.00    -0.217 NA 
HETATM   28  H2  UNL     1      -5.924  18.007  65.010  1.00  0.00     0.000 HD 
HETATM   29  H1  UNL     1      -7.112  19.141  64.952  1.00  0.00     0.000 HD 
HETATM   30  C   UNL     1      -5.622  15.019  67.991  1.00  0.00    -0.136 A  
HETATM   31  N   UNL     1      -5.565  16.162  67.343  1.00  0.00    -0.250 NA 
HETATM   32  C   UNL     1      -6.854  16.373  66.884  1.00  0.00    -0.196 A  
HETATM   33  C   UNL     1      -7.425  17.370  66.081  1.00  0.00    -0.296 A  
HETATM   34  N   UNL     1      -6.696  18.416  65.536  1.00  0.00    -0.458 NA 
HETATM   35  N   UNL     1      -8.754  17.307  65.822  1.00  0.00    -0.500 NA 
HETATM   36  C   UNL     1      -9.458  16.261  66.312  1.00  0.00    -0.316 A  
ENDBRANCH  24  25
ENDBRANCH  23  24
ENDBRANCH  22  23
ENDBRANCH  11  22
ENDBRANCH   8   9
ENDBRANCH   7   8
ENDBRANCH   5   7
ENDBRANCH   2   5
TORSDOF 12
ENDMDL
MODEL      225
REMARK 921   NORMALIZED FREE ENERGY PREDICTED BY IDOCK:   -3.99 KCAL/MOL
REMARK 922        TOTAL FREE ENERGY PREDICTED BY IDOCK:   -8.39 KCAL/MOL
REMARK 923 INTER-LIGAND FREE ENERGY PREDICTED BY IDOCK:   -6.87 KCAL/MOL
REMARK 924 INTRA-LIGAND FREE ENERGY PREDICTED BY IDOCK:   -1.52 KCAL/MOL
REMARK 927      BINDING AFFINITY PREDICTED BY RF-SCORE:    0.00 PKD
ROOT
HETATM    1  C   UNL     1     -10.575  14.147  64.585  1.00  0.00    -0.391 C  
HETATM    2  C   UNL     1     -11.384  12.842  64.446  1.00  0.00    -0.402 C  
HETATM    3  C   UNL     1     -12.157  12.606  65.749  1.00  0.00    -0.484 C  
HETATM    4  C   UNL     1     -12.370  13.008  63.279  1.00  0.00    -0.392 C  
ENDROOT
BRANCH   2   5
HETATM    5  C   UNL     1     -10.415  11.690  64.136  1.00  0.00    -0.351 C  
HETATM    6  O   UNL     1      -9.671  11.681  63.160  1.00  0.00    -0.385 OA 
BRANCH   5   7
HETATM    7  O   UNL     1     -10.541  10.642  64.997  1.00  0.00    -0.255 OA 
BRANCH   7   8
HETATM    8  C   UNL     1      -9.291  10.124  65.489  1.00  0.00    -0.207 C  
BRANCH   8   9
HETATM    9  O   UNL     1      -8.401  11.129  65.966  1.00  0.00    -0.167 OA 
HETATM   10  P   UNL     1      -8.374  11.316  67.583  1.00  0.00    -0.133 P  
HETATM   11  C   UNL     1      -7.759   9.740  68.223  1.00  0.00    -0.085 C  
HETATM   12  O   UNL     1      -9.671  11.786  68.158  1.00  0.00    -0.180 OA 
HETATM   13  O   UNL     1      -7.088  12.231  67.902  1.00  0.00    -0.086 OA 
BRANCH  13  14
HETATM   14  C   UNL     1      -7.056  13.614  67.698  1.00  0.00    -0.170 C  
BRANCH  14  15
HETATM   15  O   UNL     1      -8.390  14.086  67.394  1.00  0.00    -0.175 OA 
BRANCH  15  16
HETATM   16  C   UNL     1      -8.509  15.425  67.168  1.00  0.00    -0.214 C  
HETATM   17  O   UNL     1      -7.746  16.070  66.457  1.00  0.00    -0.235 OA 
BRANCH  16  18
HETATM   18  C   UNL     1      -9.709  16.042  67.918  1.00  0.00    -0.220 C  
HETATM   19  C   UNL     1     -10.825  14.988  68.063  1.00  0.00    -0.270 C  
HETATM   20  C   UNL     1     -10.272  17.234  67.133  1.00  0.00    -0.319 C  
HETATM   21  C   UNL     1      -9.298  16.495  69.327  1.00  0.00    -0.135 C  
ENDBRANCH  16  18
ENDBRANCH  15  16
ENDBRANCH  14  15
ENDBRANCH  13  14
BRANCH  11  22
HETATM   22  O   UNL     1      -6.490   9.570  67.587  1.00  0.00    -0.061 OA 
BRANCH  22  23
HETATM   23  C   UNL     1      -5.853   8.359  67.941  1.00  0.00    -0.043 C  
BRANCH  23  24
HETATM   24  C   UNL     1      -6.924   7.336  68.293  1.00  0.00    -0.076 C  
BRANCH  24  25
HETATM   25  N   UNL     1      -7.270   6.559  67.132  1.00  0.00    -0.079 NA 
HETATM   26  C   UNL     1      -8.532   6.162  66.808  1.00  0.00    -0.111 A  
HETATM   27  N   UNL     1      -9.686   6.552  67.374  1.00  0.00    -0.122 NA 
HETATM   28  H2  UNL     1      -8.852   2.831  64.758  1.00  0.00     0.000 HD 
HETATM   29  H1  UNL     1     -10.333   3.076  64.087  1.00  0.00     0.000 HD 
HETATM   30  C   UNL     1      -6.394   5.908  66.305  1.00  0.00    -0.042 A  
HETATM   31  N   UNL     1      -7.019   5.082  65.493  1.00  0.00    -0.061 NA 
HETATM   32  C   UNL     1      -8.358   5.213  65.818  1.00  0.00    -0.120 A  
HETATM   33  C   UNL     1      -9.514   4.563  65.364  1.00  0.00    -0.172 A  
HETATM   34  N   UNL     1      -9.492   3.549  64.418  1.00  0.00    -0.142 NA 
HETATM   35  N   UNL     1     -10.711   4.941  65.875  1.00  0.00    -0.268 NA 
HETATM   36  C   UNL     1     -10.730   5.896  66.832  1.00  0.00    -0.321 A  
ENDBRANCH  24  25
ENDBRANCH  23  24
ENDBRANCH  22  23
ENDBRANCH  11  22
ENDBRANCH   8   9
ENDBRANCH   7   8
ENDBRANCH   5   7
ENDBRANCH   2   5
TORSDOF 12
ENDMDL
MODEL      226
REMARK 921   NORMALIZED FREE ENERGY PREDICTED BY IDOCK:   -3.99 KCAL/MOL
REMARK 922        TOTAL FREE ENERGY PREDICTED BY IDOCK:   -8.38 KCAL/MOL
REMARK 923 INTER-LIGAND FREE ENERGY PREDICTED BY IDOCK:   -7.41 KCAL/MOL
REMARK 924 INTRA-LIGAND FREE ENERGY PREDICTED BY IDOCK:   -0.97 KCAL/MOL
REMARK 927      BINDING AFFINITY PREDICTED BY RF-SCORE:    0.00 PKD
ROOT
HETATM    1  C   UNL     1     -11.609  14.975  72.766  1.00  0.00    -0.299 C  
HETATM    2  C   UNL     1     -12.768  14.786  71.769  1.00  0.00    -0.396 C  
HETATM    3  C   UNL     1     -13.990  15.552  72.292  1.00  0.00    -0.642 C  
HETATM    4  C   UNL     1     -12.336  15.361  70.411  1.00  0.00    -0.443 C  
ENDROOT
BRANCH   2   5
HETATM    5  C   UNL     1     -13.053  13.283  71.621  1.00  0.00    -0.363 C  
HETATM    6  O   UNL     1     -13.534  12.597  72.518  1.00  0.00    -0.488 OA 
BRANCH   5   7
HETATM    7  O   UNL     1     -12.625  12.774  70.431  1.00  0.00    -0.181 OA 
BRANCH   7   8
HETATM    8  C   UNL     1     -12.437  11.346  70.430  1.00  0.00    -0.261 C  
BRANCH   8   9
HETATM    9  O   UNL     1     -12.026  10.823  69.170  1.00  0.00    -0.304 OA 
HETATM   10  P   UNL     1     -10.418  10.814  68.918  1.00  0.00    -0.227 P  
HETATM   11  C   UNL     1      -9.755   9.700  70.179  1.00  0.00    -0.254 C  
HETATM   12  O   UNL     1      -9.806  12.177  68.875  1.00  0.00    -0.076 OA 
HETATM   13  O   UNL     1     -10.176   9.891  67.621  1.00  0.00    -0.182 OA 
BRANCH  13  14
HETATM   14  C   UNL     1     -10.423  10.320  66.313  1.00  0.00    -0.144 C  
BRANCH  14  15
HETATM   15  O   UNL     1      -9.828   9.384  65.382  1.00  0.00    -0.270 OA 
BRANCH  15  16
HETATM   16  C   UNL     1      -8.564   9.682  64.968  1.00  0.00    -0.162 C  
HETATM   17  O   UNL     1      -7.599   9.762  65.720  1.00  0.00    -0.101 OA 
BRANCH  16  18
HETATM   18  C   UNL     1      -8.484   9.918  63.445  1.00  0.00    -0.182 C  
HETATM   19  C   UNL     1      -9.618  10.869  63.010  1.00  0.00    -0.382 C  
HETATM   20  C   UNL     1      -8.653   8.593  62.691  1.00  0.00    -0.117 C  
HETATM   21  C   UNL     1      -7.147  10.568  63.062  1.00  0.00    -0.020 C  
ENDBRANCH  16  18
ENDBRANCH  15  16
ENDBRANCH  14  15
ENDBRANCH  13  14
BRANCH  11  22
HETATM   22  O   UNL     1     -10.435   8.463  69.952  1.00  0.00    -0.214 OA 
BRANCH  22  23
HETATM   23  C   UNL     1     -11.191   8.035  71.066  1.00  0.00    -0.266 C  
BRANCH  23  24
HETATM   24  C   UNL     1     -11.241   6.514  71.059  1.00  0.00    -0.309 C  
BRANCH  24  25
HETATM   25  N   UNL     1      -9.927   5.972  71.285  1.00  0.00    -0.181 NA 
HETATM   26  C   UNL     1      -9.415   4.881  70.650  1.00  0.00    -0.173 A  
HETATM   27  N   UNL     1      -9.932   4.226  69.597  1.00  0.00    -0.173 NA 
HETATM   28  H2  UNL     1      -6.753   2.786  72.632  1.00  0.00     0.000 HD 
HETATM   29  H1  UNL     1      -6.002   2.051  71.367  1.00  0.00     0.000 HD 
HETATM   30  C   UNL     1      -9.080   6.305  72.307  1.00  0.00    -0.140 A  
HETATM   31  N   UNL     1      -8.071   5.465  72.393  1.00  0.00    -0.106 NA 
HETATM   32  C   UNL     1      -8.286   4.551  71.375  1.00  0.00    -0.100 A  
HETATM   33  C   UNL     1      -7.608   3.387  70.985  1.00  0.00    -0.043 A  
HETATM   34  N   UNL     1      -6.495   2.898  71.651  1.00  0.00    -0.018 NA 
HETATM   35  N   UNL     1      -8.065   2.706  69.906  1.00  0.00    -0.041 NA 
HETATM   36  C   UNL     1      -9.178   3.155  69.284  1.00  0.00    -0.149 A  
ENDBRANCH  24  25
ENDBRANCH  23  24
ENDBRANCH  22  23
ENDBRANCH  11  22
ENDBRANCH   8   9
ENDBRANCH   7   8
ENDBRANCH   5   7
ENDBRANCH   2   5
TORSDOF 12
ENDMDL
MODEL      227
REMARK 921   NORMALIZED FREE ENERGY PREDICTED BY IDOCK:   -3.96 KCAL/MOL
REMARK 922        TOTAL FREE ENERGY PREDICTED BY IDOCK:   -8.33 KCAL/MOL
REMARK 923 INTER-LIGAND FREE ENERGY PREDICTED BY IDOCK:   -6.57 KCAL/MOL
REMARK 924 INTRA-LIGAND FREE ENERGY PREDICTED BY IDOCK:   -1.76 KCAL/MOL
REMARK 927      BINDING AFFINITY PREDICTED BY RF-SCORE:    0.00 PKD
ROOT
HETATM    1  C   UNL     1      -8.498  16.960  66.469  1.00  0.00    -0.307 C  
HETATM    2  C   UNL     1      -9.873  16.276  66.599  1.00  0.00    -0.265 C  
HETATM    3  C   UNL     1     -10.708  17.051  67.625  1.00  0.00    -0.295 C  
HETATM    4  C   UNL     1     -10.564  16.316  65.227  1.00  0.00    -0.357 C  
ENDROOT
BRANCH   2   5
HETATM    5  C   UNL     1      -9.659  14.813  67.021  1.00  0.00    -0.241 C  
HETATM    6  O   UNL     1      -9.065  13.993  66.328  1.00  0.00    -0.160 OA 
BRANCH   5   7
HETATM    7  O   UNL     1     -10.282  14.500  68.192  1.00  0.00    -0.222 OA 
BRANCH   7   8
HETATM    8  C   UNL     1     -11.101  13.317  68.131  1.00  0.00    -0.259 C  
BRANCH   8   9
HETATM    9  O   UNL     1     -10.730  12.313  69.071  1.00  0.00    -0.194 OA 
HETATM   10  P   UNL     1     -11.408  10.853  68.826  1.00  0.00    -0.323 P  
HETATM   11  C   UNL     1     -10.776  10.311  67.220  1.00  0.00    -0.263 C  
HETATM   12  O   UNL     1     -12.895  10.846  68.970  1.00  0.00    -0.082 OA 
HETATM   13  O   UNL     1     -10.603   9.826  69.768  1.00  0.00    -0.222 OA 
BRANCH  13  14
HETATM   14  C   UNL     1     -10.798   9.732  71.150  1.00  0.00    -0.263 C  
BRANCH  14  15
HETATM   15  O   UNL     1     -10.914   8.338  71.524  1.00  0.00    -0.236 OA 
BRANCH  15  16
HETATM   16  C   UNL     1      -9.776   7.596  71.412  1.00  0.00    -0.163 C  
HETATM   17  O   UNL     1      -8.650   8.036  71.616  1.00  0.00    -0.112 OA 
BRANCH  16  18
HETATM   18  C   UNL     1     -10.063   6.140  70.988  1.00  0.00    -0.231 C  
HETATM   19  C   UNL     1     -10.727   6.129  69.596  1.00  0.00    -0.385 C  
HETATM   20  C   UNL     1     -11.022   5.475  71.983  1.00  0.00    -0.276 C  
HETATM   21  C   UNL     1      -8.761   5.330  70.899  1.00  0.00    -0.141 C  
ENDBRANCH  16  18
ENDBRANCH  15  16
ENDBRANCH  14  15
ENDBRANCH  13  14
BRANCH  11  22
HETATM   22  O   UNL     1      -9.354  10.328  67.374  1.00  0.00    -0.144 OA 
BRANCH  22  23
HETATM   23  C   UNL     1      -8.669   9.844  66.238  1.00  0.00    -0.139 C  
BRANCH  23  24
HETATM   24  C   UNL     1      -9.279   8.506  65.842  1.00  0.00    -0.182 C  
BRANCH  24  25
HETATM   25  N   UNL     1      -8.418   7.427  66.249  1.00  0.00    -0.130 NA 
HETATM   26  C   UNL     1      -8.802   6.126  66.367  1.00  0.00    -0.141 A  
HETATM   27  N   UNL     1      -9.959   5.572  65.968  1.00  0.00    -0.086 NA 
HETATM   28  H2  UNL     1      -6.867   3.957  69.004  1.00  0.00     0.000 HD 
HETATM   29  H1  UNL     1      -7.171   2.463  68.390  1.00  0.00     0.000 HD 
HETATM   30  C   UNL     1      -7.168   7.552  66.793  1.00  0.00    -0.084 A  
HETATM   31  N   UNL     1      -6.742   6.412  67.293  1.00  0.00    -0.058 NA 
HETATM   32  C   UNL     1      -7.770   5.516  67.056  1.00  0.00    -0.100 A  
HETATM   33  C   UNL     1      -7.956   4.170  67.400  1.00  0.00    -0.092 A  
HETATM   34  N   UNL     1      -7.036   3.443  68.140  1.00  0.00    -0.050 NA 
HETATM   35  N   UNL     1      -9.090   3.550  66.992  1.00  0.00    -0.155 NA 
HETATM   36  C   UNL     1     -10.009   4.271  66.312  1.00  0.00    -0.211 A  
ENDBRANCH  24  25
ENDBRANCH  23  24
ENDBRANCH  22  23
ENDBRANCH  11  22
ENDBRANCH   8   9
ENDBRANCH   7   8
ENDBRANCH   5   7
ENDBRANCH   2   5
TORSDOF 12
ENDMDL
MODEL      228
REMARK 921   NORMALIZED FREE ENERGY PREDICTED BY IDOCK:   -3.96 KCAL/MOL
REMARK 922        TOTAL FREE ENERGY PREDICTED BY IDOCK:   -8.33 KCAL/MOL
REMARK 923 INTER-LIGAND FREE ENERGY PREDICTED BY IDOCK:   -6.98 KCAL/MOL
REMARK 924 INTRA-LIGAND FREE ENERGY PREDICTED BY IDOCK:   -1.35 KCAL/MOL
REMARK 927      BINDING AFFINITY PREDICTED BY RF-SCORE:    0.00 PKD
ROOT
HETATM    1  C   UNL     1      -8.538   3.208  65.795  1.00  0.00    -0.118 C  
HETATM    2  C   UNL     1      -7.123   3.804  65.932  1.00  0.00    -0.066 C  
HETATM    3  C   UNL     1      -6.435   3.152  67.137  1.00  0.00    -0.037 C  
HETATM    4  C   UNL     1      -6.339   3.485  64.649  1.00  0.00    -0.024 C  
ENDROOT
BRANCH   2   5
HETATM    5  C   UNL     1      -7.242   5.328  66.093  1.00  0.00    -0.073 C  
HETATM    6  O   UNL     1      -7.485   6.087  65.160  1.00  0.00    -0.076 OA 
BRANCH   5   7
HETATM    7  O   UNL     1      -6.950   5.755  67.354  1.00  0.00    -0.062 OA 
BRANCH   7   8
HETATM    8  C   UNL     1      -8.076   6.288  68.075  1.00  0.00    -0.115 C  
BRANCH   8   9
HETATM    9  O   UNL     1      -8.519   7.554  67.594  1.00  0.00    -0.117 OA 
HETATM   10  P   UNL     1     -10.133   7.759  67.573  1.00  0.00    -0.257 P  
HETATM   11  C   UNL     1     -10.636   7.665  69.308  1.00  0.00    -0.201 C  
HETATM   12  O   UNL     1     -10.848   6.833  66.643  1.00  0.00    -0.256 OA 
HETATM   13  O   UNL     1     -10.379   9.331  67.330  1.00  0.00    -0.232 OA 
BRANCH  13  14
HETATM   14  C   UNL     1     -10.242   9.949  66.083  1.00  0.00    -0.207 C  
BRANCH  14  15
HETATM   15  O   UNL     1     -10.175  11.384  66.264  1.00  0.00    -0.219 OA 
BRANCH  15  16
HETATM   16  C   UNL     1     -11.373  12.030  66.333  1.00  0.00    -0.354 C  
HETATM   17  O   UNL     1     -12.115  11.993  67.309  1.00  0.00    -0.572 OA 
BRANCH  16  18
HETATM   18  C   UNL     1     -11.699  12.805  65.039  1.00  0.00    -0.391 C  
HETATM   19  C   UNL     1     -12.427  14.118  65.393  1.00  0.00    -0.488 C  
HETATM   20  C   UNL     1     -12.619  11.974  64.136  1.00  0.00    -0.413 C  
HETATM   21  C   UNL     1     -10.413  13.166  64.280  1.00  0.00    -0.410 C  
ENDBRANCH  16  18
ENDBRANCH  15  16
ENDBRANCH  14  15
ENDBRANCH  13  14
BRANCH  11  22
HETATM   22  O   UNL     1      -9.879   8.692  69.953  1.00  0.00    -0.178 OA 
BRANCH  22  23
HETATM   23  C   UNL     1     -10.469   9.141  71.156  1.00  0.00    -0.315 C  
BRANCH  23  24
HETATM   24  C   UNL     1      -9.659   8.595  72.323  1.00  0.00    -0.278 C  
BRANCH  24  25
HETATM   25  N   UNL     1     -10.046   7.237  72.604  1.00  0.00    -0.182 NA 
HETATM   26  C   UNL     1      -9.244   6.148  72.434  1.00  0.00    -0.139 A  
HETATM   27  N   UNL     1      -7.929   6.131  72.162  1.00  0.00    -0.108 NA 
HETATM   28  H2  UNL     1     -11.042   2.753  71.634  1.00  0.00     0.000 HD 
HETATM   29  H1  UNL     1      -9.870   1.712  72.128  1.00  0.00     0.000 HD 
HETATM   30  C   UNL     1     -11.315   6.794  72.858  1.00  0.00    -0.145 A  
HETATM   31  N   UNL     1     -11.386   5.481  72.822  1.00  0.00    -0.305 NA 
HETATM   32  C   UNL     1     -10.098   5.066  72.530  1.00  0.00    -0.183 A  
HETATM   33  C   UNL     1      -9.537   3.802  72.296  1.00  0.00    -0.144 A  
HETATM   34  N   UNL     1     -10.279   2.631  72.299  1.00  0.00    -0.156 NA 
HETATM   35  N   UNL     1      -8.206   3.723  72.051  1.00  0.00    -0.075 NA 
HETATM   36  C   UNL     1      -7.491   4.868  72.000  1.00  0.00    -0.083 A  
ENDBRANCH  24  25
ENDBRANCH  23  24
ENDBRANCH  22  23
ENDBRANCH  11  22
ENDBRANCH   8   9
ENDBRANCH   7   8
ENDBRANCH   5   7
ENDBRANCH   2   5
TORSDOF 12
ENDMDL
MODEL      229
REMARK 921   NORMALIZED FREE ENERGY PREDICTED BY IDOCK:   -3.95 KCAL/MOL
REMARK 922        TOTAL FREE ENERGY PREDICTED BY IDOCK:   -8.31 KCAL/MOL
REMARK 923 INTER-LIGAND FREE ENERGY PREDICTED BY IDOCK:   -6.62 KCAL/MOL
REMARK 924 INTRA-LIGAND FREE ENERGY PREDICTED BY IDOCK:   -1.69 KCAL/MOL
REMARK 927      BINDING AFFINITY PREDICTED BY RF-SCORE:    0.00 PKD
ROOT
HETATM    1  C   UNL     1     -11.651   6.959  69.997  1.00  0.00    -0.299 C  
HETATM    2  C   UNL     1     -11.906   7.793  71.269  1.00  0.00    -0.318 C  
HETATM    3  C   UNL     1     -12.051   9.265  70.865  1.00  0.00    -0.297 C  
HETATM    4  C   UNL     1     -13.209   7.299  71.916  1.00  0.00    -0.289 C  
ENDROOT
BRANCH   2   5
HETATM    5  C   UNL     1     -10.738   7.577  72.244  1.00  0.00    -0.250 C  
HETATM    6  O   UNL     1     -10.870   7.582  73.464  1.00  0.00    -0.369 OA 
BRANCH   5   7
HETATM    7  O   UNL     1      -9.531   7.482  71.618  1.00  0.00    -0.149 OA 
BRANCH   7   8
HETATM    8  C   UNL     1      -8.697   8.647  71.755  1.00  0.00    -0.197 C  
BRANCH   8   9
HETATM    9  O   UNL     1      -8.601   9.428  70.567  1.00  0.00    -0.206 OA 
HETATM   10  P   UNL     1      -7.084   9.784  70.095  1.00  0.00    -0.150 P  
HETATM   11  C   UNL     1      -6.326   8.184  69.722  1.00  0.00    -0.036 C  
HETATM   12  O   UNL     1      -6.337  10.643  71.063  1.00  0.00    -0.349 OA 
HETATM   13  O   UNL     1      -7.208  10.355  68.595  1.00  0.00    -0.076 OA 
BRANCH  13  14
HETATM   14  C   UNL     1      -7.650  11.647  68.296  1.00  0.00    -0.120 C  
BRANCH  14  15
HETATM   15  O   UNL     1      -8.254  11.655  66.980  1.00  0.00    -0.157 OA 
BRANCH  15  16
HETATM   16  C   UNL     1      -9.409  12.369  66.862  1.00  0.00    -0.213 C  
HETATM   17  O   UNL     1      -9.501  13.567  67.103  1.00  0.00    -0.227 OA 
BRANCH  16  18
HETATM   18  C   UNL     1     -10.595  11.495  66.398  1.00  0.00    -0.304 C  
HETATM   19  C   UNL     1     -10.136  10.568  65.254  1.00  0.00    -0.369 C  
HETATM   20  C   UNL     1     -11.734  12.378  65.874  1.00  0.00    -0.476 C  
HETATM   21  C   UNL     1     -11.106  10.614  67.547  1.00  0.00    -0.367 C  
ENDBRANCH  16  18
ENDBRANCH  15  16
ENDBRANCH  14  15
ENDBRANCH  13  14
BRANCH  11  22
HETATM   22  O   UNL     1      -7.178   7.612  68.726  1.00  0.00    -0.077 OA 
BRANCH  22  23
HETATM   23  C   UNL     1      -6.467   6.900  67.734  1.00  0.00    -0.050 C  
BRANCH  23  24
HETATM   24  C   UNL     1      -6.763   5.416  67.902  1.00  0.00    -0.055 C  
BRANCH  24  25
HETATM   25  N   UNL     1      -7.214   4.854  66.656  1.00  0.00    -0.079 NA 
HETATM   26  C   UNL     1      -8.514   4.803  66.251  1.00  0.00    -0.111 A  
HETATM   27  N   UNL     1      -9.574   5.404  66.815  1.00  0.00    -0.137 NA 
HETATM   28  H2  UNL     1      -9.489   1.850  63.857  1.00  0.00     0.000 HD 
HETATM   29  H1  UNL     1     -10.830   2.504  63.166  1.00  0.00     0.000 HD 
HETATM   30  C   UNL     1      -6.470   4.092  65.797  1.00  0.00    -0.037 A  
HETATM   31  N   UNL     1      -7.224   3.519  64.883  1.00  0.00    -0.065 NA 
HETATM   32  C   UNL     1      -8.511   3.936  65.174  1.00  0.00    -0.112 A  
HETATM   33  C   UNL     1      -9.760   3.626  64.616  1.00  0.00    -0.179 A  
HETATM   34  N   UNL     1      -9.922   2.728  63.572  1.00  0.00    -0.132 NA 
HETATM   35  N   UNL     1     -10.861   4.232  65.123  1.00  0.00    -0.171 NA 
HETATM   36  C   UNL     1     -10.710   5.071  66.172  1.00  0.00    -0.203 A  
ENDBRANCH  24  25
ENDBRANCH  23  24
ENDBRANCH  22  23
ENDBRANCH  11  22
ENDBRANCH   8   9
ENDBRANCH   7   8
ENDBRANCH   5   7
ENDBRANCH   2   5
TORSDOF 12
ENDMDL
MODEL      230
REMARK 921   NORMALIZED FREE ENERGY PREDICTED BY IDOCK:   -3.92 KCAL/MOL
REMARK 922        TOTAL FREE ENERGY PREDICTED BY IDOCK:   -8.26 KCAL/MOL
REMARK 923 INTER-LIGAND FREE ENERGY PREDICTED BY IDOCK:   -7.08 KCAL/MOL
REMARK 924 INTRA-LIGAND FREE ENERGY PREDICTED BY IDOCK:   -1.19 KCAL/MOL
REMARK 927      BINDING AFFINITY PREDICTED BY RF-SCORE:    0.00 PKD
ROOT
HETATM    1  C   UNL     1     -10.482   5.506  66.494  1.00  0.00    -0.331 C  
HETATM    2  C   UNL     1      -9.092   4.850  66.381  1.00  0.00    -0.127 C  
HETATM    3  C   UNL     1      -9.160   3.454  67.012  1.00  0.00    -0.192 C  
HETATM    4  C   UNL     1      -8.734   4.731  64.891  1.00  0.00    -0.148 C  
ENDROOT
BRANCH   2   5
HETATM    5  C   UNL     1      -8.063   5.748  67.084  1.00  0.00    -0.102 C  
HETATM    6  O   UNL     1      -7.086   5.310  67.685  1.00  0.00    -0.064 OA 
BRANCH   5   7
HETATM    7  O   UNL     1      -8.399   7.068  67.056  1.00  0.00    -0.118 OA 
BRANCH   7   8
HETATM    8  C   UNL     1      -7.852   7.843  68.139  1.00  0.00    -0.127 C  
BRANCH   8   9
HETATM    9  O   UNL     1      -8.087   9.243  68.019  1.00  0.00    -0.103 OA 
HETATM   10  P   UNL     1      -9.596   9.653  67.565  1.00  0.00    -0.160 P  
HETATM   11  C   UNL     1     -10.660   9.066  68.905  1.00  0.00    -0.180 C  
HETATM   12  O   UNL     1      -9.963   9.183  66.195  1.00  0.00    -0.286 OA 
HETATM   13  O   UNL     1      -9.723  11.237  67.825  1.00  0.00    -0.169 OA 
BRANCH  13  14
HETATM   14  C   UNL     1      -9.161  12.204  66.986  1.00  0.00    -0.202 C  
BRANCH  14  15
HETATM   15  O   UNL     1      -9.193  13.491  67.647  1.00  0.00    -0.196 OA 
BRANCH  15  16
HETATM   16  C   UNL     1      -8.298  14.414  67.194  1.00  0.00    -0.191 C  
HETATM   17  O   UNL     1      -7.085  14.242  67.183  1.00  0.00    -0.133 OA 
BRANCH  16  18
HETATM   18  C   UNL     1      -8.985  15.707  66.705  1.00  0.00    -0.317 C  
HETATM   19  C   UNL     1      -9.885  15.387  65.493  1.00  0.00    -0.359 C  
HETATM   20  C   UNL     1      -7.935  16.735  66.265  1.00  0.00    -0.352 C  
HETATM   21  C   UNL     1      -9.870  16.307  67.808  1.00  0.00    -0.237 C  
ENDBRANCH  16  18
ENDBRANCH  15  16
ENDBRANCH  14  15
ENDBRANCH  13  14
BRANCH  11  22
HETATM   22  O   UNL     1     -10.154   9.718  70.072  1.00  0.00    -0.227 OA 
BRANCH  22  23
HETATM   23  C   UNL     1     -10.990   9.560  71.200  1.00  0.00    -0.368 C  
BRANCH  23  24
HETATM   24  C   UNL     1     -11.677   8.204  71.104  1.00  0.00    -0.283 C  
BRANCH  24  25
HETATM   25  N   UNL     1     -10.989   7.240  71.922  1.00  0.00    -0.227 NA 
HETATM   26  C   UNL     1     -10.505   6.047  71.478  1.00  0.00    -0.228 A  
HETATM   27  N   UNL     1     -10.405   5.622  70.207  1.00  0.00    -0.243 NA 
HETATM   28  H2  UNL     1     -10.323   3.139  74.108  1.00  0.00     0.000 HD 
HETATM   29  H1  UNL     1      -9.177   2.205  73.388  1.00  0.00     0.000 HD 
HETATM   30  C   UNL     1     -10.911   7.249  73.288  1.00  0.00    -0.358 A  
HETATM   31  N   UNL     1     -10.441   6.111  73.753  1.00  0.00    -0.273 NA 
HETATM   32  C   UNL     1     -10.208   5.339  72.627  1.00  0.00    -0.184 A  
HETATM   33  C   UNL     1      -9.773   4.017  72.455  1.00  0.00    -0.150 A  
HETATM   34  N   UNL     1      -9.494   3.167  73.514  1.00  0.00    -0.098 NA 
HETATM   35  N   UNL     1      -9.619   3.548  71.193  1.00  0.00    -0.163 NA 
HETATM   36  C   UNL     1      -9.937   4.361  70.160  1.00  0.00    -0.179 A  
ENDBRANCH  24  25
ENDBRANCH  23  24
ENDBRANCH  22  23
ENDBRANCH  11  22
ENDBRANCH   8   9
ENDBRANCH   7   8
ENDBRANCH   5   7
ENDBRANCH   2   5
TORSDOF 12
ENDMDL
MODEL      231
REMARK 921   NORMALIZED FREE ENERGY PREDICTED BY IDOCK:   -3.91 KCAL/MOL
REMARK 922        TOTAL FREE ENERGY PREDICTED BY IDOCK:   -8.25 KCAL/MOL
REMARK 923 INTER-LIGAND FREE ENERGY PREDICTED BY IDOCK:   -6.83 KCAL/MOL
REMARK 924 INTRA-LIGAND FREE ENERGY PREDICTED BY IDOCK:   -1.43 KCAL/MOL
REMARK 927      BINDING AFFINITY PREDICTED BY RF-SCORE:    0.00 PKD
ROOT
HETATM    1  C   UNL     1      -8.345   6.357  71.925  1.00  0.00    -0.116 C  
HETATM    2  C   UNL     1      -9.703   5.718  71.575  1.00  0.00    -0.193 C  
HETATM    3  C   UNL     1      -9.444   4.418  70.803  1.00  0.00    -0.243 C  
HETATM    4  C   UNL     1     -10.443   5.408  72.885  1.00  0.00    -0.250 C  
ENDROOT
BRANCH   2   5
HETATM    5  C   UNL     1     -10.523   6.721  70.749  1.00  0.00    -0.214 C  
HETATM    6  O   UNL     1     -11.699   6.543  70.447  1.00  0.00    -0.393 OA 
BRANCH   5   7
HETATM    7  O   UNL     1      -9.783   7.776  70.304  1.00  0.00    -0.179 OA 
BRANCH   7   8
HETATM    8  C   UNL     1      -9.449   7.719  68.905  1.00  0.00    -0.150 C  
BRANCH   8   9
HETATM    9  O   UNL     1     -10.036   8.761  68.130  1.00  0.00    -0.175 OA 
HETATM   10  P   UNL     1     -10.067  10.221  68.849  1.00  0.00    -0.231 P  
HETATM   11  C   UNL     1      -8.328  10.666  69.073  1.00  0.00    -0.152 C  
HETATM   12  O   UNL     1     -10.910  10.270  70.081  1.00  0.00    -0.281 OA 
HETATM   13  O   UNL     1     -10.445  11.276  67.693  1.00  0.00    -0.182 OA 
BRANCH  13  14
HETATM   14  C   UNL     1     -11.741  11.445  67.197  1.00  0.00     0.030 C  
BRANCH  14  15
HETATM   15  O   UNL     1     -11.871  12.775  66.638  1.00  0.00    -0.383 OA 
BRANCH  15  16
HETATM   16  C   UNL     1     -12.248  12.834  65.329  1.00  0.00    -0.483 C  
HETATM   17  O   UNL     1     -13.354  12.502  64.920  1.00  0.00    -0.702 OA 
BRANCH  16  18
HETATM   18  C   UNL     1     -11.118  13.358  64.417  1.00  0.00    -0.408 C  
HETATM   19  C   UNL     1     -10.465  12.175  63.673  1.00  0.00    -0.495 C  
HETATM   20  C   UNL     1     -10.038  14.056  65.253  1.00  0.00    -0.345 C  
HETATM   21  C   UNL     1     -11.672  14.331  63.366  1.00  0.00     0.812 C  
ENDBRANCH  16  18
ENDBRANCH  15  16
ENDBRANCH  14  15
ENDBRANCH  13  14
BRANCH  11  22
HETATM   22  O   UNL     1      -7.778  10.623  67.754  1.00  0.00    -0.098 OA 
BRANCH  22  23
HETATM   23  C   UNL     1      -7.077  11.800  67.409  1.00  0.00    -0.126 C  
BRANCH  23  24
HETATM   24  C   UNL     1      -6.915  12.649  68.663  1.00  0.00    -0.091 C  
BRANCH  24  25
HETATM   25  N   UNL     1      -6.920  14.047  68.320  1.00  0.00    -0.094 NA 
HETATM   26  C   UNL     1      -8.014  14.857  68.370  1.00  0.00    -0.134 A  
HETATM   27  N   UNL     1      -9.217  14.581  68.901  1.00  0.00    -0.161 NA 
HETATM   28  H2  UNL     1      -8.075  17.878  65.865  1.00  0.00     0.000 HD 
HETATM   29  H1  UNL     1      -9.134  18.854  66.657  1.00  0.00     0.000 HD 
HETATM   30  C   UNL     1      -5.916  14.727  67.686  1.00  0.00    -0.038 A  
HETATM   31  N   UNL     1      -6.314  15.916  67.287  1.00  0.00    -0.284 NA 
HETATM   32  C   UNL     1      -7.637  15.998  67.686  1.00  0.00    -0.146 A  
HETATM   33  C   UNL     1      -8.626  16.975  67.504  1.00  0.00    -0.205 A  
HETATM   34  N   UNL     1      -8.415  18.144  66.789  1.00  0.00    -0.251 NA 
HETATM   35  N   UNL     1      -9.849  16.764  68.050  1.00  0.00    -0.258 NA 
HETATM   36  C   UNL     1     -10.071  15.603  68.706  1.00  0.00    -0.211 A  
ENDBRANCH  24  25
ENDBRANCH  23  24
ENDBRANCH  22  23
ENDBRANCH  11  22
ENDBRANCH   8   9
ENDBRANCH   7   8
ENDBRANCH   5   7
ENDBRANCH   2   5
TORSDOF 12
ENDMDL
MODEL      232
REMARK 921   NORMALIZED FREE ENERGY PREDICTED BY IDOCK:   -3.91 KCAL/MOL
REMARK 922        TOTAL FREE ENERGY PREDICTED BY IDOCK:   -8.25 KCAL/MOL
REMARK 923 INTER-LIGAND FREE ENERGY PREDICTED BY IDOCK:   -8.16 KCAL/MOL
REMARK 924 INTRA-LIGAND FREE ENERGY PREDICTED BY IDOCK:   -0.09 KCAL/MOL
REMARK 927      BINDING AFFINITY PREDICTED BY RF-SCORE:    0.00 PKD
ROOT
HETATM    1  C   UNL     1      -9.486  15.246  65.877  1.00  0.00    -0.351 C  
HETATM    2  C   UNL     1     -10.854  14.681  65.446  1.00  0.00    -0.365 C  
HETATM    3  C   UNL     1     -11.709  14.466  66.701  1.00  0.00    -0.410 C  
HETATM    4  C   UNL     1     -11.532  15.707  64.525  1.00  0.00    -0.304 C  
ENDROOT
BRANCH   2   5
HETATM    5  C   UNL     1     -10.627  13.372  64.674  1.00  0.00    -0.415 C  
HETATM    6  O   UNL     1     -11.147  13.132  63.589  1.00  0.00    -0.324 OA 
BRANCH   5   7
HETATM    7  O   UNL     1      -9.874  12.470  65.364  1.00  0.00    -0.246 OA 
BRANCH   7   8
HETATM    8  C   UNL     1      -9.631  11.237  64.660  1.00  0.00    -0.231 C  
BRANCH   8   9
HETATM    9  O   UNL     1      -9.664  10.083  65.495  1.00  0.00    -0.247 OA 
HETATM   10  P   UNL     1      -8.717  10.160  66.817  1.00  0.00    -0.125 P  
HETATM   11  C   UNL     1      -9.395  11.522  67.796  1.00  0.00    -0.168 C  
HETATM   12  O   UNL     1      -7.258  10.249  66.510  1.00  0.00    -0.099 OA 
HETATM   13  O   UNL     1      -9.167   8.933  67.757  1.00  0.00    -0.140 OA 
BRANCH  13  14
HETATM   14  C   UNL     1      -8.800   7.604  67.519  1.00  0.00    -0.124 C  
BRANCH  14  15
HETATM   15  O   UNL     1      -9.500   7.115  66.351  1.00  0.00    -0.173 OA 
BRANCH  15  16
HETATM   16  C   UNL     1     -10.039   5.868  66.461  1.00  0.00    -0.156 C  
HETATM   17  O   UNL     1     -11.000   5.598  67.173  1.00  0.00    -0.218 OA 
BRANCH  16  18
HETATM   18  C   UNL     1      -9.296   4.829  65.595  1.00  0.00    -0.166 C  
HETATM   19  C   UNL     1      -8.420   3.936  66.497  1.00  0.00    -0.105 C  
HETATM   20  C   UNL     1      -8.383   5.533  64.583  1.00  0.00    -0.131 C  
HETATM   21  C   UNL     1     -10.291   3.923  64.854  1.00  0.00    -0.152 C  
ENDBRANCH  16  18
ENDBRANCH  15  16
ENDBRANCH  14  15
ENDBRANCH  13  14
BRANCH  11  22
HETATM   22  O   UNL     1     -10.759  11.155  68.018  1.00  0.00    -0.187 OA 
BRANCH  22  23
HETATM   23  C   UNL     1     -11.176  11.358  69.352  1.00  0.00    -0.268 C  
BRANCH  23  24
HETATM   24  C   UNL     1     -12.330  10.410  69.646  1.00  0.00     0.009 C  
BRANCH  24  25
HETATM   25  N   UNL     1     -12.122   9.749  70.907  1.00  0.00    -0.310 NA 
HETATM   26  C   UNL     1     -10.928   9.256  71.340  1.00  0.00    -0.359 A  
HETATM   27  N   UNL     1      -9.716   9.440  70.791  1.00  0.00    -0.273 NA 
HETATM   28  H2  UNL     1     -11.079   6.190  73.786  1.00  0.00     0.000 HD 
HETATM   29  H1  UNL     1      -9.605   6.348  74.497  1.00  0.00     0.000 HD 
HETATM   30  C   UNL     1     -13.097   9.309  71.760  1.00  0.00    -0.400 A  
HETATM   31  N   UNL     1     -12.605   8.525  72.695  1.00  0.00    -0.293 NA 
HETATM   32  C   UNL     1     -11.249   8.462  72.426  1.00  0.00    -0.368 A  
HETATM   33  C   UNL     1     -10.195   7.748  73.013  1.00  0.00    -0.330 A  
HETATM   34  N   UNL     1     -10.371   6.868  74.070  1.00  0.00    -0.368 NA 
HETATM   35  N   UNL     1      -8.944   7.923  72.521  1.00  0.00    -0.155 NA 
HETATM   36  C   UNL     1      -8.777   8.743  71.460  1.00  0.00    -0.206 A  
ENDBRANCH  24  25
ENDBRANCH  23  24
ENDBRANCH  22  23
ENDBRANCH  11  22
ENDBRANCH   8   9
ENDBRANCH   7   8
ENDBRANCH   5   7
ENDBRANCH   2   5
TORSDOF 12
ENDMDL
MODEL      233
REMARK 921   NORMALIZED FREE ENERGY PREDICTED BY IDOCK:   -3.91 KCAL/MOL
REMARK 922        TOTAL FREE ENERGY PREDICTED BY IDOCK:   -8.25 KCAL/MOL
REMARK 923 INTER-LIGAND FREE ENERGY PREDICTED BY IDOCK:   -7.13 KCAL/MOL
REMARK 924 INTRA-LIGAND FREE ENERGY PREDICTED BY IDOCK:   -1.11 KCAL/MOL
REMARK 927      BINDING AFFINITY PREDICTED BY RF-SCORE:    0.00 PKD
ROOT
HETATM    1  C   UNL     1     -10.471  14.939  65.112  1.00  0.00    -0.442 C  
HETATM    2  C   UNL     1     -11.452  13.766  64.923  1.00  0.00    -0.351 C  
HETATM    3  C   UNL     1     -12.362  13.688  66.155  1.00  0.00    -0.476 C  
HETATM    4  C   UNL     1     -12.297  14.039  63.669  1.00  0.00    -0.087 C  
ENDROOT
BRANCH   2   5
HETATM    5  C   UNL     1     -10.645  12.474  64.724  1.00  0.00    -0.305 C  
HETATM    6  O   UNL     1     -10.109  12.172  63.662  1.00  0.00    -0.395 OA 
BRANCH   5   7
HETATM    7  O   UNL     1     -10.670  11.655  65.813  1.00  0.00    -0.266 OA 
BRANCH   7   8
HETATM    8  C   UNL     1      -9.797  10.514  65.720  1.00  0.00    -0.237 C  
BRANCH   8   9
HETATM    9  O   UNL     1     -10.440   9.274  66.000  1.00  0.00    -0.104 OA 
HETATM   10  P   UNL     1      -9.780   8.413  67.214  1.00  0.00    -0.226 P  
HETATM   11  C   UNL     1      -9.990   9.446  68.684  1.00  0.00    -0.173 C  
HETATM   12  O   UNL     1      -8.384   7.956  66.940  1.00  0.00    -0.113 OA 
HETATM   13  O   UNL     1     -10.844   7.258  67.569  1.00  0.00    -0.249 OA 
BRANCH  13  14
HETATM   14  C   UNL     1     -11.022   6.109  66.793  1.00  0.00    -0.245 C  
BRANCH  14  15
HETATM   15  O   UNL     1     -10.226   5.032  67.342  1.00  0.00    -0.183 OA 
BRANCH  15  16
HETATM   16  C   UNL     1      -9.094   4.718  66.649  1.00  0.00    -0.117 C  
HETATM   17  O   UNL     1      -8.957   4.899  65.445  1.00  0.00    -0.144 OA 
BRANCH  16  18
HETATM   18  C   UNL     1      -8.007   4.097  67.551  1.00  0.00    -0.091 C  
HETATM   19  C   UNL     1      -7.739   2.642  67.111  1.00  0.00    -0.070 C  
HETATM   20  C   UNL     1      -8.473   4.079  69.013  1.00  0.00    -0.099 C  
HETATM   21  C   UNL     1      -6.689   4.877  67.435  1.00  0.00    -0.055 C  
ENDBRANCH  16  18
ENDBRANCH  15  16
ENDBRANCH  14  15
ENDBRANCH  13  14
BRANCH  11  22
HETATM   22  O   UNL     1     -11.401   9.668  68.763  1.00  0.00    -0.032 OA 
BRANCH  22  23
HETATM   23  C   UNL     1     -11.763  11.011  68.518  1.00  0.00    -0.278 C  
BRANCH  23  24
HETATM   24  C   UNL     1     -11.785  11.754  69.846  1.00  0.00    -0.323 C  
BRANCH  24  25
HETATM   25  N   UNL     1     -11.698  13.174  69.623  1.00  0.00    -0.309 NA 
HETATM   26  C   UNL     1     -10.609  13.817  69.117  1.00  0.00    -0.072 A  
HETATM   27  N   UNL     1      -9.511  13.268  68.572  1.00  0.00    -0.164 NA 
HETATM   28  H2  UNL     1     -10.094  17.542  70.240  1.00  0.00     0.000 HD 
HETATM   29  H1  UNL     1      -9.152  18.064  68.997  1.00  0.00     0.000 HD 
HETATM   30  C   UNL     1     -12.576  14.119  70.080  1.00  0.00    -0.214 A  
HETATM   31  N   UNL     1     -12.096  15.336  69.935  1.00  0.00    -0.335 NA 
HETATM   32  C   UNL     1     -10.851  15.157  69.357  1.00  0.00    -0.262 A  
HETATM   33  C   UNL     1      -9.826  16.050  69.013  1.00  0.00    -0.239 A  
HETATM   34  N   UNL     1      -9.898  17.414  69.247  1.00  0.00    -0.131 NA 
HETATM   35  N   UNL     1      -8.708  15.555  68.426  1.00  0.00    -0.169 NA 
HETATM   36  C   UNL     1      -8.616  14.218  68.241  1.00  0.00    -0.176 A  
ENDBRANCH  24  25
ENDBRANCH  23  24
ENDBRANCH  22  23
ENDBRANCH  11  22
ENDBRANCH   8   9
ENDBRANCH   7   8
ENDBRANCH   5   7
ENDBRANCH   2   5
TORSDOF 12
ENDMDL
MODEL      234
REMARK 921   NORMALIZED FREE ENERGY PREDICTED BY IDOCK:   -3.90 KCAL/MOL
REMARK 922        TOTAL FREE ENERGY PREDICTED BY IDOCK:   -8.23 KCAL/MOL
REMARK 923 INTER-LIGAND FREE ENERGY PREDICTED BY IDOCK:   -7.12 KCAL/MOL
REMARK 924 INTRA-LIGAND FREE ENERGY PREDICTED BY IDOCK:   -1.10 KCAL/MOL
REMARK 927      BINDING AFFINITY PREDICTED BY RF-SCORE:    0.00 PKD
ROOT
HETATM    1  C   UNL     1      -7.912   7.837  64.213  1.00  0.00    -0.120 C  
HETATM    2  C   UNL     1      -6.482   8.137  64.704  1.00  0.00    -0.064 C  
HETATM    3  C   UNL     1      -6.269   7.425  66.046  1.00  0.00    -0.041 C  
HETATM    4  C   UNL     1      -5.490   7.594  63.664  1.00  0.00    -0.041 C  
ENDROOT
BRANCH   2   5
HETATM    5  C   UNL     1      -6.310   9.659  64.829  1.00  0.00    -0.089 C  
HETATM    6  O   UNL     1      -5.215  10.212  64.873  1.00  0.00    -0.063 OA 
BRANCH   5   7
HETATM    7  O   UNL     1      -7.493  10.318  64.986  1.00  0.00    -0.140 OA 
BRANCH   7   8
HETATM    8  C   UNL     1      -7.692  10.875  66.299  1.00  0.00    -0.147 C  
BRANCH   8   9
HETATM    9  O   UNL     1      -8.754  11.822  66.366  1.00  0.00    -0.193 OA 
HETATM   10  P   UNL     1     -10.251  11.187  66.274  1.00  0.00    -0.252 P  
HETATM   11  C   UNL     1     -10.403  10.139  67.740  1.00  0.00    -0.210 C  
HETATM   12  O   UNL     1     -10.544  10.519  64.969  1.00  0.00    -0.234 OA 
HETATM   13  O   UNL     1     -11.260  12.365  66.706  1.00  0.00    -0.276 OA 
BRANCH  13  14
HETATM   14  C   UNL     1     -11.611  13.426  65.866  1.00  0.00    -0.342 C  
BRANCH  14  15
HETATM   15  O   UNL     1     -10.649  14.497  66.018  1.00  0.00    -0.290 OA 
BRANCH  15  16
HETATM   16  C   UNL     1     -10.913  15.395  67.010  1.00  0.00    -0.306 C  
HETATM   17  O   UNL     1     -11.766  15.229  67.874  1.00  0.00    -0.328 OA 
BRANCH  16  18
HETATM   18  C   UNL     1     -10.021  16.652  66.916  1.00  0.00    -0.272 C  
HETATM   19  C   UNL     1     -10.099  17.440  68.240  1.00  0.00    -0.339 C  
HETATM   20  C   UNL     1     -10.506  17.565  65.783  1.00  0.00    -0.212 C  
HETATM   21  C   UNL     1      -8.554  16.264  66.681  1.00  0.00    -0.302 C  
ENDBRANCH  16  18
ENDBRANCH  15  16
ENDBRANCH  14  15
ENDBRANCH  13  14
BRANCH  11  22
HETATM   22  O   UNL     1     -10.160  11.025  68.836  1.00  0.00    -0.197 OA 
BRANCH  22  23
HETATM   23  C   UNL     1     -10.671  10.542  70.061  1.00  0.00    -0.224 C  
BRANCH  23  24
HETATM   24  C   UNL     1     -11.374   9.217  69.801  1.00  0.00    -0.005 C  
BRANCH  24  25
HETATM   25  N   UNL     1     -11.230   8.346  70.937  1.00  0.00    -0.258 NA 
HETATM   26  C   UNL     1     -10.775   7.063  70.882  1.00  0.00    -0.235 A  
HETATM   27  N   UNL     1     -10.217   6.434  69.834  1.00  0.00    -0.177 NA 
HETATM   28  H2  UNL     1     -12.107   4.609  73.641  1.00  0.00     0.000 HD 
HETATM   29  H1  UNL     1     -10.907   3.486  73.594  1.00  0.00     0.000 HD 
HETATM   30  C   UNL     1     -11.725   8.567  72.193  1.00  0.00    -0.378 A  
HETATM   31  N   UNL     1     -11.653   7.486  72.940  1.00  0.00    -0.250 NA 
HETATM   32  C   UNL     1     -11.084   6.528  72.118  1.00  0.00    -0.260 A  
HETATM   33  C   UNL     1     -10.804   5.166  72.299  1.00  0.00    -0.176 A  
HETATM   34  N   UNL     1     -11.111   4.477  73.463  1.00  0.00    -0.306 NA 
HETATM   35  N   UNL     1     -10.208   4.489  71.287  1.00  0.00    -0.143 NA 
HETATM   36  C   UNL     1      -9.952   5.148  70.135  1.00  0.00    -0.253 A  
ENDBRANCH  24  25
ENDBRANCH  23  24
ENDBRANCH  22  23
ENDBRANCH  11  22
ENDBRANCH   8   9
ENDBRANCH   7   8
ENDBRANCH   5   7
ENDBRANCH   2   5
TORSDOF 12
ENDMDL
MODEL      235
REMARK 921   NORMALIZED FREE ENERGY PREDICTED BY IDOCK:   -3.89 KCAL/MOL
REMARK 922        TOTAL FREE ENERGY PREDICTED BY IDOCK:   -8.21 KCAL/MOL
REMARK 923 INTER-LIGAND FREE ENERGY PREDICTED BY IDOCK:   -7.69 KCAL/MOL
REMARK 924 INTRA-LIGAND FREE ENERGY PREDICTED BY IDOCK:   -0.52 KCAL/MOL
REMARK 927      BINDING AFFINITY PREDICTED BY RF-SCORE:    0.00 PKD
ROOT
HETATM    1  C   UNL     1     -12.388  14.004  64.177  1.00  0.00    -0.374 C  
HETATM    2  C   UNL     1     -11.429  13.972  65.383  1.00  0.00    -0.315 C  
HETATM    3  C   UNL     1     -10.366  15.060  65.189  1.00  0.00    -0.422 C  
HETATM    4  C   UNL     1     -12.243  14.260  66.655  1.00  0.00    -0.411 C  
ENDROOT
BRANCH   2   5
HETATM    5  C   UNL     1     -10.806  12.571  65.482  1.00  0.00    -0.278 C  
HETATM    6  O   UNL     1     -11.233  11.598  64.867  1.00  0.00    -0.290 OA 
BRANCH   5   7
HETATM    7  O   UNL     1      -9.797  12.499  66.395  1.00  0.00    -0.241 OA 
BRANCH   7   8
HETATM    8  C   UNL     1     -10.231  12.217  67.739  1.00  0.00    -0.202 C  
BRANCH   8   9
HETATM    9  O   UNL     1      -9.443  11.233  68.402  1.00  0.00    -0.179 OA 
HETATM   10  P   UNL     1      -8.098  10.776  67.609  1.00  0.00    -0.117 P  
HETATM   11  C   UNL     1      -7.082  12.270  67.515  1.00  0.00    -0.142 C  
HETATM   12  O   UNL     1      -8.367  10.095  66.306  1.00  0.00    -0.125 OA 
HETATM   13  O   UNL     1      -7.217   9.945  68.669  1.00  0.00    -0.070 OA 
BRANCH  13  14
HETATM   14  C   UNL     1      -7.498   8.626  69.040  1.00  0.00    -0.089 C  
BRANCH  14  15
HETATM   15  O   UNL     1      -8.926   8.472  69.219  1.00  0.00    -0.144 OA 
BRANCH  15  16
HETATM   16  C   UNL     1      -9.324   7.344  69.872  1.00  0.00    -0.154 C  
HETATM   17  O   UNL     1      -9.073   6.207  69.489  1.00  0.00    -0.137 OA 
BRANCH  16  18
HETATM   18  C   UNL     1     -10.138   7.658  71.146  1.00  0.00    -0.196 C  
HETATM   19  C   UNL     1     -10.474   9.163  71.185  1.00  0.00    -0.385 C  
HETATM   20  C   UNL     1      -9.322   7.315  72.398  1.00  0.00    -0.166 C  
HETATM   21  C   UNL     1     -11.460   6.877  71.156  1.00  0.00    -0.347 C  
ENDBRANCH  16  18
ENDBRANCH  15  16
ENDBRANCH  14  15
ENDBRANCH  13  14
BRANCH  11  22
HETATM   22  O   UNL     1      -6.907  12.665  68.878  1.00  0.00    -0.093 OA 
BRANCH  22  23
HETATM   23  C   UNL     1      -7.403  13.960  69.146  1.00  0.00    -0.004 C  
BRANCH  23  24
HETATM   24  C   UNL     1      -6.885  14.907  68.072  1.00  0.00    -0.137 C  
BRANCH  24  25
HETATM   25  N   UNL     1      -7.847  15.947  67.820  1.00  0.00    -0.133 NA 
HETATM   26  C   UNL     1      -7.634  17.028  67.018  1.00  0.00    -0.189 A  
HETATM   27  N   UNL     1      -6.601  17.243  66.187  1.00  0.00    -0.209 NA 
HETATM   28  H2  UNL     1      -9.616  20.295  67.914  1.00  0.00     0.000 HD 
HETATM   29  H1  UNL     1      -9.570  21.040  66.449  1.00  0.00     0.000 HD 
HETATM   30  C   UNL     1      -9.018  16.147  68.500  1.00  0.00    -0.204 A  
HETATM   31  N   UNL     1      -9.551  17.315  68.213  1.00  0.00    -0.277 NA 
HETATM   32  C   UNL     1      -8.677  17.888  67.305  1.00  0.00    -0.239 A  
HETATM   33  C   UNL     1      -8.648  19.141  66.675  1.00  0.00    -0.319 A  
HETATM   34  N   UNL     1      -9.592  20.129  66.908  1.00  0.00    -0.405 NA 
HETATM   35  N   UNL     1      -7.647  19.398  65.798  1.00  0.00    -0.431 NA 
HETATM   36  C   UNL     1      -6.699  18.453  65.606  1.00  0.00    -0.269 A  
ENDBRANCH  24  25
ENDBRANCH  23  24
ENDBRANCH  22  23
ENDBRANCH  11  22
ENDBRANCH   8   9
ENDBRANCH   7   8
ENDBRANCH   5   7
ENDBRANCH   2   5
TORSDOF 12
ENDMDL
MODEL      236
REMARK 921   NORMALIZED FREE ENERGY PREDICTED BY IDOCK:   -3.88 KCAL/MOL
REMARK 922        TOTAL FREE ENERGY PREDICTED BY IDOCK:   -8.21 KCAL/MOL
REMARK 923 INTER-LIGAND FREE ENERGY PREDICTED BY IDOCK:   -7.02 KCAL/MOL
REMARK 924 INTRA-LIGAND FREE ENERGY PREDICTED BY IDOCK:   -1.18 KCAL/MOL
REMARK 927      BINDING AFFINITY PREDICTED BY RF-SCORE:    0.00 PKD
ROOT
HETATM    1  C   UNL     1      -5.227   4.153  69.502  1.00  0.00    -0.008 C  
HETATM    2  C   UNL     1      -6.338   3.254  70.080  1.00  0.00    -0.028 C  
HETATM    3  C   UNL     1      -7.059   2.561  68.917  1.00  0.00    -0.044 C  
HETATM    4  C   UNL     1      -5.684   2.202  70.988  1.00  0.00    -0.013 C  
ENDROOT
BRANCH   2   5
HETATM    5  C   UNL     1      -7.295   4.124  70.911  1.00  0.00    -0.041 C  
HETATM    6  O   UNL     1      -7.269   4.170  72.137  1.00  0.00    -0.053 OA 
BRANCH   5   7
HETATM    7  O   UNL     1      -8.234   4.757  70.154  1.00  0.00    -0.068 OA 
BRANCH   7   8
HETATM    8  C   UNL     1      -8.558   6.087  70.599  1.00  0.00    -0.134 C  
BRANCH   8   9
HETATM    9  O   UNL     1      -8.811   7.003  69.537  1.00  0.00    -0.134 OA 
HETATM   10  P   UNL     1     -10.334   6.993  68.964  1.00  0.00    -0.213 P  
HETATM   11  C   UNL     1     -11.358   7.526  70.357  1.00  0.00    -0.233 C  
HETATM   12  O   UNL     1     -10.732   5.700  68.328  1.00  0.00    -0.214 OA 
HETATM   13  O   UNL     1     -10.470   8.304  68.041  1.00  0.00    -0.215 OA 
BRANCH  13  14
HETATM   14  C   UNL     1      -9.940   8.397  66.750  1.00  0.00    -0.284 C  
BRANCH  14  15
HETATM   15  O   UNL     1      -8.704   7.646  66.684  1.00  0.00    -0.129 OA 
BRANCH  15  16
HETATM   16  C   UNL     1      -8.027   7.720  65.503  1.00  0.00    -0.121 C  
HETATM   17  O   UNL     1      -8.388   8.399  64.549  1.00  0.00    -0.166 OA 
BRANCH  16  18
HETATM   18  C   UNL     1      -6.757   6.842  65.499  1.00  0.00    -0.051 C  
HETATM   19  C   UNL     1      -6.546   6.247  64.091  1.00  0.00    -0.034 C  
HETATM   20  C   UNL     1      -6.906   5.684  66.493  1.00  0.00    -0.059 C  
HETATM   21  C   UNL     1      -5.516   7.676  65.852  1.00  0.00    -0.029 C  
ENDBRANCH  16  18
ENDBRANCH  15  16
ENDBRANCH  14  15
ENDBRANCH  13  14
BRANCH  11  22
HETATM   22  O   UNL     1     -10.829   8.805  70.717  1.00  0.00    -0.216 OA 
BRANCH  22  23
HETATM   23  C   UNL     1     -11.809   9.686  71.225  1.00  0.00    -0.381 C  
BRANCH  23  24
HETATM   24  C   UNL     1     -11.865  10.914  70.327  1.00  0.00    -0.361 C  
BRANCH  24  25
HETATM   25  N   UNL     1     -12.609  11.965  70.968  1.00  0.00    -0.340 NA 
HETATM   26  C   UNL     1     -12.422  13.297  70.749  1.00  0.00    -0.324 A  
HETATM   27  N   UNL     1     -11.672  13.875  69.796  1.00  0.00    -0.298 NA 
HETATM   28  H2  UNL     1     -13.279  15.704  73.728  1.00  0.00     0.000 HD 
HETATM   29  H1  UNL     1     -13.524  17.092  72.883  1.00  0.00     0.000 HD 
HETATM   30  C   UNL     1     -13.443  11.825  72.044  1.00  0.00    -0.214 A  
HETATM   31  N   UNL     1     -13.772  12.991  72.557  1.00  0.00    -0.630 NA 
HETATM   32  C   UNL     1     -13.116  13.921  71.769  1.00  0.00    -0.377 A  
HETATM   33  C   UNL     1     -13.010  15.318  71.835  1.00  0.00    -0.384 A  
HETATM   34  N   UNL     1     -13.600  16.076  72.835  1.00  0.00    -0.523 NA 
HETATM   35  N   UNL     1     -12.295  15.957  70.878  1.00  0.00    -0.392 NA 
HETATM   36  C   UNL     1     -11.679  15.215  69.930  1.00  0.00    -0.315 A  
ENDBRANCH  24  25
ENDBRANCH  23  24
ENDBRANCH  22  23
ENDBRANCH  11  22
ENDBRANCH   8   9
ENDBRANCH   7   8
ENDBRANCH   5   7
ENDBRANCH   2   5
TORSDOF 12
ENDMDL
MODEL      237
REMARK 921   NORMALIZED FREE ENERGY PREDICTED BY IDOCK:   -3.88 KCAL/MOL
REMARK 922        TOTAL FREE ENERGY PREDICTED BY IDOCK:   -8.20 KCAL/MOL
REMARK 923 INTER-LIGAND FREE ENERGY PREDICTED BY IDOCK:   -7.67 KCAL/MOL
REMARK 924 INTRA-LIGAND FREE ENERGY PREDICTED BY IDOCK:   -0.53 KCAL/MOL
REMARK 927      BINDING AFFINITY PREDICTED BY RF-SCORE:    0.00 PKD
ROOT
HETATM    1  C   UNL     1      -5.610  19.948  68.138  1.00  0.00    -0.233 C  
HETATM    2  C   UNL     1      -6.471  20.160  66.878  1.00  0.00    -0.230 C  
HETATM    3  C   UNL     1      -7.837  20.707  67.308  1.00  0.00    -0.341 C  
HETATM    4  C   UNL     1      -5.762  21.181  65.974  1.00  0.00    -0.293 C  
ENDROOT
BRANCH   2   5
HETATM    5  C   UNL     1      -6.597  18.821  66.135  1.00  0.00    -0.223 C  
HETATM    6  O   UNL     1      -6.725  18.736  64.917  1.00  0.00    -0.508 OA 
BRANCH   5   7
HETATM    7  O   UNL     1      -6.654  17.748  66.974  1.00  0.00    -0.152 OA 
BRANCH   7   8
HETATM    8  C   UNL     1      -5.789  16.658  66.603  1.00  0.00     0.080 C  
BRANCH   8   9
HETATM    9  O   UNL     1      -5.986  15.479  67.379  1.00  0.00    -0.294 OA 
HETATM   10  P   UNL     1      -6.455  15.736  68.916  1.00  0.00    -0.131 P  
HETATM   11  C   UNL     1      -8.071  16.538  68.782  1.00  0.00    -0.244 C  
HETATM   12  O   UNL     1      -5.442  16.457  69.744  1.00  0.00    -0.139 OA 
HETATM   13  O   UNL     1      -6.936  14.305  69.478  1.00  0.00    -0.131 OA 
BRANCH  13  14
HETATM   14  C   UNL     1      -6.053  13.295  69.870  1.00  0.00    -0.125 C  
BRANCH  14  15
HETATM   15  O   UNL     1      -6.503  12.029  69.331  1.00  0.00    -0.103 OA 
BRANCH  15  16
HETATM   16  C   UNL     1      -6.454  10.968  70.186  1.00  0.00    -0.128 C  
HETATM   17  O   UNL     1      -5.912  11.000  71.285  1.00  0.00    -0.354 OA 
BRANCH  16  18
HETATM   18  C   UNL     1      -7.149   9.716  69.610  1.00  0.00    -0.075 C  
HETATM   19  C   UNL     1      -6.637   9.454  68.179  1.00  0.00    -0.059 C  
HETATM   20  C   UNL     1      -8.667   9.932  69.546  1.00  0.00    -0.200 C  
HETATM   21  C   UNL     1      -6.836   8.477  70.460  1.00  0.00    -0.039 C  
ENDBRANCH  16  18
ENDBRANCH  15  16
ENDBRANCH  14  15
ENDBRANCH  13  14
BRANCH  11  22
HETATM   22  O   UNL     1      -8.862  15.618  68.026  1.00  0.00    -0.167 OA 
BRANCH  22  23
HETATM   23  C   UNL     1     -10.251  15.842  68.162  1.00  0.00    -0.230 C  
BRANCH  23  24
HETATM   24  C   UNL     1     -10.955  14.493  68.191  1.00  0.00    -0.251 C  
BRANCH  24  25
HETATM   25  N   UNL     1     -10.520  13.680  67.086  1.00  0.00    -0.263 NA 
HETATM   26  C   UNL     1     -11.180  13.561  65.900  1.00  0.00    -0.300 A  
HETATM   27  N   UNL     1     -12.223  14.286  65.464  1.00  0.00    -0.406 NA 
HETATM   28  H2  UNL     1     -10.728  10.172  63.973  1.00  0.00     0.000 HD 
HETATM   29  H1  UNL     1     -11.107  10.680  62.456  1.00  0.00     0.000 HD 
HETATM   30  C   UNL     1      -9.528  12.738  67.117  1.00  0.00    -0.223 A  
HETATM   31  N   UNL     1      -9.537  11.990  66.034  1.00  0.00    -0.235 NA 
HETATM   32  C   UNL     1     -10.587  12.480  65.275  1.00  0.00    -0.290 A  
HETATM   33  C   UNL     1     -11.148  12.075  64.056  1.00  0.00    -0.386 A  
HETATM   34  N   UNL     1     -10.699  10.974  63.343  1.00  0.00    -0.233 NA 
HETATM   35  N   UNL     1     -12.180  12.793  63.551  1.00  0.00    -0.626 NA 
HETATM   36  C   UNL     1     -12.650  13.838  64.268  1.00  0.00    -0.135 A  
ENDBRANCH  24  25
ENDBRANCH  23  24
ENDBRANCH  22  23
ENDBRANCH  11  22
ENDBRANCH   8   9
ENDBRANCH   7   8
ENDBRANCH   5   7
ENDBRANCH   2   5
TORSDOF 12
ENDMDL
MODEL      238
REMARK 921   NORMALIZED FREE ENERGY PREDICTED BY IDOCK:   -3.88 KCAL/MOL
REMARK 922        TOTAL FREE ENERGY PREDICTED BY IDOCK:   -8.19 KCAL/MOL
REMARK 923 INTER-LIGAND FREE ENERGY PREDICTED BY IDOCK:   -7.16 KCAL/MOL
REMARK 924 INTRA-LIGAND FREE ENERGY PREDICTED BY IDOCK:   -1.04 KCAL/MOL
REMARK 927      BINDING AFFINITY PREDICTED BY RF-SCORE:    0.00 PKD
ROOT
HETATM    1  C   UNL     1     -11.387   7.055  70.570  1.00  0.00    -0.355 C  
HETATM    2  C   UNL     1     -11.226   8.052  71.734  1.00  0.00    -0.317 C  
HETATM    3  C   UNL     1     -12.578   8.728  71.988  1.00  0.00    -0.447 C  
HETATM    4  C   UNL     1     -10.793   7.269  72.984  1.00  0.00    -0.399 C  
ENDROOT
BRANCH   2   5
HETATM    5  C   UNL     1     -10.135   9.070  71.366  1.00  0.00    -0.329 C  
HETATM    6  O   UNL     1      -8.995   9.029  71.819  1.00  0.00    -0.343 OA 
BRANCH   5   7
HETATM    7  O   UNL     1     -10.592  10.075  70.568  1.00  0.00    -0.292 OA 
BRANCH   7   8
HETATM    8  C   UNL     1     -10.206   9.958  69.185  1.00  0.00    -0.205 C  
BRANCH   8   9
HETATM    9  O   UNL     1     -10.915  10.835  68.315  1.00  0.00    -0.215 OA 
HETATM   10  P   UNL     1      -9.982  11.839  67.436  1.00  0.00    -0.187 P  
HETATM   11  C   UNL     1      -8.996  10.751  66.379  1.00  0.00    -0.166 C  
HETATM   12  O   UNL     1      -9.207  12.817  68.259  1.00  0.00    -0.204 OA 
HETATM   13  O   UNL     1     -10.945  12.470  66.311  1.00  0.00    -0.262 OA 
BRANCH  13  14
HETATM   14  C   UNL     1     -11.870  13.486  66.570  1.00  0.00    -0.399 C  
BRANCH  14  15
HETATM   15  O   UNL     1     -11.236  14.773  66.378  1.00  0.00    -0.336 OA 
BRANCH  15  16
HETATM   16  C   UNL     1     -10.978  15.483  67.512  1.00  0.00    -0.316 C  
HETATM   17  O   UNL     1     -11.559  15.306  68.577  1.00  0.00    -0.328 OA 
BRANCH  16  18
HETATM   18  C   UNL     1      -9.878  16.546  67.303  1.00  0.00    -0.254 C  
HETATM   19  C   UNL     1      -9.619  16.731  65.794  1.00  0.00    -0.114 C  
HETATM   20  C   UNL     1      -8.569  16.094  67.963  1.00  0.00    -0.171 C  
HETATM   21  C   UNL     1     -10.311  17.901  67.880  1.00  0.00    -0.396 C  
ENDBRANCH  16  18
ENDBRANCH  15  16
ENDBRANCH  14  15
ENDBRANCH  13  14
BRANCH  11  22
HETATM   22  O   UNL     1      -9.964   9.992  65.651  1.00  0.00    -0.272 OA 
BRANCH  22  23
HETATM   23  C   UNL     1      -9.826   8.598  65.837  1.00  0.00    -0.003 C  
BRANCH  23  24
HETATM   24  C   UNL     1      -8.646   8.350  66.766  1.00  0.00    -0.118 C  
BRANCH  24  25
HETATM   25  N   UNL     1      -8.087   7.047  66.523  1.00  0.00    -0.108 NA 
HETATM   26  C   UNL     1      -8.024   6.043  67.441  1.00  0.00    -0.102 A  
HETATM   27  N   UNL     1      -8.611   5.996  68.649  1.00  0.00    -0.112 NA 
HETATM   28  H2  UNL     1      -5.075   3.484  67.045  1.00  0.00     0.000 HD 
HETATM   29  H1  UNL     1      -5.718   2.212  67.864  1.00  0.00     0.000 HD 
HETATM   30  C   UNL     1      -7.338   6.678  65.438  1.00  0.00    -0.076 A  
HETATM   31  N   UNL     1      -6.761   5.509  65.623  1.00  0.00    -0.044 NA 
HETATM   32  C   UNL     1      -7.163   5.114  66.887  1.00  0.00    -0.077 A  
HETATM   33  C   UNL     1      -6.844   4.003  67.682  1.00  0.00    -0.051 A  
HETATM   34  N   UNL     1      -5.950   3.020  67.286  1.00  0.00    -0.023 NA 
HETATM   35  N   UNL     1      -7.435   3.887  68.896  1.00  0.00    -0.054 NA 
HETATM   36  C   UNL     1      -8.269   4.870  69.303  1.00  0.00    -0.081 A  
ENDBRANCH  24  25
ENDBRANCH  23  24
ENDBRANCH  22  23
ENDBRANCH  11  22
ENDBRANCH   8   9
ENDBRANCH   7   8
ENDBRANCH   5   7
ENDBRANCH   2   5
TORSDOF 12
ENDMDL
MODEL      239
REMARK 921   NORMALIZED FREE ENERGY PREDICTED BY IDOCK:   -3.87 KCAL/MOL
REMARK 922        TOTAL FREE ENERGY PREDICTED BY IDOCK:   -8.17 KCAL/MOL
REMARK 923 INTER-LIGAND FREE ENERGY PREDICTED BY IDOCK:   -6.40 KCAL/MOL
REMARK 924 INTRA-LIGAND FREE ENERGY PREDICTED BY IDOCK:   -1.78 KCAL/MOL
REMARK 927      BINDING AFFINITY PREDICTED BY RF-SCORE:    0.00 PKD
ROOT
HETATM    1  C   UNL     1     -10.306  14.938  67.061  1.00  0.00    -0.264 C  
HETATM    2  C   UNL     1     -11.257  13.881  67.656  1.00  0.00    -0.316 C  
HETATM    3  C   UNL     1     -12.187  14.573  68.660  1.00  0.00    -0.158 C  
HETATM    4  C   UNL     1     -12.085  13.277  66.511  1.00  0.00    -0.435 C  
ENDROOT
BRANCH   2   5
HETATM    5  C   UNL     1     -10.417  12.777  68.317  1.00  0.00    -0.241 C  
HETATM    6  O   UNL     1      -9.396  12.316  67.816  1.00  0.00    -0.181 OA 
BRANCH   5   7
HETATM    7  O   UNL     1     -10.977  12.296  69.463  1.00  0.00    -0.103 OA 
BRANCH   7   8
HETATM    8  C   UNL     1     -11.205  10.874  69.460  1.00  0.00    -0.277 C  
BRANCH   8   9
HETATM    9  O   UNL     1     -10.481  10.174  70.468  1.00  0.00    -0.261 OA 
HETATM   10  P   UNL     1     -10.968   8.643  70.731  1.00  0.00    -0.261 P  
HETATM   11  C   UNL     1     -10.647   7.779  69.175  1.00  0.00    -0.183 C  
HETATM   12  O   UNL     1     -12.364   8.535  71.254  1.00  0.00    -0.307 OA 
HETATM   13  O   UNL     1      -9.822   7.961  71.633  1.00  0.00    -0.160 OA 
BRANCH  13  14
HETATM   14  C   UNL     1      -9.678   8.197  73.004  1.00  0.00    -0.257 C  
BRANCH  14  15
HETATM   15  O   UNL     1      -9.821   6.948  73.722  1.00  0.00    -0.219 OA 
BRANCH  15  16
HETATM   16  C   UNL     1      -9.058   5.912  73.270  1.00  0.00    -0.133 C  
HETATM   17  O   UNL     1      -7.834   5.942  73.202  1.00  0.00    -0.102 OA 
BRANCH  16  18
HETATM   18  C   UNL     1      -9.911   4.699  72.842  1.00  0.00    -0.180 C  
HETATM   19  C   UNL     1      -9.464   3.450  73.630  1.00  0.00    -0.126 C  
HETATM   20  C   UNL     1      -9.722   4.416  71.346  1.00  0.00    -0.248 C  
HETATM   21  C   UNL     1     -11.397   4.942  73.141  1.00  0.00    -0.395 C  
ENDBRANCH  16  18
ENDBRANCH  15  16
ENDBRANCH  14  15
ENDBRANCH  13  14
BRANCH  11  22
HETATM   22  O   UNL     1      -9.248   7.966  68.947  1.00  0.00    -0.144 OA 
BRANCH  22  23
HETATM   23  C   UNL     1      -8.950   8.352  67.622  1.00  0.00    -0.135 C  
BRANCH  23  24
HETATM   24  C   UNL     1      -9.844   7.561  66.677  1.00  0.00    -0.204 C  
BRANCH  24  25
HETATM   25  N   UNL     1      -9.097   6.496  66.061  1.00  0.00    -0.127 NA 
HETATM   26  C   UNL     1      -9.043   5.215  66.522  1.00  0.00    -0.127 A  
HETATM   27  N   UNL     1      -9.787   4.659  67.492  1.00  0.00    -0.169 NA 
HETATM   28  H2  UNL     1      -5.770   3.201  65.725  1.00  0.00     0.000 HD 
HETATM   29  H1  UNL     1      -6.361   1.673  65.865  1.00  0.00     0.000 HD 
HETATM   30  C   UNL     1      -8.158   6.633  65.075  1.00  0.00    -0.124 A  
HETATM   31  N   UNL     1      -7.473   5.522  64.901  1.00  0.00    -0.071 NA 
HETATM   32  C   UNL     1      -8.001   4.635  65.823  1.00  0.00    -0.099 A  
HETATM   33  C   UNL     1      -7.664   3.321  66.178  1.00  0.00    -0.078 A  
HETATM   34  N   UNL     1      -6.606   2.629  65.607  1.00  0.00    -0.031 NA 
HETATM   35  N   UNL     1      -8.405   2.698  67.126  1.00  0.00    -0.088 NA 
HETATM   36  C   UNL     1      -9.406   3.388  67.718  1.00  0.00    -0.194 A  
ENDBRANCH  24  25
ENDBRANCH  23  24
ENDBRANCH  22  23
ENDBRANCH  11  22
ENDBRANCH   8   9
ENDBRANCH   7   8
ENDBRANCH   5   7
ENDBRANCH   2   5
TORSDOF 12
ENDMDL
MODEL      240
REMARK 921   NORMALIZED FREE ENERGY PREDICTED BY IDOCK:   -3.86 KCAL/MOL
REMARK 922        TOTAL FREE ENERGY PREDICTED BY IDOCK:   -8.16 KCAL/MOL
REMARK 923 INTER-LIGAND FREE ENERGY PREDICTED BY IDOCK:   -7.25 KCAL/MOL
REMARK 924 INTRA-LIGAND FREE ENERGY PREDICTED BY IDOCK:   -0.92 KCAL/MOL
REMARK 927      BINDING AFFINITY PREDICTED BY RF-SCORE:    0.00 PKD
ROOT
HETATM    1  C   UNL     1      -9.860  14.927  66.277  1.00  0.00    -0.315 C  
HETATM    2  C   UNL     1     -11.032  14.216  65.571  1.00  0.00    -0.310 C  
HETATM    3  C   UNL     1     -12.135  13.955  66.603  1.00  0.00    -0.485 C  
HETATM    4  C   UNL     1     -11.562  15.141  64.464  1.00  0.00    -0.330 C  
ENDROOT
BRANCH   2   5
HETATM    5  C   UNL     1     -10.513  12.913  64.943  1.00  0.00    -0.331 C  
HETATM    6  O   UNL     1     -10.453  12.727  63.731  1.00  0.00    -0.408 OA 
BRANCH   5   7
HETATM    7  O   UNL     1     -10.224  11.954  65.867  1.00  0.00    -0.222 OA 
BRANCH   7   8
HETATM    8  C   UNL     1      -9.658  10.750  65.316  1.00  0.00    -0.229 C  
BRANCH   8   9
HETATM    9  O   UNL     1     -10.235   9.555  65.834  1.00  0.00    -0.266 OA 
HETATM   10  P   UNL     1      -9.244   8.656  66.761  1.00  0.00    -0.197 P  
HETATM   11  C   UNL     1      -8.863   9.702  68.186  1.00  0.00    -0.119 C  
HETATM   12  O   UNL     1      -8.062   8.108  66.027  1.00  0.00    -0.101 OA 
HETATM   13  O   UNL     1     -10.183   7.573  67.494  1.00  0.00    -0.183 OA 
BRANCH  13  14
HETATM   14  C   UNL     1     -10.690   6.435  66.858  1.00  0.00    -0.338 C  
BRANCH  14  15
HETATM   15  O   UNL     1      -9.919   5.277  67.258  1.00  0.00    -0.149 OA 
BRANCH  15  16
HETATM   16  C   UNL     1      -9.143   4.716  66.288  1.00  0.00    -0.122 C  
HETATM   17  O   UNL     1      -8.941   5.228  65.193  1.00  0.00    -0.158 OA 
BRANCH  16  18
HETATM   18  C   UNL     1      -8.555   3.356  66.720  1.00  0.00    -0.116 C  
HETATM   19  C   UNL     1      -8.811   2.309  65.617  1.00  0.00    -0.124 C  
HETATM   20  C   UNL     1      -9.227   2.870  68.010  1.00  0.00    -0.248 C  
HETATM   21  C   UNL     1      -7.037   3.460  66.932  1.00  0.00    -0.058 C  
ENDBRANCH  16  18
ENDBRANCH  15  16
ENDBRANCH  14  15
ENDBRANCH  13  14
BRANCH  11  22
HETATM   22  O   UNL     1     -10.140  10.015  68.748  1.00  0.00    -0.170 OA 
BRANCH  22  23
HETATM   23  C   UNL     1     -10.271   9.595  70.090  1.00  0.00    -0.264 C  
BRANCH  23  24
HETATM   24  C   UNL     1     -11.553   8.784  70.217  1.00  0.00    -0.016 C  
BRANCH  24  25
HETATM   25  N   UNL     1     -11.351   7.670  71.106  1.00  0.00    -0.262 NA 
HETATM   26  C   UNL     1     -10.256   6.859  71.102  1.00  0.00    -0.195 A  
HETATM   27  N   UNL     1      -9.107   7.034  70.428  1.00  0.00    -0.156 NA 
HETATM   28  H2  UNL     1     -10.801   3.167  72.315  1.00  0.00     0.000 HD 
HETATM   29  H1  UNL     1      -9.256   2.798  72.738  1.00  0.00     0.000 HD 
HETATM   30  C   UNL     1     -12.293   7.107  71.924  1.00  0.00    -0.317 A  
HETATM   31  N   UNL     1     -11.882   5.958  72.417  1.00  0.00    -0.278 NA 
HETATM   32  C   UNL     1     -10.616   5.779  71.886  1.00  0.00    -0.232 A  
HETATM   33  C   UNL     1      -9.688   4.732  71.974  1.00  0.00    -0.162 A  
HETATM   34  N   UNL     1      -9.932   3.560  72.674  1.00  0.00    -0.152 NA 
HETATM   35  N   UNL     1      -8.497   4.870  71.342  1.00  0.00    -0.115 NA 
HETATM   36  C   UNL     1      -8.277   5.991  70.620  1.00  0.00    -0.120 A  
ENDBRANCH  24  25
ENDBRANCH  23  24
ENDBRANCH  22  23
ENDBRANCH  11  22
ENDBRANCH   8   9
ENDBRANCH   7   8
ENDBRANCH   5   7
ENDBRANCH   2   5
TORSDOF 12
ENDMDL
MODEL      241
REMARK 921   NORMALIZED FREE ENERGY PREDICTED BY IDOCK:   -3.85 KCAL/MOL
REMARK 922        TOTAL FREE ENERGY PREDICTED BY IDOCK:   -8.15 KCAL/MOL
REMARK 923 INTER-LIGAND FREE ENERGY PREDICTED BY IDOCK:   -6.88 KCAL/MOL
REMARK 924 INTRA-LIGAND FREE ENERGY PREDICTED BY IDOCK:   -1.27 KCAL/MOL
REMARK 927      BINDING AFFINITY PREDICTED BY RF-SCORE:    0.00 PKD
ROOT
HETATM    1  C   UNL     1      -6.148  10.857  65.902  1.00  0.00    -0.103 C  
HETATM    2  C   UNL     1      -6.688  11.180  67.309  1.00  0.00    -0.091 C  
HETATM    3  C   UNL     1      -5.519  11.652  68.183  1.00  0.00    -0.043 C  
HETATM    4  C   UNL     1      -7.730  12.302  67.182  1.00  0.00    -0.134 C  
ENDROOT
BRANCH   2   5
HETATM    5  C   UNL     1      -7.359   9.921  67.881  1.00  0.00    -0.088 C  
HETATM    6  O   UNL     1      -8.221   9.286  67.281  1.00  0.00    -0.118 OA 
BRANCH   5   7
HETATM    7  O   UNL     1      -6.973   9.644  69.159  1.00  0.00    -0.049 OA 
BRANCH   7   8
HETATM    8  C   UNL     1      -8.027   9.752  70.134  1.00  0.00    -0.186 C  
BRANCH   8   9
HETATM    9  O   UNL     1      -8.813   8.571  70.262  1.00  0.00    -0.138 OA 
HETATM   10  P   UNL     1      -9.998   8.648  71.377  1.00  0.00    -0.310 P  
HETATM   11  C   UNL     1     -11.111   9.944  70.784  1.00  0.00    -0.347 C  
HETATM   12  O   UNL     1      -9.500   8.814  72.776  1.00  0.00    -0.236 OA 
HETATM   13  O   UNL     1     -10.941   7.371  71.110  1.00  0.00    -0.241 OA 
BRANCH  13  14
HETATM   14  C   UNL     1     -10.605   6.069  71.495  1.00  0.00    -0.243 C  
BRANCH  14  15
HETATM   15  O   UNL     1     -10.878   5.160  70.402  1.00  0.00    -0.160 OA 
BRANCH  15  16
HETATM   16  C   UNL     1     -10.122   5.336  69.281  1.00  0.00    -0.230 C  
HETATM   17  O   UNL     1     -10.320   6.219  68.454  1.00  0.00    -0.161 OA 
BRANCH  16  18
HETATM   18  C   UNL     1      -8.993   4.290  69.164  1.00  0.00    -0.157 C  
HETATM   19  C   UNL     1      -8.912   3.470  70.468  1.00  0.00    -0.160 C  
HETATM   20  C   UNL     1      -7.643   4.986  68.948  1.00  0.00    -0.073 C  
HETATM   21  C   UNL     1      -9.267   3.318  68.007  1.00  0.00    -0.243 C  
ENDBRANCH  16  18
ENDBRANCH  15  16
ENDBRANCH  14  15
ENDBRANCH  13  14
BRANCH  11  22
HETATM   22  O   UNL     1     -11.500   9.508  69.479  1.00  0.00    -0.069 OA 
BRANCH  22  23
HETATM   23  C   UNL     1     -11.609  10.568  68.551  1.00  0.00    -0.148 C  
BRANCH  23  24
HETATM   24  C   UNL     1     -12.136  11.795  69.282  1.00  0.00    -0.229 C  
BRANCH  24  25
HETATM   25  N   UNL     1     -11.596  12.993  68.695  1.00  0.00    -0.296 NA 
HETATM   26  C   UNL     1     -11.389  14.163  69.362  1.00  0.00    -0.272 A  
HETATM   27  N   UNL     1     -11.466  14.378  70.686  1.00  0.00    -0.182 NA 
HETATM   28  H2  UNL     1     -11.596  17.456  67.237  1.00  0.00     0.000 HD 
HETATM   29  H1  UNL     1     -10.712  18.449  68.203  1.00  0.00     0.000 HD 
HETATM   30  C   UNL     1     -11.419  13.230  67.358  1.00  0.00    -0.332 A  
HETATM   31  N   UNL     1     -11.151  14.496  67.122  1.00  0.00    -0.311 NA 
HETATM   32  C   UNL     1     -11.156  15.097  68.370  1.00  0.00    -0.282 A  
HETATM   33  C   UNL     1     -11.004  16.427  68.784  1.00  0.00    -0.344 A  
HETATM   34  N   UNL     1     -10.823  17.481  67.901  1.00  0.00    -0.331 NA 
HETATM   35  N   UNL     1     -11.037  16.697  70.112  1.00  0.00    -0.212 NA 
HETATM   36  C   UNL     1     -11.261  15.678  70.972  1.00  0.00    -0.364 A  
ENDBRANCH  24  25
ENDBRANCH  23  24
ENDBRANCH  22  23
ENDBRANCH  11  22
ENDBRANCH   8   9
ENDBRANCH   7   8
ENDBRANCH   5   7
ENDBRANCH   2   5
TORSDOF 12
ENDMDL
MODEL      242
REMARK 921   NORMALIZED FREE ENERGY PREDICTED BY IDOCK:   -3.85 KCAL/MOL
REMARK 922        TOTAL FREE ENERGY PREDICTED BY IDOCK:   -8.15 KCAL/MOL
REMARK 923 INTER-LIGAND FREE ENERGY PREDICTED BY IDOCK:   -6.38 KCAL/MOL
REMARK 924 INTRA-LIGAND FREE ENERGY PREDICTED BY IDOCK:   -1.77 KCAL/MOL
REMARK 927      BINDING AFFINITY PREDICTED BY RF-SCORE:    0.00 PKD
ROOT
HETATM    1  C   UNL     1      -8.704   9.254  64.054  1.00  0.00    -0.198 C  
HETATM    2  C   UNL     1      -9.074   9.877  65.414  1.00  0.00    -0.241 C  
HETATM    3  C   UNL     1      -7.876  10.689  65.921  1.00  0.00    -0.150 C  
HETATM    4  C   UNL     1     -10.282  10.805  65.208  1.00  0.00    -0.351 C  
ENDROOT
BRANCH   2   5
HETATM    5  C   UNL     1      -9.457   8.750  66.387  1.00  0.00    -0.228 C  
HETATM    6  O   UNL     1     -10.617   8.418  66.609  1.00  0.00    -0.262 OA 
BRANCH   5   7
HETATM    7  O   UNL     1      -8.384   8.229  67.048  1.00  0.00    -0.119 OA 
BRANCH   7   8
HETATM    8  C   UNL     1      -8.143   6.835  66.782  1.00  0.00    -0.109 C  
BRANCH   8   9
HETATM    9  O   UNL     1      -8.639   5.963  67.794  1.00  0.00    -0.107 OA 
HETATM   10  P   UNL     1      -7.514   5.039  68.521  1.00  0.00    -0.075 P  
HETATM   11  C   UNL     1      -6.412   6.211  69.347  1.00  0.00    -0.043 C  
HETATM   12  O   UNL     1      -6.850   4.063  67.604  1.00  0.00    -0.049 OA 
HETATM   13  O   UNL     1      -8.227   4.411  69.821  1.00  0.00    -0.062 OA 
BRANCH  13  14
HETATM   14  C   UNL     1      -9.130   3.345  69.767  1.00  0.00    -0.129 C  
BRANCH  14  15
HETATM   15  O   UNL     1      -9.964   3.362  70.949  1.00  0.00    -0.115 OA 
BRANCH  15  16
HETATM   16  C   UNL     1      -9.506   2.638  72.009  1.00  0.00    -0.120 C  
HETATM   17  O   UNL     1      -8.982   1.534  71.909  1.00  0.00    -0.064 OA 
BRANCH  16  18
HETATM   18  C   UNL     1      -9.730   3.360  73.355  1.00  0.00    -0.153 C  
HETATM   19  C   UNL     1     -10.451   2.412  74.336  1.00  0.00    -0.198 C  
HETATM   20  C   UNL     1     -10.608   4.601  73.154  1.00  0.00    -0.283 C  
HETATM   21  C   UNL     1      -8.391   3.767  73.987  1.00  0.00    -0.090 C  
ENDBRANCH  16  18
ENDBRANCH  15  16
ENDBRANCH  14  15
ENDBRANCH  13  14
BRANCH  11  22
HETATM   22  O   UNL     1      -7.271   6.956  70.213  1.00  0.00    -0.072 OA 
BRANCH  22  23
HETATM   23  C   UNL     1      -7.166   8.352  70.029  1.00  0.00    -0.054 C  
BRANCH  23  24
HETATM   24  C   UNL     1      -7.595   9.042  71.316  1.00  0.00    -0.070 C  
BRANCH  24  25
HETATM   25  N   UNL     1      -9.004   8.849  71.538  1.00  0.00    -0.282 NA 
HETATM   26  C   UNL     1      -9.995   9.460  70.830  1.00  0.00    -0.289 A  
HETATM   27  N   UNL     1      -9.872  10.190  69.709  1.00  0.00    -0.230 NA 
HETATM   28  H2  UNL     1     -13.386  10.057  72.712  1.00  0.00     0.000 HD 
HETATM   29  H1  UNL     1     -14.388  10.184  71.415  1.00  0.00     0.000 HD 
HETATM   30  C   UNL     1      -9.575   8.221  72.612  1.00  0.00    -0.282 A  
HETATM   31  N   UNL     1     -10.874   8.427  72.659  1.00  0.00    -0.310 NA 
HETATM   32  C   UNL     1     -11.144   9.226  71.561  1.00  0.00    -0.373 A  
HETATM   33  C   UNL     1     -12.318   9.836  71.095  1.00  0.00    -0.359 A  
HETATM   34  N   UNL     1     -13.534   9.741  71.754  1.00  0.00    -0.391 NA 
HETATM   35  N   UNL     1     -12.260  10.555  69.948  1.00  0.00    -0.257 NA 
HETATM   36  C   UNL     1     -11.065  10.689  69.331  1.00  0.00    -0.260 A  
ENDBRANCH  24  25
ENDBRANCH  23  24
ENDBRANCH  22  23
ENDBRANCH  11  22
ENDBRANCH   8   9
ENDBRANCH   7   8
ENDBRANCH   5   7
ENDBRANCH   2   5
TORSDOF 12
ENDMDL
MODEL      243
REMARK 921   NORMALIZED FREE ENERGY PREDICTED BY IDOCK:   -3.82 KCAL/MOL
REMARK 922        TOTAL FREE ENERGY PREDICTED BY IDOCK:   -8.09 KCAL/MOL
REMARK 923 INTER-LIGAND FREE ENERGY PREDICTED BY IDOCK:   -6.62 KCAL/MOL
REMARK 924 INTRA-LIGAND FREE ENERGY PREDICTED BY IDOCK:   -1.47 KCAL/MOL
REMARK 927      BINDING AFFINITY PREDICTED BY RF-SCORE:    0.00 PKD
ROOT
HETATM    1  C   UNL     1     -11.013  16.561  67.901  1.00  0.00    -0.288 C  
HETATM    2  C   UNL     1      -9.935  16.285  66.835  1.00  0.00    -0.263 C  
HETATM    3  C   UNL     1     -10.615  16.212  65.463  1.00  0.00    -0.394 C  
HETATM    4  C   UNL     1      -8.927  17.445  66.856  1.00  0.00    -0.260 C  
ENDROOT
BRANCH   2   5
HETATM    5  C   UNL     1      -9.214  14.975  67.189  1.00  0.00    -0.216 C  
HETATM    6  O   UNL     1      -8.132  14.938  67.767  1.00  0.00    -0.133 OA 
BRANCH   5   7
HETATM    7  O   UNL     1      -9.848  13.870  66.706  1.00  0.00    -0.258 OA 
BRANCH   7   8
HETATM    8  C   UNL     1      -9.030  12.685  66.669  1.00  0.00    -0.164 C  
BRANCH   8   9
HETATM    9  O   UNL     1      -9.340  11.741  67.689  1.00  0.00    -0.173 OA 
HETATM   10  P   UNL     1     -10.555  10.716  67.336  1.00  0.00    -0.284 P  
HETATM   11  C   UNL     1      -9.961   9.763  65.917  1.00  0.00    -0.275 C  
HETATM   12  O   UNL     1     -11.878  11.387  67.155  1.00  0.00    -0.566 OA 
HETATM   13  O   UNL     1     -10.498   9.558  68.452  1.00  0.00    -0.208 OA 
BRANCH  13  14
HETATM   14  C   UNL     1     -10.962   9.724  69.761  1.00  0.00    -0.256 C  
BRANCH  14  15
HETATM   15  O   UNL     1      -9.870   9.515  70.688  1.00  0.00    -0.263 OA 
BRANCH  15  16
HETATM   16  C   UNL     1     -10.138   8.698  71.745  1.00  0.00    -0.310 C  
HETATM   17  O   UNL     1     -11.217   8.661  72.326  1.00  0.00    -0.353 OA 
BRANCH  16  18
HETATM   18  C   UNL     1      -8.924   7.829  72.138  1.00  0.00    -0.182 C  
HETATM   19  C   UNL     1      -7.800   8.012  71.097  1.00  0.00    -0.089 C  
HETATM   20  C   UNL     1      -9.316   6.346  72.166  1.00  0.00    -0.149 C  
HETATM   21  C   UNL     1      -8.373   8.247  73.509  1.00  0.00    -0.259 C  
ENDBRANCH  16  18
ENDBRANCH  15  16
ENDBRANCH  14  15
ENDBRANCH  13  14
BRANCH  11  22
HETATM   22  O   UNL     1      -8.745   9.166  66.375  1.00  0.00    -0.124 OA 
BRANCH  22  23
HETATM   23  C   UNL     1      -8.796   7.754  66.395  1.00  0.00    -0.155 C  
BRANCH  23  24
HETATM   24  C   UNL     1      -7.832   7.253  67.461  1.00  0.00    -0.112 C  
BRANCH  24  25
HETATM   25  N   UNL     1      -8.473   6.263  68.286  1.00  0.00    -0.115 NA 
HETATM   26  C   UNL     1      -7.850   5.183  68.834  1.00  0.00    -0.082 A  
HETATM   27  N   UNL     1      -6.532   4.928  68.874  1.00  0.00    -0.035 NA 
HETATM   28  H2  UNL     1     -10.068   2.005  69.455  1.00  0.00     0.000 HD 
HETATM   29  H1  UNL     1      -9.163   1.276  70.618  1.00  0.00     0.000 HD 
HETATM   30  C   UNL     1      -9.822   6.112  68.466  1.00  0.00    -0.137 A  
HETATM   31  N   UNL     1     -10.106   4.974  69.063  1.00  0.00    -0.188 NA 
HETATM   32  C   UNL     1      -8.878   4.371  69.274  1.00  0.00    -0.091 A  
HETATM   33  C   UNL     1      -8.510   3.126  69.805  1.00  0.00    -0.057 A  
HETATM   34  N   UNL     1      -9.431   2.182  70.232  1.00  0.00    -0.106 NA 
HETATM   35  N   UNL     1      -7.191   2.831  69.902  1.00  0.00    -0.040 NA 
HETATM   36  C   UNL     1      -6.293   3.731  69.441  1.00  0.00    -0.029 A  
ENDBRANCH  24  25
ENDBRANCH  23  24
ENDBRANCH  22  23
ENDBRANCH  11  22
ENDBRANCH   8   9
ENDBRANCH   7   8
ENDBRANCH   5   7
ENDBRANCH   2   5
TORSDOF 12
ENDMDL
MODEL      244
REMARK 921   NORMALIZED FREE ENERGY PREDICTED BY IDOCK:   -3.81 KCAL/MOL
REMARK 922        TOTAL FREE ENERGY PREDICTED BY IDOCK:   -8.08 KCAL/MOL
REMARK 923 INTER-LIGAND FREE ENERGY PREDICTED BY IDOCK:   -7.71 KCAL/MOL
REMARK 924 INTRA-LIGAND FREE ENERGY PREDICTED BY IDOCK:   -0.37 KCAL/MOL
REMARK 927      BINDING AFFINITY PREDICTED BY RF-SCORE:    0.00 PKD
ROOT
HETATM    1  C   UNL     1     -11.944  13.191  63.419  1.00  0.00    -0.552 C  
HETATM    2  C   UNL     1     -11.570  13.616  64.853  1.00  0.00    -0.360 C  
HETATM    3  C   UNL     1     -10.653  14.842  64.773  1.00  0.00    -0.355 C  
HETATM    4  C   UNL     1     -12.861  13.979  65.602  1.00  0.00    -0.442 C  
ENDROOT
BRANCH   2   5
HETATM    5  C   UNL     1     -10.886  12.433  65.556  1.00  0.00    -0.281 C  
HETATM    6  O   UNL     1     -11.274  11.273  65.453  1.00  0.00    -0.143 OA 
BRANCH   5   7
HETATM    7  O   UNL     1      -9.872  12.817  66.382  1.00  0.00    -0.257 OA 
BRANCH   7   8
HETATM    8  C   UNL     1     -10.285  13.118  67.728  1.00  0.00    -0.231 C  
BRANCH   8   9
HETATM    9  O   UNL     1      -9.680  12.286  68.714  1.00  0.00    -0.112 OA 
HETATM   10  P   UNL     1      -8.336  11.506  68.228  1.00  0.00    -0.156 P  
HETATM   11  C   UNL     1      -7.145  12.816  67.859  1.00  0.00    -0.118 C  
HETATM   12  O   UNL     1      -8.574  10.521  67.129  1.00  0.00    -0.126 OA 
HETATM   13  O   UNL     1      -7.654  10.921  69.564  1.00  0.00    -0.131 OA 
BRANCH  13  14
HETATM   14  C   UNL     1      -8.122   9.787  70.236  1.00  0.00    -0.154 C  
BRANCH  14  15
HETATM   15  O   UNL     1      -7.053   9.229  71.037  1.00  0.00    -0.121 OA 
BRANCH  15  16
HETATM   16  C   UNL     1      -7.318   8.029  71.628  1.00  0.00    -0.076 C  
HETATM   17  O   UNL     1      -7.878   7.097  71.062  1.00  0.00    -0.093 OA 
BRANCH  16  18
HETATM   18  C   UNL     1      -6.842   7.980  73.096  1.00  0.00    -0.112 C  
HETATM   19  C   UNL     1      -8.024   8.305  74.033  1.00  0.00    -0.270 C  
HETATM   20  C   UNL     1      -5.740   9.019  73.333  1.00  0.00    -0.067 C  
HETATM   21  C   UNL     1      -6.324   6.579  73.454  1.00  0.00    -0.064 C  
ENDBRANCH  16  18
ENDBRANCH  15  16
ENDBRANCH  14  15
ENDBRANCH  13  14
BRANCH  11  22
HETATM   22  O   UNL     1      -7.039  13.553  69.080  1.00  0.00    -0.110 OA 
BRANCH  22  23
HETATM   23  C   UNL     1      -7.010  14.951  68.881  1.00  0.00    -0.112 C  
BRANCH  23  24
HETATM   24  C   UNL     1      -6.815  15.222  67.395  1.00  0.00    -0.154 C  
BRANCH  24  25
HETATM   25  N   UNL     1      -7.266  16.549  67.068  1.00  0.00    -0.190 NA 
HETATM   26  C   UNL     1      -8.515  17.031  67.320  1.00  0.00    -0.194 A  
HETATM   27  N   UNL     1      -9.481  16.462  68.058  1.00  0.00    -0.215 NA 
HETATM   28  H2  UNL     1      -9.847  19.807  64.886  1.00  0.00     0.000 HD 
HETATM   29  H1  UNL     1     -10.978  20.492  65.863  1.00  0.00     0.000 HD 
HETATM   30  C   UNL     1      -6.616  17.448  66.267  1.00  0.00    -0.244 A  
HETATM   31  N   UNL     1      -7.391  18.465  65.953  1.00  0.00    -0.458 NA 
HETATM   32  C   UNL     1      -8.594  18.200  66.586  1.00  0.00    -0.267 A  
HETATM   33  C   UNL     1      -9.830  18.862  66.592  1.00  0.00    -0.358 A  
HETATM   34  N   UNL     1     -10.079  20.011  65.858  1.00  0.00    -0.454 NA 
HETATM   35  N   UNL     1     -10.831  18.350  67.349  1.00  0.00    -0.355 NA 
HETATM   36  C   UNL     1     -10.606  17.203  68.027  1.00  0.00    -0.374 A  
ENDBRANCH  24  25
ENDBRANCH  23  24
ENDBRANCH  22  23
ENDBRANCH  11  22
ENDBRANCH   8   9
ENDBRANCH   7   8
ENDBRANCH   5   7
ENDBRANCH   2   5
TORSDOF 12
ENDMDL
MODEL      245
REMARK 921   NORMALIZED FREE ENERGY PREDICTED BY IDOCK:   -3.77 KCAL/MOL
REMARK 922        TOTAL FREE ENERGY PREDICTED BY IDOCK:   -8.01 KCAL/MOL
REMARK 923 INTER-LIGAND FREE ENERGY PREDICTED BY IDOCK:   -6.24 KCAL/MOL
REMARK 924 INTRA-LIGAND FREE ENERGY PREDICTED BY IDOCK:   -1.77 KCAL/MOL
REMARK 927      BINDING AFFINITY PREDICTED BY RF-SCORE:    0.00 PKD
ROOT
HETATM    1  C   UNL     1      -8.633  11.708  66.764  1.00  0.00    -0.180 C  
HETATM    2  C   UNL     1      -9.888  11.009  67.321  1.00  0.00    -0.204 C  
HETATM    3  C   UNL     1     -11.038  12.022  67.348  1.00  0.00    -0.337 C  
HETATM    4  C   UNL     1     -10.245   9.841  66.388  1.00  0.00    -0.288 C  
ENDROOT
BRANCH   2   5
HETATM    5  C   UNL     1      -9.570  10.465  68.723  1.00  0.00    -0.177 C  
HETATM    6  O   UNL     1      -8.564   9.809  68.978  1.00  0.00    -0.130 OA 
BRANCH   5   7
HETATM    7  O   UNL     1     -10.564  10.699  69.624  1.00  0.00    -0.241 OA 
BRANCH   7   8
HETATM    8  C   UNL     1     -11.366   9.544  69.937  1.00  0.00    -0.126 C  
BRANCH   8   9
HETATM    9  O   UNL     1     -10.814   8.722  70.961  1.00  0.00    -0.233 OA 
HETATM   10  P   UNL     1     -11.636   7.350  71.263  1.00  0.00    -0.304 P  
HETATM   11  C   UNL     1     -11.533   6.398  69.729  1.00  0.00    -0.399 C  
HETATM   12  O   UNL     1     -13.016   7.577  71.792  1.00  0.00    -0.335 OA 
HETATM   13  O   UNL     1     -10.670   6.446  72.180  1.00  0.00    -0.215 OA 
BRANCH  13  14
HETATM   14  C   UNL     1     -10.465   6.675  73.545  1.00  0.00    -0.313 C  
BRANCH  14  15
HETATM   15  O   UNL     1      -9.056   6.535  73.848  1.00  0.00    -0.135 OA 
BRANCH  15  16
HETATM   16  C   UNL     1      -8.232   7.461  73.279  1.00  0.00    -0.116 C  
HETATM   17  O   UNL     1      -8.404   8.672  73.360  1.00  0.00    -0.398 OA 
BRANCH  16  18
HETATM   18  C   UNL     1      -7.061   6.811  72.511  1.00  0.00    -0.075 C  
HETATM   19  C   UNL     1      -5.725   7.386  73.024  1.00  0.00    -0.044 C  
HETATM   20  C   UNL     1      -7.173   7.117  71.012  1.00  0.00    -0.074 C  
HETATM   21  C   UNL     1      -7.040   5.291  72.732  1.00  0.00    -0.088 C  
ENDBRANCH  16  18
ENDBRANCH  15  16
ENDBRANCH  14  15
ENDBRANCH  13  14
BRANCH  11  22
HETATM   22  O   UNL     1     -10.130   6.253  69.494  1.00  0.00    -0.164 OA 
BRANCH  22  23
HETATM   23  C   UNL     1      -9.754   6.581  68.173  1.00  0.00    -0.126 C  
BRANCH  23  24
HETATM   24  C   UNL     1     -10.388   5.571  67.227  1.00  0.00    -0.236 C  
BRANCH  24  25
HETATM   25  N   UNL     1      -9.396   5.038  66.331  1.00  0.00    -0.137 NA 
HETATM   26  C   UNL     1      -9.668   4.305  65.215  1.00  0.00    -0.197 A  
HETATM   27  N   UNL     1     -10.864   4.096  64.641  1.00  0.00    -0.203 NA 
HETATM   28  H2  UNL     1      -6.938   1.709  64.114  1.00  0.00     0.000 HD 
HETATM   29  H1  UNL     1      -7.342   1.560  62.527  1.00  0.00     0.000 HD 
HETATM   30  C   UNL     1      -8.049   4.977  66.562  1.00  0.00    -0.108 A  
HETATM   31  N   UNL     1      -7.441   4.211  65.681  1.00  0.00    -0.079 NA 
HETATM   32  C   UNL     1      -8.451   3.763  64.847  1.00  0.00    -0.104 A  
HETATM   33  C   UNL     1      -8.463   2.874  63.763  1.00  0.00    -0.086 A  
HETATM   34  N   UNL     1      -7.333   2.207  63.316  1.00  0.00    -0.047 NA 
HETATM   35  N   UNL     1      -9.638   2.653  63.123  1.00  0.00    -0.094 NA 
HETATM   36  C   UNL     1     -10.750   3.265  63.588  1.00  0.00    -0.247 A  
ENDBRANCH  24  25
ENDBRANCH  23  24
ENDBRANCH  22  23
ENDBRANCH  11  22
ENDBRANCH   8   9
ENDBRANCH   7   8
ENDBRANCH   5   7
ENDBRANCH   2   5
TORSDOF 12
ENDMDL
MODEL      246
REMARK 921   NORMALIZED FREE ENERGY PREDICTED BY IDOCK:   -3.76 KCAL/MOL
REMARK 922        TOTAL FREE ENERGY PREDICTED BY IDOCK:   -7.99 KCAL/MOL
REMARK 923 INTER-LIGAND FREE ENERGY PREDICTED BY IDOCK:   -5.43 KCAL/MOL
REMARK 924 INTRA-LIGAND FREE ENERGY PREDICTED BY IDOCK:   -2.56 KCAL/MOL
REMARK 927      BINDING AFFINITY PREDICTED BY RF-SCORE:    0.00 PKD
ROOT
HETATM    1  C   UNL     1     -13.325   7.660  71.383  1.00  0.00    -0.340 C  
HETATM    2  C   UNL     1     -11.794   7.835  71.356  1.00  0.00    -0.324 C  
HETATM    3  C   UNL     1     -11.271   7.774  72.796  1.00  0.00    -0.456 C  
HETATM    4  C   UNL     1     -11.191   6.685  70.534  1.00  0.00    -0.388 C  
ENDROOT
BRANCH   2   5
HETATM    5  C   UNL     1     -11.461   9.175  70.680  1.00  0.00    -0.262 C  
HETATM    6  O   UNL     1     -11.593  10.261  71.237  1.00  0.00    -0.344 OA 
BRANCH   5   7
HETATM    7  O   UNL     1     -11.103   9.038  69.372  1.00  0.00    -0.132 OA 
BRANCH   7   8
HETATM    8  C   UNL     1     -10.386  10.164  68.833  1.00  0.00    -0.206 C  
BRANCH   8   9
HETATM    9  O   UNL     1      -9.639   9.860  67.658  1.00  0.00    -0.146 OA 
HETATM   10  P   UNL     1      -9.821  10.914  66.432  1.00  0.00    -0.223 P  
HETATM   11  C   UNL     1      -9.171  12.480  67.063  1.00  0.00    -0.214 C  
HETATM   12  O   UNL     1     -11.210  10.966  65.882  1.00  0.00     0.011 OA 
HETATM   13  O   UNL     1      -8.657  10.572  65.374  1.00  0.00    -0.171 OA 
BRANCH  13  14
HETATM   14  C   UNL     1      -8.705   9.480  64.501  1.00  0.00    -0.205 C  
BRANCH  14  15
HETATM   15  O   UNL     1      -7.913   8.397  65.043  1.00  0.00    -0.122 OA 
BRANCH  15  16
HETATM   16  C   UNL     1      -8.014   7.204  64.391  1.00  0.00    -0.101 C  
HETATM   17  O   UNL     1      -7.995   7.088  63.170  1.00  0.00    -0.118 OA 
BRANCH  16  18
HETATM   18  C   UNL     1      -8.166   6.014  65.362  1.00  0.00    -0.141 C  
HETATM   19  C   UNL     1      -6.772   5.555  65.838  1.00  0.00    -0.056 C  
HETATM   20  C   UNL     1      -8.846   4.834  64.657  1.00  0.00    -0.152 C  
HETATM   21  C   UNL     1      -8.979   6.420  66.600  1.00  0.00    -0.145 C  
ENDBRANCH  16  18
ENDBRANCH  15  16
ENDBRANCH  14  15
ENDBRANCH  13  14
BRANCH  11  22
HETATM   22  O   UNL     1      -7.825  12.179  67.440  1.00  0.00    -0.149 OA 
BRANCH  22  23
HETATM   23  C   UNL     1      -7.523  12.563  68.765  1.00  0.00    -0.049 C  
BRANCH  23  24
HETATM   24  C   UNL     1      -6.298  11.785  69.225  1.00  0.00    -0.103 C  
BRANCH  24  25
HETATM   25  N   UNL     1      -6.458  10.385  68.930  1.00  0.00    -0.051 NA 
HETATM   26  C   UNL     1      -6.949   9.457  69.799  1.00  0.00    -0.065 A  
HETATM   27  N   UNL     1      -7.533   9.674  70.989  1.00  0.00    -0.320 NA 
HETATM   28  H2  UNL     1      -5.665   5.776  69.343  1.00  0.00     0.000 HD 
HETATM   29  H1  UNL     1      -6.896   4.975  70.083  1.00  0.00     0.000 HD 
HETATM   30  C   UNL     1      -5.947   9.724  67.846  1.00  0.00    -0.050 A  
HETATM   31  N   UNL     1      -6.043   8.419  67.985  1.00  0.00    -0.050 NA 
HETATM   32  C   UNL     1      -6.646   8.240  69.219  1.00  0.00    -0.039 A  
HETATM   33  C   UNL     1      -6.962   7.095  69.964  1.00  0.00    -0.061 A  
HETATM   34  N   UNL     1      -6.666   5.808  69.541  1.00  0.00    -0.057 NA 
HETATM   35  N   UNL     1      -7.585   7.253  71.157  1.00  0.00    -0.079 NA 
HETATM   36  C   UNL     1      -7.832   8.509  71.594  1.00  0.00    -0.124 A  
ENDBRANCH  24  25
ENDBRANCH  23  24
ENDBRANCH  22  23
ENDBRANCH  11  22
ENDBRANCH   8   9
ENDBRANCH   7   8
ENDBRANCH   5   7
ENDBRANCH   2   5
TORSDOF 12
ENDMDL
MODEL      247
REMARK 921   NORMALIZED FREE ENERGY PREDICTED BY IDOCK:   -3.75 KCAL/MOL
REMARK 922        TOTAL FREE ENERGY PREDICTED BY IDOCK:   -7.98 KCAL/MOL
REMARK 923 INTER-LIGAND FREE ENERGY PREDICTED BY IDOCK:   -7.40 KCAL/MOL
REMARK 924 INTRA-LIGAND FREE ENERGY PREDICTED BY IDOCK:   -0.58 KCAL/MOL
REMARK 927      BINDING AFFINITY PREDICTED BY RF-SCORE:    0.00 PKD
ROOT
HETATM    1  C   UNL     1     -12.089  14.926  72.819  1.00  0.00    -0.368 C  
HETATM    2  C   UNL     1     -12.992  14.589  71.616  1.00  0.00    -0.408 C  
HETATM    3  C   UNL     1     -14.405  15.107  71.906  1.00  0.00    -0.693 C  
HETATM    4  C   UNL     1     -12.423  15.292  70.374  1.00  0.00    -0.426 C  
ENDROOT
BRANCH   2   5
HETATM    5  C   UNL     1     -12.973  13.068  71.395  1.00  0.00    -0.283 C  
HETATM    6  O   UNL     1     -13.574  12.275  72.114  1.00  0.00    -0.461 OA 
BRANCH   5   7
HETATM    7  O   UNL     1     -12.142  12.686  70.385  1.00  0.00    -0.364 OA 
BRANCH   7   8
HETATM    8  C   UNL     1     -11.926  11.264  70.299  1.00  0.00    -0.379 C  
BRANCH   8   9
HETATM    9  O   UNL     1     -11.603  10.811  68.987  1.00  0.00    -0.280 OA 
HETATM   10  P   UNL     1     -10.022  10.529  68.724  1.00  0.00    -0.210 P  
HETATM   11  C   UNL     1      -9.596   9.181  69.853  1.00  0.00    -0.192 C  
HETATM   12  O   UNL     1      -9.165  11.750  68.824  1.00  0.00    -0.124 OA 
HETATM   13  O   UNL     1      -9.939   9.722  67.334  1.00  0.00    -0.172 OA 
BRANCH  13  14
HETATM   14  C   UNL     1     -10.084  10.327  66.081  1.00  0.00    -0.242 C  
BRANCH  14  15
HETATM   15  O   UNL     1      -9.333   9.576  65.097  1.00  0.00    -0.248 OA 
BRANCH  15  16
HETATM   16  C   UNL     1      -8.098  10.066  64.792  1.00  0.00    -0.155 C  
HETATM   17  O   UNL     1      -7.322  10.529  65.620  1.00  0.00    -0.147 OA 
BRANCH  16  18
HETATM   18  C   UNL     1      -7.789   9.982  63.282  1.00  0.00    -0.150 C  
HETATM   19  C   UNL     1      -8.477  11.152  62.548  1.00  0.00    -0.235 C  
HETATM   20  C   UNL     1      -8.327   8.668  62.700  1.00  0.00    -0.187 C  
HETATM   21  C   UNL     1      -6.279  10.085  63.026  1.00  0.00    -0.130 C  
ENDBRANCH  16  18
ENDBRANCH  15  16
ENDBRANCH  14  15
ENDBRANCH  13  14
BRANCH  11  22
HETATM   22  O   UNL     1     -10.492   8.125  69.498  1.00  0.00    -0.223 OA 
BRANCH  22  23
HETATM   23  C   UNL     1     -10.372   6.993  70.335  1.00  0.00    -0.202 C  
BRANCH  23  24
HETATM   24  C   UNL     1     -10.859   5.772  69.567  1.00  0.00    -0.340 C  
BRANCH  24  25
HETATM   25  N   UNL     1      -9.754   5.127  68.908  1.00  0.00    -0.144 NA 
HETATM   26  C   UNL     1      -8.455   5.205  69.308  1.00  0.00    -0.093 A  
HETATM   27  N   UNL     1      -7.978   5.720  70.453  1.00  0.00    -0.103 NA 
HETATM   28  H2  UNL     1      -5.731   4.860  66.504  1.00  0.00     0.000 HD 
HETATM   29  H1  UNL     1      -4.458   4.387  67.431  1.00  0.00     0.000 HD 
HETATM   30  C   UNL     1      -9.784   4.535  67.674  1.00  0.00    -0.157 A  
HETATM   31  N   UNL     1      -8.573   4.263  67.238  1.00  0.00    -0.103 NA 
HETATM   32  C   UNL     1      -7.729   4.704  68.244  1.00  0.00    -0.081 A  
HETATM   33  C   UNL     1      -6.332   4.758  68.357  1.00  0.00    -0.036 A  
HETATM   34  N   UNL     1      -5.474   4.348  67.348  1.00  0.00    -0.012 NA 
HETATM   35  N   UNL     1      -5.796   5.236  69.506  1.00  0.00    -0.016 NA 
HETATM   36  C   UNL     1      -6.632   5.680  70.471  1.00  0.00    -0.040 A  
ENDBRANCH  24  25
ENDBRANCH  23  24
ENDBRANCH  22  23
ENDBRANCH  11  22
ENDBRANCH   8   9
ENDBRANCH   7   8
ENDBRANCH   5   7
ENDBRANCH   2   5
TORSDOF 12
ENDMDL
MODEL      248
REMARK 921   NORMALIZED FREE ENERGY PREDICTED BY IDOCK:   -3.73 KCAL/MOL
REMARK 922        TOTAL FREE ENERGY PREDICTED BY IDOCK:   -7.94 KCAL/MOL
REMARK 923 INTER-LIGAND FREE ENERGY PREDICTED BY IDOCK:   -6.02 KCAL/MOL
REMARK 924 INTRA-LIGAND FREE ENERGY PREDICTED BY IDOCK:   -1.91 KCAL/MOL
REMARK 927      BINDING AFFINITY PREDICTED BY RF-SCORE:    0.00 PKD
ROOT
HETATM    1  C   UNL     1     -11.133   5.092  72.563  1.00  0.00    -0.257 C  
HETATM    2  C   UNL     1      -9.805   4.328  72.398  1.00  0.00    -0.217 C  
HETATM    3  C   UNL     1      -9.039   4.389  73.725  1.00  0.00    -0.104 C  
HETATM    4  C   UNL     1     -10.129   2.867  72.050  1.00  0.00    -0.184 C  
ENDROOT
BRANCH   2   5
HETATM    5  C   UNL     1      -9.009   4.963  71.246  1.00  0.00    -0.133 C  
HETATM    6  O   UNL     1      -7.808   5.206  71.312  1.00  0.00    -0.100 OA 
BRANCH   5   7
HETATM    7  O   UNL     1      -9.792   5.319  70.189  1.00  0.00    -0.184 OA 
BRANCH   7   8
HETATM    8  C   UNL     1      -9.599   4.514  69.010  1.00  0.00    -0.175 C  
BRANCH   8   9
HETATM    9  O   UNL     1      -8.883   5.178  67.973  1.00  0.00    -0.103 OA 
HETATM   10  P   UNL     1      -9.787   5.657  66.707  1.00  0.00    -0.198 P  
HETATM   11  C   UNL     1     -10.941   6.870  67.392  1.00  0.00    -0.304 C  
HETATM   12  O   UNL     1     -10.409   4.530  65.948  1.00  0.00    -0.269 OA 
HETATM   13  O   UNL     1      -8.859   6.656  65.851  1.00  0.00    -0.154 OA 
BRANCH  13  14
HETATM   14  C   UNL     1      -7.831   6.221  65.008  1.00  0.00    -0.111 C  
BRANCH  14  15
HETATM   15  O   UNL     1      -7.301   7.352  64.276  1.00  0.00    -0.077 OA 
BRANCH  15  16
HETATM   16  C   UNL     1      -6.490   8.189  64.983  1.00  0.00    -0.048 C  
HETATM   17  O   UNL     1      -5.669   7.810  65.811  1.00  0.00    -0.036 OA 
BRANCH  16  18
HETATM   18  C   UNL     1      -6.729   9.674  64.632  1.00  0.00    -0.101 C  
HETATM   19  C   UNL     1      -5.439  10.479  64.890  1.00  0.00    -0.142 C  
HETATM   20  C   UNL     1      -7.844  10.256  65.510  1.00  0.00    -0.152 C  
HETATM   21  C   UNL     1      -7.098   9.832  63.150  1.00  0.00    -0.116 C  
ENDBRANCH  16  18
ENDBRANCH  15  16
ENDBRANCH  14  15
ENDBRANCH  13  14
BRANCH  11  22
HETATM   22  O   UNL     1     -10.102   7.867  67.979  1.00  0.00    -0.177 OA 
BRANCH  22  23
HETATM   23  C   UNL     1     -10.597   9.178  67.807  1.00  0.00    -0.227 C  
BRANCH  23  24
HETATM   24  C   UNL     1      -9.829  10.109  68.736  1.00  0.00    -0.175 C  
BRANCH  24  25
HETATM   25  N   UNL     1     -10.043   9.729  70.107  1.00  0.00    -0.253 NA 
HETATM   26  C   UNL     1      -9.063   9.336  70.968  1.00  0.00    -0.183 A  
HETATM   27  N   UNL     1      -7.734   9.397  70.783  1.00  0.00    -0.241 NA 
HETATM   28  H2  UNL     1     -10.124   6.857  73.821  1.00  0.00     0.000 HD 
HETATM   29  H1  UNL     1      -8.917   7.160  74.894  1.00  0.00     0.000 HD 
HETATM   30  C   UNL     1     -11.253   9.481  70.698  1.00  0.00    -0.302 A  
HETATM   31  N   UNL     1     -11.108   8.912  71.876  1.00  0.00    -0.358 NA 
HETATM   32  C   UNL     1      -9.739   8.791  72.044  1.00  0.00    -0.300 A  
HETATM   33  C   UNL     1      -8.953   8.215  73.052  1.00  0.00    -0.266 A  
HETATM   34  N   UNL     1      -9.489   7.579  74.161  1.00  0.00    -0.163 NA 
HETATM   35  N   UNL     1      -7.604   8.280  72.934  1.00  0.00    -0.210 NA 
HETATM   36  C   UNL     1      -7.081   8.857  71.829  1.00  0.00    -0.004 A  
ENDBRANCH  24  25
ENDBRANCH  23  24
ENDBRANCH  22  23
ENDBRANCH  11  22
ENDBRANCH   8   9
ENDBRANCH   7   8
ENDBRANCH   5   7
ENDBRANCH   2   5
TORSDOF 12
ENDMDL
MODEL      249
REMARK 921   NORMALIZED FREE ENERGY PREDICTED BY IDOCK:   -3.70 KCAL/MOL
REMARK 922        TOTAL FREE ENERGY PREDICTED BY IDOCK:   -7.89 KCAL/MOL
REMARK 923 INTER-LIGAND FREE ENERGY PREDICTED BY IDOCK:   -6.45 KCAL/MOL
REMARK 924 INTRA-LIGAND FREE ENERGY PREDICTED BY IDOCK:   -1.44 KCAL/MOL
REMARK 927      BINDING AFFINITY PREDICTED BY RF-SCORE:    0.00 PKD
ROOT
HETATM    1  C   UNL     1      -7.657   9.552  70.702  1.00  0.00    -0.145 C  
HETATM    2  C   UNL     1      -6.128   9.369  70.643  1.00  0.00    -0.065 C  
HETATM    3  C   UNL     1      -5.472  10.755  70.618  1.00  0.00    -0.105 C  
HETATM    4  C   UNL     1      -5.684   8.605  71.900  1.00  0.00    -0.052 C  
ENDROOT
BRANCH   2   5
HETATM    5  C   UNL     1      -5.777   8.545  69.394  1.00  0.00    -0.031 C  
HETATM    6  O   UNL     1      -5.266   7.430  69.444  1.00  0.00    -0.015 OA 
BRANCH   5   7
HETATM    7  O   UNL     1      -5.998   9.220  68.230  1.00  0.00    -0.044 OA 
BRANCH   7   8
HETATM    8  C   UNL     1      -6.895   8.556  67.320  1.00  0.00    -0.067 C  
BRANCH   8   9
HETATM    9  O   UNL     1      -7.914   9.403  66.797  1.00  0.00    -0.107 OA 
HETATM   10  P   UNL     1      -8.856   8.726  65.655  1.00  0.00    -0.171 P  
HETATM   11  C   UNL     1      -9.700   7.365  66.494  1.00  0.00    -0.156 C  
HETATM   12  O   UNL     1      -8.121   8.359  64.406  1.00  0.00    -0.151 OA 
HETATM   13  O   UNL     1     -10.110   9.718  65.469  1.00  0.00    -0.301 OA 
BRANCH  13  14
HETATM   14  C   UNL     1     -10.043  10.922  64.762  1.00  0.00    -0.321 C  
BRANCH  14  15
HETATM   15  O   UNL     1     -11.095  11.806  65.219  1.00  0.00    -0.304 OA 
BRANCH  15  16
HETATM   16  C   UNL     1     -10.688  13.020  65.688  1.00  0.00    -0.275 C  
HETATM   17  O   UNL     1     -10.081  13.845  65.015  1.00  0.00    -0.356 OA 
BRANCH  16  18
HETATM   18  C   UNL     1     -11.068  13.235  67.169  1.00  0.00    -0.308 C  
HETATM   19  C   UNL     1     -12.159  14.320  67.269  1.00  0.00    -0.390 C  
HETATM   20  C   UNL     1      -9.847  13.704  67.970  1.00  0.00    -0.244 C  
HETATM   21  C   UNL     1     -11.627  11.942  67.782  1.00  0.00    -0.393 C  
ENDBRANCH  16  18
ENDBRANCH  15  16
ENDBRANCH  14  15
ENDBRANCH  13  14
BRANCH  11  22
HETATM   22  O   UNL     1     -10.382   7.989  67.585  1.00  0.00    -0.217 OA 
BRANCH  22  23
HETATM   23  C   UNL     1     -10.636   7.104  68.657  1.00  0.00    -0.189 C  
BRANCH  23  24
HETATM   24  C   UNL     1     -10.766   7.921  69.935  1.00  0.00    -0.244 C  
BRANCH  24  25
HETATM   25  N   UNL     1     -10.891   7.048  71.072  1.00  0.00    -0.233 NA 
HETATM   26  C   UNL     1      -9.885   6.283  71.581  1.00  0.00    -0.165 A  
HETATM   27  N   UNL     1      -8.581   6.324  71.262  1.00  0.00    -0.124 NA 
HETATM   28  H2  UNL     1     -10.944   2.960  73.381  1.00  0.00     0.000 HD 
HETATM   29  H1  UNL     1      -9.615   2.735  74.321  1.00  0.00     0.000 HD 
HETATM   30  C   UNL     1     -12.060   6.669  71.676  1.00  0.00    -0.355 A  
HETATM   31  N   UNL     1     -11.870   5.674  72.517  1.00  0.00    -0.225 NA 
HETATM   32  C   UNL     1     -10.514   5.406  72.445  1.00  0.00    -0.217 A  
HETATM   33  C   UNL     1      -9.706   4.429  73.044  1.00  0.00    -0.135 A  
HETATM   34  N   UNL     1     -10.203   3.445  73.885  1.00  0.00    -0.134 NA 
HETATM   35  N   UNL     1      -8.375   4.444  72.785  1.00  0.00    -0.104 NA 
HETATM   36  C   UNL     1      -7.897   5.373  71.926  1.00  0.00    -0.112 A  
ENDBRANCH  24  25
ENDBRANCH  23  24
ENDBRANCH  22  23
ENDBRANCH  11  22
ENDBRANCH   8   9
ENDBRANCH   7   8
ENDBRANCH   5   7
ENDBRANCH   2   5
TORSDOF 12
ENDMDL
MODEL      250
REMARK 921   NORMALIZED FREE ENERGY PREDICTED BY IDOCK:   -3.69 KCAL/MOL
REMARK 922        TOTAL FREE ENERGY PREDICTED BY IDOCK:   -7.88 KCAL/MOL
REMARK 923 INTER-LIGAND FREE ENERGY PREDICTED BY IDOCK:   -6.40 KCAL/MOL
REMARK 924 INTRA-LIGAND FREE ENERGY PREDICTED BY IDOCK:   -1.49 KCAL/MOL
REMARK 927      BINDING AFFINITY PREDICTED BY RF-SCORE:    0.00 PKD
ROOT
HETATM    1  C   UNL     1      -7.388  19.824  68.690  1.00  0.00    -0.342 C  
HETATM    2  C   UNL     1      -7.641  19.595  67.187  1.00  0.00    -0.282 C  
HETATM    3  C   UNL     1      -9.096  19.967  66.876  1.00  0.00    -0.452 C  
HETATM    4  C   UNL     1      -6.690  20.505  66.393  1.00  0.00    -0.299 C  
ENDROOT
BRANCH   2   5
HETATM    5  C   UNL     1      -7.340  18.126  66.852  1.00  0.00    -0.204 C  
HETATM    6  O   UNL     1      -7.525  17.636  65.742  1.00  0.00    -0.512 OA 
BRANCH   5   7
HETATM    7  O   UNL     1      -6.942  17.403  67.937  1.00  0.00    -0.169 OA 
BRANCH   7   8
HETATM    8  C   UNL     1      -6.205  16.208  67.616  1.00  0.00    -0.154 C  
BRANCH   8   9
HETATM    9  O   UNL     1      -6.986  15.018  67.677  1.00  0.00    -0.153 OA 
HETATM   10  P   UNL     1      -6.989  14.267  69.121  1.00  0.00    -0.085 P  
HETATM   11  C   UNL     1      -7.758  15.445  70.257  1.00  0.00     0.623 C  
HETATM   12  O   UNL     1      -5.649  13.751  69.535  1.00  0.00    -0.085 OA 
HETATM   13  O   UNL     1      -8.173  13.179  69.054  1.00  0.00     0.146 OA 
BRANCH  13  14
HETATM   14  C   UNL     1      -8.066  11.962  68.373  1.00  0.00    -0.155 C  
BRANCH  14  15
HETATM   15  O   UNL     1      -9.069  11.044  68.869  1.00  0.00    -0.175 OA 
BRANCH  15  16
HETATM   16  C   UNL     1      -8.724   9.726  68.858  1.00  0.00    -0.136 C  
HETATM   17  O   UNL     1      -7.572   9.320  68.751  1.00  0.00    -0.078 OA 
BRANCH  16  18
HETATM   18  C   UNL     1      -9.950   8.797  68.987  1.00  0.00    -0.197 C  
HETATM   19  C   UNL     1     -10.850   9.286  70.141  1.00  0.00    -0.275 C  
HETATM   20  C   UNL     1      -9.502   7.363  69.300  1.00  0.00    -0.154 C  
HETATM   21  C   UNL     1     -10.784   8.811  67.697  1.00  0.00    -0.206 C  
ENDBRANCH  16  18
ENDBRANCH  15  16
ENDBRANCH  14  15
ENDBRANCH  13  14
BRANCH  11  22
HETATM   22  O   UNL     1      -9.040  15.708  69.681  1.00  0.00    -0.273 OA 
BRANCH  22  23
HETATM   23  C   UNL     1     -10.045  15.931  70.648  1.00  0.00     0.665 C  
BRANCH  23  24
HETATM   24  C   UNL     1     -11.379  16.083  69.930  1.00  0.00    -0.340 C  
BRANCH  24  25
HETATM   25  N   UNL     1     -11.240  15.730  68.542  1.00  0.00    -0.335 NA 
HETATM   26  C   UNL     1     -11.452  14.485  68.030  1.00  0.00    -0.321 A  
HETATM   27  N   UNL     1     -11.991  13.423  68.651  1.00  0.00    -0.351 NA 
HETATM   28  H2  UNL     1      -9.407  13.538  64.817  1.00  0.00     0.000 HD 
HETATM   29  H1  UNL     1     -10.376  12.346  64.231  1.00  0.00     0.000 HD 
HETATM   30  C   UNL     1     -10.665  16.498  67.566  1.00  0.00    -0.283 A  
HETATM   31  N   UNL     1     -10.456  15.807  66.466  1.00  0.00    -0.299 NA 
HETATM   32  C   UNL     1     -10.921  14.536  66.755  1.00  0.00    -0.316 A  
HETATM   33  C   UNL     1     -10.924  13.337  66.027  1.00  0.00    -0.279 A  
HETATM   34  N   UNL     1     -10.374  13.218  64.760  1.00  0.00    -0.370 NA 
HETATM   35  N   UNL     1     -11.488  12.241  66.591  1.00  0.00    -0.357 NA 
HETATM   36  C   UNL     1     -11.981  12.343  67.846  1.00  0.00    -0.196 A  
ENDBRANCH  24  25
ENDBRANCH  23  24
ENDBRANCH  22  23
ENDBRANCH  11  22
ENDBRANCH   8   9
ENDBRANCH   7   8
ENDBRANCH   5   7
ENDBRANCH   2   5
TORSDOF 12
ENDMDL
MODEL      251
REMARK 921   NORMALIZED FREE ENERGY PREDICTED BY IDOCK:   -3.69 KCAL/MOL
REMARK 922        TOTAL FREE ENERGY PREDICTED BY IDOCK:   -7.87 KCAL/MOL
REMARK 923 INTER-LIGAND FREE ENERGY PREDICTED BY IDOCK:   -6.74 KCAL/MOL
REMARK 924 INTRA-LIGAND FREE ENERGY PREDICTED BY IDOCK:   -1.13 KCAL/MOL
REMARK 927      BINDING AFFINITY PREDICTED BY RF-SCORE:    0.00 PKD
ROOT
HETATM    1  C   UNL     1      -5.547   4.373  70.092  1.00  0.00    -0.012 C  
HETATM    2  C   UNL     1      -6.293   3.605  71.201  1.00  0.00    -0.019 C  
HETATM    3  C   UNL     1      -7.314   2.669  70.544  1.00  0.00    -0.033 C  
HETATM    4  C   UNL     1      -5.266   2.782  71.993  1.00  0.00     0.000 C  
ENDROOT
BRANCH   2   5
HETATM    5  C   UNL     1      -6.966   4.621  72.138  1.00  0.00    -0.060 C  
HETATM    6  O   UNL     1      -6.422   5.075  73.140  1.00  0.00    -0.055 OA 
BRANCH   5   7
HETATM    7  O   UNL     1      -8.258   4.886  71.798  1.00  0.00    -0.109 OA 
BRANCH   7   8
HETATM    8  C   UNL     1      -8.627   6.274  71.902  1.00  0.00    -0.128 C  
BRANCH   8   9
HETATM    9  O   UNL     1      -8.955   6.876  70.653  1.00  0.00    -0.150 OA 
HETATM   10  P   UNL     1     -10.520   6.762  70.221  1.00  0.00    -0.228 P  
HETATM   11  C   UNL     1     -11.421   7.685  71.489  1.00  0.00    -0.264 C  
HETATM   12  O   UNL     1     -10.982   5.359  69.993  1.00  0.00    -0.249 OA 
HETATM   13  O   UNL     1     -10.717   7.779  68.989  1.00  0.00    -0.195 OA 
BRANCH  13  14
HETATM   14  C   UNL     1     -10.292   7.502  67.685  1.00  0.00    -0.229 C  
BRANCH  14  15
HETATM   15  O   UNL     1      -9.918   6.107  67.588  1.00  0.00    -0.118 OA 
BRANCH  15  16
HETATM   16  C   UNL     1      -9.180   5.765  66.495  1.00  0.00    -0.143 C  
HETATM   17  O   UNL     1      -8.897   6.542  65.590  1.00  0.00    -0.133 OA 
BRANCH  16  18
HETATM   18  C   UNL     1      -8.747   4.283  66.519  1.00  0.00    -0.113 C  
HETATM   19  C   UNL     1      -8.899   3.678  65.108  1.00  0.00    -0.120 C  
HETATM   20  C   UNL     1      -9.633   3.485  67.483  1.00  0.00    -0.177 C  
HETATM   21  C   UNL     1      -7.274   4.151  66.936  1.00  0.00    -0.068 C  
ENDBRANCH  16  18
ENDBRANCH  15  16
ENDBRANCH  14  15
ENDBRANCH  13  14
BRANCH  11  22
HETATM   22  O   UNL     1     -10.850   8.995  71.447  1.00  0.00    -0.274 OA 
BRANCH  22  23
HETATM   23  C   UNL     1     -11.813  10.022  71.558  1.00  0.00    -0.324 C  
BRANCH  23  24
HETATM   24  C   UNL     1     -12.302  10.378  70.161  1.00  0.00    -0.208 C  
BRANCH  24  25
HETATM   25  N   UNL     1     -12.334  11.808  69.995  1.00  0.00    -0.204 NA 
HETATM   26  C   UNL     1     -12.024  12.465  68.842  1.00  0.00    -0.241 A  
HETATM   27  N   UNL     1     -11.817  11.935  67.625  1.00  0.00    -0.583 NA 
HETATM   28  H2  UNL     1     -10.586  16.096  69.225  1.00  0.00     0.000 HD 
HETATM   29  H1  UNL     1     -10.956  16.684  67.735  1.00  0.00     0.000 HD 
HETATM   30  C   UNL     1     -12.450  12.735  70.994  1.00  0.00    -0.277 A  
HETATM   31  N   UNL     1     -12.193  13.950  70.560  1.00  0.00    -0.353 NA 
HETATM   32  C   UNL     1     -11.898  13.789  69.217  1.00  0.00    -0.344 A  
HETATM   33  C   UNL     1     -11.484  14.685  68.221  1.00  0.00    -0.314 A  
HETATM   34  N   UNL     1     -11.257  16.032  68.459  1.00  0.00    -0.358 NA 
HETATM   35  N   UNL     1     -11.294  14.211  66.965  1.00  0.00    -0.318 NA 
HETATM   36  C   UNL     1     -11.468  12.890  66.742  1.00  0.00    -0.340 A  
ENDBRANCH  24  25
ENDBRANCH  23  24
ENDBRANCH  22  23
ENDBRANCH  11  22
ENDBRANCH   8   9
ENDBRANCH   7   8
ENDBRANCH   5   7
ENDBRANCH   2   5
TORSDOF 12
ENDMDL
MODEL      252
REMARK 921   NORMALIZED FREE ENERGY PREDICTED BY IDOCK:   -3.66 KCAL/MOL
REMARK 922        TOTAL FREE ENERGY PREDICTED BY IDOCK:   -7.82 KCAL/MOL
REMARK 923 INTER-LIGAND FREE ENERGY PREDICTED BY IDOCK:   -6.52 KCAL/MOL
REMARK 924 INTRA-LIGAND FREE ENERGY PREDICTED BY IDOCK:   -1.30 KCAL/MOL
REMARK 927      BINDING AFFINITY PREDICTED BY RF-SCORE:    0.00 PKD
ROOT
HETATM    1  C   UNL     1     -10.735  12.641  63.460  1.00  0.00    -0.337 C  
HETATM    2  C   UNL     1     -11.615  13.165  64.611  1.00  0.00    -0.384 C  
HETATM    3  C   UNL     1     -11.835  14.669  64.412  1.00  0.00    -0.405 C  
HETATM    4  C   UNL     1     -12.964  12.430  64.560  1.00  0.00    -0.165 C  
ENDROOT
BRANCH   2   5
HETATM    5  C   UNL     1     -10.917  12.859  65.946  1.00  0.00    -0.276 C  
HETATM    6  O   UNL     1      -9.768  13.205  66.199  1.00  0.00    -0.276 OA 
BRANCH   5   7
HETATM    7  O   UNL     1     -11.669  12.080  66.774  1.00  0.00    -0.523 OA 
BRANCH   7   8
HETATM    8  C   UNL     1     -11.157  10.747  66.961  1.00  0.00    -0.174 C  
BRANCH   8   9
HETATM    9  O   UNL     1     -10.573  10.531  68.243  1.00  0.00    -0.181 OA 
HETATM   10  P   UNL     1      -9.876   9.074  68.447  1.00  0.00    -0.177 P  
HETATM   11  C   UNL     1      -8.520   9.034  67.251  1.00  0.00    -0.114 C  
HETATM   12  O   UNL     1     -10.836   7.930  68.374  1.00  0.00    -0.075 OA 
HETATM   13  O   UNL     1      -9.009   9.181  69.799  1.00  0.00    -0.143 OA 
BRANCH  13  14
HETATM   14  C   UNL     1      -9.570   9.141  71.080  1.00  0.00    -0.277 C  
BRANCH  14  15
HETATM   15  O   UNL     1      -9.240   7.879  71.708  1.00  0.00    -0.138 OA 
BRANCH  15  16
HETATM   16  C   UNL     1     -10.235   7.303  72.440  1.00  0.00    -0.196 C  
HETATM   17  O   UNL     1     -11.107   7.934  73.027  1.00  0.00    -0.402 OA 
BRANCH  16  18
HETATM   18  C   UNL     1     -10.136   5.762  72.456  1.00  0.00    -0.207 C  
HETATM   19  C   UNL     1      -8.784   5.339  73.066  1.00  0.00    -0.117 C  
HETATM   20  C   UNL     1     -10.213   5.209  71.027  1.00  0.00    -0.295 C  
HETATM   21  C   UNL     1     -11.255   5.151  73.312  1.00  0.00    -0.389 C  
ENDBRANCH  16  18
ENDBRANCH  15  16
ENDBRANCH  14  15
ENDBRANCH  13  14
BRANCH  11  22
HETATM   22  O   UNL     1      -7.718  10.169  67.586  1.00  0.00    -0.091 OA 
BRANCH  22  23
HETATM   23  C   UNL     1      -6.366   9.839  67.827  1.00  0.00    -0.053 C  
BRANCH  23  24
HETATM   24  C   UNL     1      -5.612  11.115  68.176  1.00  0.00    -0.042 C  
BRANCH  24  25
HETATM   25  N   UNL     1      -5.752  11.407  69.578  1.00  0.00    -0.057 NA 
HETATM   26  C   UNL     1      -5.705  12.655  70.122  1.00  0.00    -0.154 A  
HETATM   27  N   UNL     1      -5.709  13.833  69.476  1.00  0.00    -0.090 NA 
HETATM   28  H2  UNL     1      -4.414  12.912  73.820  1.00  0.00     0.000 HD 
HETATM   29  H1  UNL     1      -5.096  14.349  74.237  1.00  0.00     0.000 HD 
HETATM   30  C   UNL     1      -5.722  10.497  70.600  1.00  0.00    -0.101 A  
HETATM   31  N   UNL     1      -5.618  11.088  71.772  1.00  0.00    -0.290 NA 
HETATM   32  C   UNL     1      -5.579  12.441  71.482  1.00  0.00     0.267 A  
HETATM   33  C   UNL     1      -5.413  13.580  72.283  1.00  0.00    -0.012 A  
HETATM   34  N   UNL     1      -5.216  13.520  73.654  1.00  0.00    -0.426 NA 
HETATM   35  N   UNL     1      -5.444  14.797  71.688  1.00  0.00    -0.082 NA 
HETATM   36  C   UNL     1      -5.588  14.855  70.345  1.00  0.00    -0.139 A  
ENDBRANCH  24  25
ENDBRANCH  23  24
ENDBRANCH  22  23
ENDBRANCH  11  22
ENDBRANCH   8   9
ENDBRANCH   7   8
ENDBRANCH   5   7
ENDBRANCH   2   5
TORSDOF 12
ENDMDL
MODEL      253
REMARK 921   NORMALIZED FREE ENERGY PREDICTED BY IDOCK:   -3.65 KCAL/MOL
REMARK 922        TOTAL FREE ENERGY PREDICTED BY IDOCK:   -7.80 KCAL/MOL
REMARK 923 INTER-LIGAND FREE ENERGY PREDICTED BY IDOCK:   -6.52 KCAL/MOL
REMARK 924 INTRA-LIGAND FREE ENERGY PREDICTED BY IDOCK:   -1.28 KCAL/MOL
REMARK 927      BINDING AFFINITY PREDICTED BY RF-SCORE:    0.00 PKD
ROOT
HETATM    1  C   UNL     1     -11.236  14.491  64.572  1.00  0.00    -0.302 C  
HETATM    2  C   UNL     1     -11.843  13.161  64.083  1.00  0.00    -0.487 C  
HETATM    3  C   UNL     1     -12.911  12.715  65.089  1.00  0.00    -0.135 C  
HETATM    4  C   UNL     1     -12.489  13.401  62.710  1.00  0.00     0.918 C  
ENDROOT
BRANCH   2   5
HETATM    5  C   UNL     1     -10.717  12.125  63.944  1.00  0.00    -0.407 C  
HETATM    6  O   UNL     1      -9.844  12.190  63.084  1.00  0.00    -0.398 OA 
BRANCH   5   7
HETATM    7  O   UNL     1     -10.846  11.078  64.807  1.00  0.00    -0.276 OA 
BRANCH   7   8
HETATM    8  C   UNL     1      -9.820  11.010  65.815  1.00  0.00    -0.235 C  
BRANCH   8   9
HETATM    9  O   UNL     1      -9.768  12.157  66.659  1.00  0.00    -0.208 OA 
HETATM   10  P   UNL     1     -10.611  12.033  68.046  1.00  0.00    -0.228 P  
HETATM   11  C   UNL     1      -9.814  10.688  68.957  1.00  0.00    -0.205 C  
HETATM   12  O   UNL     1     -12.086  11.892  67.845  1.00  0.00    -0.558 OA 
HETATM   13  O   UNL     1     -10.139  13.268  68.965  1.00  0.00    -0.038 OA 
BRANCH  13  14
HETATM   14  C   UNL     1     -10.570  14.584  68.769  1.00  0.00    -0.248 C  
BRANCH  14  15
HETATM   15  O   UNL     1      -9.420  15.445  68.598  1.00  0.00    -0.190 OA 
BRANCH  15  16
HETATM   16  C   UNL     1      -9.685  16.779  68.510  1.00  0.00    -0.248 C  
HETATM   17  O   UNL     1     -10.363  17.397  69.323  1.00  0.00    -0.334 OA 
BRANCH  16  18
HETATM   18  C   UNL     1      -9.044  17.424  67.263  1.00  0.00    -0.239 C  
HETATM   19  C   UNL     1      -8.124  18.584  67.697  1.00  0.00    -0.262 C  
HETATM   20  C   UNL     1     -10.129  17.991  66.339  1.00  0.00    -0.384 C  
HETATM   21  C   UNL     1      -8.190  16.403  66.497  1.00  0.00    -0.341 C  
ENDBRANCH  16  18
ENDBRANCH  15  16
ENDBRANCH  14  15
ENDBRANCH  13  14
BRANCH  11  22
HETATM   22  O   UNL     1      -8.452  11.104  69.082  1.00  0.00    -0.089 OA 
BRANCH  22  23
HETATM   23  C   UNL     1      -7.557  10.023  69.239  1.00  0.00    -0.109 C  
BRANCH  23  24
HETATM   24  C   UNL     1      -8.330   8.725  69.048  1.00  0.00    -0.129 C  
BRANCH  24  25
HETATM   25  N   UNL     1      -8.107   7.844  70.165  1.00  0.00    -0.114 NA 
HETATM   26  C   UNL     1      -8.772   6.675  70.379  1.00  0.00    -0.151 A  
HETATM   27  N   UNL     1      -9.602   6.036  69.538  1.00  0.00    -0.141 NA 
HETATM   28  H2  UNL     1      -9.167   5.542  74.116  1.00  0.00     0.000 HD 
HETATM   29  H1  UNL     1      -9.405   3.932  73.879  1.00  0.00     0.000 HD 
HETATM   30  C   UNL     1      -7.379   8.131  71.287  1.00  0.00    -0.072 A  
HETATM   31  N   UNL     1      -7.569   7.234  72.230  1.00  0.00    -0.083 NA 
HETATM   32  C   UNL     1      -8.463   6.330  71.681  1.00  0.00    -0.129 A  
HETATM   33  C   UNL     1      -9.104   5.194  72.197  1.00  0.00    -0.136 A  
HETATM   34  N   UNL     1      -8.939   4.759  73.503  1.00  0.00    -0.108 NA 
HETATM   35  N   UNL     1      -9.925   4.490  71.381  1.00  0.00    -0.192 NA 
HETATM   36  C   UNL     1     -10.124   4.941  70.122  1.00  0.00    -0.261 A  
ENDBRANCH  24  25
ENDBRANCH  23  24
ENDBRANCH  22  23
ENDBRANCH  11  22
ENDBRANCH   8   9
ENDBRANCH   7   8
ENDBRANCH   5   7
ENDBRANCH   2   5
TORSDOF 12
ENDMDL
MODEL      254
REMARK 921   NORMALIZED FREE ENERGY PREDICTED BY IDOCK:   -3.63 KCAL/MOL
REMARK 922        TOTAL FREE ENERGY PREDICTED BY IDOCK:   -7.78 KCAL/MOL
REMARK 923 INTER-LIGAND FREE ENERGY PREDICTED BY IDOCK:   -6.83 KCAL/MOL
REMARK 924 INTRA-LIGAND FREE ENERGY PREDICTED BY IDOCK:   -0.95 KCAL/MOL
REMARK 927      BINDING AFFINITY PREDICTED BY RF-SCORE:    0.00 PKD
ROOT
HETATM    1  C   UNL     1      -9.518   3.816  64.277  1.00  0.00    -0.158 C  
HETATM    2  C   UNL     1      -8.785   2.995  65.355  1.00  0.00    -0.122 C  
HETATM    3  C   UNL     1      -9.440   3.277  66.712  1.00  0.00    -0.132 C  
HETATM    4  C   UNL     1      -8.927   1.505  65.008  1.00  0.00    -0.123 C  
ENDROOT
BRANCH   2   5
HETATM    5  C   UNL     1      -7.297   3.382  65.345  1.00  0.00    -0.075 C  
HETATM    6  O   UNL     1      -6.461   2.863  66.079  1.00  0.00    -0.027 OA 
BRANCH   5   7
HETATM    7  O   UNL     1      -7.024   4.427  64.513  1.00  0.00    -0.045 OA 
BRANCH   7   8
HETATM    8  C   UNL     1      -6.741   5.666  65.189  1.00  0.00    -0.047 C  
BRANCH   8   9
HETATM    9  O   UNL     1      -7.803   6.121  66.023  1.00  0.00    -0.100 OA 
HETATM   10  P   UNL     1      -7.339   6.760  67.446  1.00  0.00    -0.099 P  
HETATM   11  C   UNL     1      -6.369   8.222  67.006  1.00  0.00    -0.056 C  
HETATM   12  O   UNL     1      -6.661   5.784  68.353  1.00  0.00    -0.050 OA 
HETATM   13  O   UNL     1      -8.638   7.497  68.047  1.00  0.00    -0.123 OA 
BRANCH  13  14
HETATM   14  C   UNL     1      -9.701   6.816  68.650  1.00  0.00    -0.131 C  
BRANCH  14  15
HETATM   15  O   UNL     1      -9.356   6.507  70.021  1.00  0.00    -0.156 OA 
BRANCH  15  16
HETATM   16  C   UNL     1      -9.607   7.490  70.932  1.00  0.00    -0.165 C  
HETATM   17  O   UNL     1      -9.105   8.607  70.890  1.00  0.00    -0.155 OA 
BRANCH  16  18
HETATM   18  C   UNL     1     -10.590   7.034  72.032  1.00  0.00    -0.237 C  
HETATM   19  C   UNL     1     -10.514   5.502  72.190  1.00  0.00    -0.272 C  
HETATM   20  C   UNL     1     -12.028   7.407  71.649  1.00  0.00    -0.339 C  
HETATM   21  C   UNL     1     -10.231   7.669  73.384  1.00  0.00    -0.375 C  
ENDBRANCH  16  18
ENDBRANCH  15  16
ENDBRANCH  14  15
ENDBRANCH  13  14
BRANCH  11  22
HETATM   22  O   UNL     1      -7.261   9.016  66.220  1.00  0.00    -0.088 OA 
BRANCH  22  23
HETATM   23  C   UNL     1      -7.698  10.182  66.888  1.00  0.00    -0.103 C  
BRANCH  23  24
HETATM   24  C   UNL     1      -8.053  11.230  65.843  1.00  0.00     0.050 C  
BRANCH  24  25
HETATM   25  N   UNL     1      -9.332  11.819  66.144  1.00  0.00    -0.225 NA 
HETATM   26  C   UNL     1     -10.375  11.904  65.272  1.00  0.00    -0.276 A  
HETATM   27  N   UNL     1     -10.490  11.318  64.069  1.00  0.00    -0.351 NA 
HETATM   28  H2  UNL     1     -12.845  14.912  65.780  1.00  0.00     0.000 HD 
HETATM   29  H1  UNL     1     -14.167  14.297  65.021  1.00  0.00     0.000 HD 
HETATM   30  C   UNL     1      -9.633  12.577  67.243  1.00  0.00    -0.205 A  
HETATM   31  N   UNL     1     -10.796  13.180  67.111  1.00  0.00    -0.255 NA 
HETATM   32  C   UNL     1     -11.258  12.786  65.867  1.00  0.00    -0.300 A  
HETATM   33  C   UNL     1     -12.396  13.131  65.123  1.00  0.00    -0.473 A  
HETATM   34  N   UNL     1     -13.339  14.047  65.562  1.00  0.00    -0.617 NA 
HETATM   35  N   UNL     1     -12.580  12.542  63.917  1.00  0.00    -0.698 NA 
HETATM   36  C   UNL     1     -11.637  11.685  63.466  1.00  0.00    -0.305 A  
ENDBRANCH  24  25
ENDBRANCH  23  24
ENDBRANCH  22  23
ENDBRANCH  11  22
ENDBRANCH   8   9
ENDBRANCH   7   8
ENDBRANCH   5   7
ENDBRANCH   2   5
TORSDOF 12
ENDMDL
MODEL      255
REMARK 921   NORMALIZED FREE ENERGY PREDICTED BY IDOCK:   -3.61 KCAL/MOL
REMARK 922        TOTAL FREE ENERGY PREDICTED BY IDOCK:   -7.74 KCAL/MOL
REMARK 923 INTER-LIGAND FREE ENERGY PREDICTED BY IDOCK:   -7.05 KCAL/MOL
REMARK 924 INTRA-LIGAND FREE ENERGY PREDICTED BY IDOCK:   -0.69 KCAL/MOL
REMARK 927      BINDING AFFINITY PREDICTED BY RF-SCORE:    0.00 PKD
ROOT
HETATM    1  C   UNL     1     -11.512  11.121  65.554  1.00  0.00     0.272 C  
HETATM    2  C   UNL     1     -11.625  12.126  64.392  1.00  0.00    -0.422 C  
HETATM    3  C   UNL     1     -10.558  11.784  63.346  1.00  0.00    -0.479 C  
HETATM    4  C   UNL     1     -13.025  11.992  63.771  1.00  0.00    -0.331 C  
ENDROOT
BRANCH   2   5
HETATM    5  C   UNL     1     -11.447  13.548  64.949  1.00  0.00    -0.334 C  
HETATM    6  O   UNL     1     -11.966  14.539  64.444  1.00  0.00    -0.456 OA 
BRANCH   5   7
HETATM    7  O   UNL     1     -10.577  13.605  65.996  1.00  0.00    -0.282 OA 
BRANCH   7   8
HETATM    8  C   UNL     1     -10.481  14.901  66.617  1.00  0.00    -0.292 C  
BRANCH   8   9
HETATM    9  O   UNL     1      -9.142  15.324  66.857  1.00  0.00    -0.209 OA 
HETATM   10  P   UNL     1      -8.752  15.528  68.424  1.00  0.00    -0.192 P  
HETATM   11  C   UNL     1      -8.911  13.884  69.161  1.00  0.00     0.372 C  
HETATM   12  O   UNL     1      -9.521  16.617  69.101  1.00  0.00    -0.252 OA 
HETATM   13  O   UNL     1      -7.149  15.665  68.469  1.00  0.00    -0.111 OA 
BRANCH  13  14
HETATM   14  C   UNL     1      -6.463  16.828  68.103  1.00  0.00    -0.143 C  
BRANCH  14  15
HETATM   15  O   UNL     1      -7.415  17.896  67.879  1.00  0.00    -0.208 OA 
BRANCH  15  16
HETATM   16  C   UNL     1      -7.422  18.432  66.626  1.00  0.00    -0.229 C  
HETATM   17  O   UNL     1      -7.983  17.919  65.664  1.00  0.00    -0.527 OA 
BRANCH  16  18
HETATM   18  C   UNL     1      -6.633  19.757  66.550  1.00  0.00    -0.203 C  
HETATM   19  C   UNL     1      -5.127  19.454  66.409  1.00  0.00    -0.165 C  
HETATM   20  C   UNL     1      -6.841  20.575  67.831  1.00  0.00    -0.338 C  
HETATM   21  C   UNL     1      -7.067  20.582  65.330  1.00  0.00    -0.118 C  
ENDBRANCH  16  18
ENDBRANCH  15  16
ENDBRANCH  14  15
ENDBRANCH  13  14
BRANCH  11  22
HETATM   22  O   UNL     1      -8.026  13.064  68.393  1.00  0.00    -0.142 OA 
BRANCH  22  23
HETATM   23  C   UNL     1      -7.764  11.815  68.999  1.00  0.00     0.027 C  
BRANCH  23  24
HETATM   24  C   UNL     1      -8.888  10.857  68.632  1.00  0.00    -0.158 C  
BRANCH  24  25
HETATM   25  N   UNL     1      -9.547  10.384  69.821  1.00  0.00    -0.112 NA 
HETATM   26  C   UNL     1      -9.076   9.396  70.632  1.00  0.00    -0.233 A  
HETATM   27  N   UNL     1      -7.866   8.814  70.599  1.00  0.00    -0.094 NA 
HETATM   28  H2  UNL     1     -11.760   7.301  72.584  1.00  0.00     0.000 HD 
HETATM   29  H1  UNL     1     -10.817   6.744  73.811  1.00  0.00     0.000 HD 
HETATM   30  C   UNL     1     -10.830  10.672  70.202  1.00  0.00    -0.157 A  
HETATM   31  N   UNL     1     -11.227   9.897  71.188  1.00  0.00    -0.362 NA 
HETATM   32  C   UNL     1     -10.145   9.074  71.448  1.00  0.00    -0.329 A  
HETATM   33  C   UNL     1      -9.957   8.001  72.331  1.00  0.00    -0.251 A  
HETATM   34  N   UNL     1     -10.954   7.524  73.168  1.00  0.00    -0.392 NA 
HETATM   35  N   UNL     1      -8.743   7.399  72.366  1.00  0.00    -0.118 NA 
HETATM   36  C   UNL     1      -7.785   7.831  71.516  1.00  0.00    -0.086 A  
ENDBRANCH  24  25
ENDBRANCH  23  24
ENDBRANCH  22  23
ENDBRANCH  11  22
ENDBRANCH   8   9
ENDBRANCH   7   8
ENDBRANCH   5   7
ENDBRANCH   2   5
TORSDOF 12
ENDMDL
MODEL      256
REMARK 921   NORMALIZED FREE ENERGY PREDICTED BY IDOCK:   -3.61 KCAL/MOL
REMARK 922        TOTAL FREE ENERGY PREDICTED BY IDOCK:   -7.73 KCAL/MOL
REMARK 923 INTER-LIGAND FREE ENERGY PREDICTED BY IDOCK:   -7.19 KCAL/MOL
REMARK 924 INTRA-LIGAND FREE ENERGY PREDICTED BY IDOCK:   -0.55 KCAL/MOL
REMARK 927      BINDING AFFINITY PREDICTED BY RF-SCORE:    0.00 PKD
ROOT
HETATM    1  C   UNL     1     -11.274  10.785  65.217  1.00  0.00     0.357 C  
HETATM    2  C   UNL     1     -11.133  11.874  64.136  1.00  0.00    -0.441 C  
HETATM    3  C   UNL     1     -10.104  11.404  63.101  1.00  0.00    -0.390 C  
HETATM    4  C   UNL     1     -12.501  12.064  63.461  1.00  0.00    -0.654 C  
ENDROOT
BRANCH   2   5
HETATM    5  C   UNL     1     -10.709  13.189  64.810  1.00  0.00    -0.364 C  
HETATM    6  O   UNL     1     -11.245  14.268  64.577  1.00  0.00    -0.371 OA 
BRANCH   5   7
HETATM    7  O   UNL     1      -9.617  13.048  65.613  1.00  0.00    -0.153 OA 
BRANCH   7   8
HETATM    8  C   UNL     1      -9.612  13.911  66.766  1.00  0.00    -0.283 C  
BRANCH   8   9
HETATM    9  O   UNL     1      -8.463  14.749  66.851  1.00  0.00    -0.225 OA 
HETATM   10  P   UNL     1      -7.656  14.672  68.262  1.00  0.00    -0.146 P  
HETATM   11  C   UNL     1      -7.058  12.968  68.364  1.00  0.00    -0.103 C  
HETATM   12  O   UNL     1      -8.446  15.151  69.437  1.00  0.00    -0.225 OA 
HETATM   13  O   UNL     1      -6.249  15.413  68.010  1.00  0.00    -0.117 OA 
BRANCH  13  14
HETATM   14  C   UNL     1      -6.108  16.803  67.955  1.00  0.00    -0.133 C  
BRANCH  14  15
HETATM   15  O   UNL     1      -7.417  17.415  67.876  1.00  0.00    -0.184 OA 
BRANCH  15  16
HETATM   16  C   UNL     1      -7.625  18.235  66.807  1.00  0.00    -0.222 C  
HETATM   17  O   UNL     1      -7.393  17.918  65.646  1.00  0.00    -0.533 OA 
BRANCH  16  18
HETATM   18  C   UNL     1      -8.177  19.615  67.224  1.00  0.00    -0.331 C  
HETATM   19  C   UNL     1      -8.378  19.650  68.753  1.00  0.00    -0.280 C  
HETATM   20  C   UNL     1      -9.534  19.870  66.555  1.00  0.00    -0.516 C  
HETATM   21  C   UNL     1      -7.194  20.733  66.848  1.00  0.00    -0.337 C  
ENDBRANCH  16  18
ENDBRANCH  15  16
ENDBRANCH  14  15
ENDBRANCH  13  14
BRANCH  11  22
HETATM   22  O   UNL     1      -6.275  12.795  67.180  1.00  0.00    -0.263 OA 
BRANCH  22  23
HETATM   23  C   UNL     1      -5.641  11.534  67.115  1.00  0.00    -0.099 C  
BRANCH  23  24
HETATM   24  C   UNL     1      -5.713  11.032  65.680  1.00  0.00    -0.050 C  
BRANCH  24  25
HETATM   25  N   UNL     1      -6.772  10.067  65.543  1.00  0.00    -0.098 NA 
HETATM   26  C   UNL     1      -7.175   9.209  66.522  1.00  0.00    -0.085 A  
HETATM   27  N   UNL     1      -6.814   9.213  67.816  1.00  0.00    -0.075 NA 
HETATM   28  H2  UNL     1      -8.707   5.794  65.343  1.00  0.00     0.000 HD 
HETATM   29  H1  UNL     1      -9.575   5.417  66.687  1.00  0.00     0.000 HD 
HETATM   30  C   UNL     1      -7.380   9.694  64.375  1.00  0.00    -0.125 A  
HETATM   31  N   UNL     1      -8.121   8.619  64.537  1.00  0.00    -0.154 NA 
HETATM   32  C   UNL     1      -7.979   8.290  65.875  1.00  0.00    -0.097 A  
HETATM   33  C   UNL     1      -8.458   7.223  66.647  1.00  0.00    -0.124 A  
HETATM   34  N   UNL     1      -9.226   6.193  66.125  1.00  0.00    -0.155 NA 
HETATM   35  N   UNL     1      -8.155   7.195  67.968  1.00  0.00    -0.118 NA 
HETATM   36  C   UNL     1      -7.366   8.172  68.469  1.00  0.00    -0.093 A  
ENDBRANCH  24  25
ENDBRANCH  23  24
ENDBRANCH  22  23
ENDBRANCH  11  22
ENDBRANCH   8   9
ENDBRANCH   7   8
ENDBRANCH   5   7
ENDBRANCH   2   5
TORSDOF 12
ENDMDL
MODEL      257
REMARK 921   NORMALIZED FREE ENERGY PREDICTED BY IDOCK:   -3.59 KCAL/MOL
REMARK 922        TOTAL FREE ENERGY PREDICTED BY IDOCK:   -7.70 KCAL/MOL
REMARK 923 INTER-LIGAND FREE ENERGY PREDICTED BY IDOCK:   -6.58 KCAL/MOL
REMARK 924 INTRA-LIGAND FREE ENERGY PREDICTED BY IDOCK:   -1.12 KCAL/MOL
REMARK 927      BINDING AFFINITY PREDICTED BY RF-SCORE:    0.00 PKD
ROOT
HETATM    1  C   UNL     1      -6.210   6.704  64.838  1.00  0.00    -0.038 C  
HETATM    2  C   UNL     1      -6.803   8.019  65.379  1.00  0.00    -0.062 C  
HETATM    3  C   UNL     1      -5.855   8.578  66.446  1.00  0.00    -0.047 C  
HETATM    4  C   UNL     1      -6.919   9.013  64.213  1.00  0.00    -0.090 C  
ENDROOT
BRANCH   2   5
HETATM    5  C   UNL     1      -8.203   7.733  65.947  1.00  0.00    -0.128 C  
HETATM    6  O   UNL     1      -8.438   6.816  66.729  1.00  0.00    -0.113 OA 
BRANCH   5   7
HETATM    7  O   UNL     1      -9.168   8.537  65.418  1.00  0.00    -0.117 OA 
BRANCH   7   8
HETATM    8  C   UNL     1      -9.485   9.690  66.221  1.00  0.00    -0.199 C  
BRANCH   8   9
HETATM    9  O   UNL     1     -10.343   9.404  67.322  1.00  0.00    -0.228 OA 
HETATM   10  P   UNL     1      -9.787   9.887  68.774  1.00  0.00    -0.190 P  
HETATM   11  C   UNL     1      -9.684  11.689  68.657  1.00  0.00    -0.143 C  
HETATM   12  O   UNL     1      -8.532   9.195  69.200  1.00  0.00    -0.126 OA 
HETATM   13  O   UNL     1     -11.033   9.776  69.786  1.00  0.00    -0.237 OA 
BRANCH  13  14
HETATM   14  C   UNL     1     -11.491   8.565  70.316  1.00  0.00    -0.060 C  
BRANCH  14  15
HETATM   15  O   UNL     1     -10.632   8.166  71.411  1.00  0.00    -0.212 OA 
BRANCH  15  16
HETATM   16  C   UNL     1     -10.288   6.847  71.445  1.00  0.00    -0.201 C  
HETATM   17  O   UNL     1     -11.033   5.937  71.100  1.00  0.00    -0.270 OA 
BRANCH  16  18
HETATM   18  C   UNL     1      -8.856   6.628  71.979  1.00  0.00    -0.135 C  
HETATM   19  C   UNL     1      -8.869   5.512  73.045  1.00  0.00    -0.120 C  
HETATM   20  C   UNL     1      -8.329   7.911  72.632  1.00  0.00    -0.198 C  
HETATM   21  C   UNL     1      -7.913   6.193  70.849  1.00  0.00    -0.116 C  
ENDBRANCH  16  18
ENDBRANCH  15  16
ENDBRANCH  14  15
ENDBRANCH  13  14
BRANCH  11  22
HETATM   22  O   UNL     1     -11.012  12.099  68.322  1.00  0.00    -0.209 OA 
BRANCH  22  23
HETATM   23  C   UNL     1     -11.045  13.208  67.448  1.00  0.00    -0.275 C  
BRANCH  23  24
HETATM   24  C   UNL     1     -12.154  14.147  67.902  1.00  0.00    -0.274 C  
BRANCH  24  25
HETATM   25  N   UNL     1     -11.593  15.375  68.401  1.00  0.00    -0.354 NA 
HETATM   26  C   UNL     1     -10.877  16.263  67.656  1.00  0.00    -0.293 A  
HETATM   27  N   UNL     1     -10.712  16.272  66.323  1.00  0.00    -0.239 NA 
HETATM   28  H2  UNL     1      -8.196  18.398  69.570  1.00  0.00     0.000 HD 
HETATM   29  H1  UNL     1      -8.072  19.661  68.525  1.00  0.00     0.000 HD 
HETATM   30  C   UNL     1     -11.484  15.738  69.716  1.00  0.00    -0.349 A  
HETATM   31  N   UNL     1     -10.704  16.788  69.866  1.00  0.00    -0.233 NA 
HETATM   32  C   UNL     1     -10.295  17.109  68.582  1.00  0.00    -0.359 A  
HETATM   33  C   UNL     1      -9.414  18.077  68.080  1.00  0.00    -0.289 A  
HETATM   34  N   UNL     1      -8.712  18.957  68.890  1.00  0.00    -0.279 NA 
HETATM   35  N   UNL     1      -9.238  18.155  66.739  1.00  0.00    -0.271 NA 
HETATM   36  C   UNL     1      -9.884  17.267  65.951  1.00  0.00    -0.126 A  
ENDBRANCH  24  25
ENDBRANCH  23  24
ENDBRANCH  22  23
ENDBRANCH  11  22
ENDBRANCH   8   9
ENDBRANCH   7   8
ENDBRANCH   5   7
ENDBRANCH   2   5
TORSDOF 12
ENDMDL
MODEL      258
REMARK 921   NORMALIZED FREE ENERGY PREDICTED BY IDOCK:   -3.58 KCAL/MOL
REMARK 922        TOTAL FREE ENERGY PREDICTED BY IDOCK:   -7.68 KCAL/MOL
REMARK 923 INTER-LIGAND FREE ENERGY PREDICTED BY IDOCK:   -6.59 KCAL/MOL
REMARK 924 INTRA-LIGAND FREE ENERGY PREDICTED BY IDOCK:   -1.10 KCAL/MOL
REMARK 927      BINDING AFFINITY PREDICTED BY RF-SCORE:    0.00 PKD
ROOT
HETATM    1  C   UNL     1     -12.481  13.022  70.929  1.00  0.00    -0.396 C  
HETATM    2  C   UNL     1     -12.846  14.466  71.326  1.00  0.00    -0.412 C  
HETATM    3  C   UNL     1     -14.369  14.559  71.476  1.00  0.00    -0.501 C  
HETATM    4  C   UNL     1     -12.169  14.784  72.668  1.00  0.00    -0.338 C  
ENDROOT
BRANCH   2   5
HETATM    5  C   UNL     1     -12.316  15.423  70.247  1.00  0.00    -0.388 C  
HETATM    6  O   UNL     1     -12.877  15.600  69.169  1.00  0.00     0.304 OA 
BRANCH   5   7
HETATM    7  O   UNL     1     -11.113  15.976  70.569  1.00  0.00    -0.345 OA 
BRANCH   7   8
HETATM    8  C   UNL     1      -9.985  15.368  69.910  1.00  0.00    -0.216 C  
BRANCH   8   9
HETATM    9  O   UNL     1     -10.160  15.208  68.505  1.00  0.00    -0.218 OA 
HETATM   10  P   UNL     1      -8.831  15.488  67.608  1.00  0.00    -0.188 P  
HETATM   11  C   UNL     1      -7.644  14.225  68.127  1.00  0.00    -0.134 C  
HETATM   12  O   UNL     1      -8.343  16.899  67.676  1.00  0.00    -0.181 OA 
HETATM   13  O   UNL     1      -9.162  14.927  66.136  1.00  0.00    -0.287 OA 
BRANCH  13  14
HETATM   14  C   UNL     1      -9.975  15.599  65.219  1.00  0.00    -0.194 C  
BRANCH  14  15
HETATM   15  O   UNL     1     -11.040  14.719  64.787  1.00  0.00    -0.387 OA 
BRANCH  15  16
HETATM   16  C   UNL     1     -10.676  13.432  64.523  1.00  0.00    -0.419 C  
HETATM   17  O   UNL     1      -9.683  13.121  63.875  1.00  0.00    -0.018 OA 
BRANCH  16  18
HETATM   18  C   UNL     1     -11.663  12.408  65.123  1.00  0.00    -0.430 C  
HETATM   19  C   UNL     1     -12.029  12.825  66.562  1.00  0.00    -0.428 C  
HETATM   20  C   UNL     1     -11.020  11.016  65.175  1.00  0.00    -0.103 C  
HETATM   21  C   UNL     1     -12.959  12.351  64.301  1.00  0.00    -0.257 C  
ENDBRANCH  16  18
ENDBRANCH  15  16
ENDBRANCH  14  15
ENDBRANCH  13  14
BRANCH  11  22
HETATM   22  O   UNL     1      -8.317  12.986  67.886  1.00  0.00    -0.146 OA 
BRANCH  22  23
HETATM   23  C   UNL     1      -7.483  12.009  67.300  1.00  0.00    -0.158 C  
BRANCH  23  24
HETATM   24  C   UNL     1      -8.148  10.649  67.461  1.00  0.00    -0.111 C  
BRANCH  24  25
HETATM   25  N   UNL     1      -7.157   9.605  67.434  1.00  0.00    -0.085 NA 
HETATM   26  C   UNL     1      -7.225   8.487  66.659  1.00  0.00    -0.074 A  
HETATM   27  N   UNL     1      -8.095   8.226  65.668  1.00  0.00    -0.116 NA 
HETATM   28  H2  UNL     1      -5.437   5.280  68.044  1.00  0.00     0.000 HD 
HETATM   29  H1  UNL     1      -5.223   4.467  66.631  1.00  0.00     0.000 HD 
HETATM   30  C   UNL     1      -6.126   9.445  68.320  1.00  0.00    -0.048 A  
HETATM   31  N   UNL     1      -5.552   8.269  68.187  1.00  0.00    -0.034 NA 
HETATM   32  C   UNL     1      -6.251   7.648  67.166  1.00  0.00    -0.053 A  
HETATM   33  C   UNL     1      -6.169   6.368  66.600  1.00  0.00    -0.040 A  
HETATM   34  N   UNL     1      -5.282   5.398  67.043  1.00  0.00    -0.005 NA 
HETATM   35  N   UNL     1      -6.998   6.062  65.573  1.00  0.00    -0.059 NA 
HETATM   36  C   UNL     1      -7.896   6.990  65.171  1.00  0.00    -0.124 A  
ENDBRANCH  24  25
ENDBRANCH  23  24
ENDBRANCH  22  23
ENDBRANCH  11  22
ENDBRANCH   8   9
ENDBRANCH   7   8
ENDBRANCH   5   7
ENDBRANCH   2   5
TORSDOF 12
ENDMDL
MODEL      259
REMARK 921   NORMALIZED FREE ENERGY PREDICTED BY IDOCK:   -3.57 KCAL/MOL
REMARK 922        TOTAL FREE ENERGY PREDICTED BY IDOCK:   -7.67 KCAL/MOL
REMARK 923 INTER-LIGAND FREE ENERGY PREDICTED BY IDOCK:   -6.41 KCAL/MOL
REMARK 924 INTRA-LIGAND FREE ENERGY PREDICTED BY IDOCK:   -1.27 KCAL/MOL
REMARK 927      BINDING AFFINITY PREDICTED BY RF-SCORE:    0.00 PKD
ROOT
HETATM    1  C   UNL     1      -5.406   5.092  70.033  1.00  0.00    -0.004 C  
HETATM    2  C   UNL     1      -6.236   4.282  71.048  1.00  0.00    -0.018 C  
HETATM    3  C   UNL     1      -7.066   3.245  70.282  1.00  0.00    -0.037 C  
HETATM    4  C   UNL     1      -5.267   3.570  72.005  1.00  0.00     0.000 C  
ENDROOT
BRANCH   2   5
HETATM    5  C   UNL     1      -7.122   5.251  71.846  1.00  0.00    -0.079 C  
HETATM    6  O   UNL     1      -6.805   5.708  72.940  1.00  0.00    -0.071 OA 
BRANCH   5   7
HETATM    7  O   UNL     1      -8.334   5.469  71.263  1.00  0.00    -0.122 OA 
BRANCH   7   8
HETATM    8  C   UNL     1      -8.838   6.809  71.424  1.00  0.00    -0.131 C  
BRANCH   8   9
HETATM    9  O   UNL     1      -8.952   7.530  70.200  1.00  0.00    -0.146 OA 
HETATM   10  P   UNL     1     -10.407   7.439  69.477  1.00  0.00    -0.222 P  
HETATM   11  C   UNL     1     -11.554   8.216  70.640  1.00  0.00    -0.194 C  
HETATM   12  O   UNL     1     -10.775   6.060  69.032  1.00  0.00    -0.258 OA 
HETATM   13  O   UNL     1     -10.408   8.573  68.335  1.00  0.00    -0.206 OA 
BRANCH  13  14
HETATM   14  C   UNL     1      -9.744   8.436  67.112  1.00  0.00    -0.190 C  
BRANCH  14  15
HETATM   15  O   UNL     1      -9.852   9.672  66.366  1.00  0.00    -0.208 OA 
BRANCH  15  16
HETATM   16  C   UNL     1      -9.424   9.624  65.072  1.00  0.00    -0.245 C  
HETATM   17  O   UNL     1      -8.877   8.649  64.568  1.00  0.00    -0.075 OA 
BRANCH  16  18
HETATM   18  C   UNL     1      -9.696  10.941  64.315  1.00  0.00    -0.347 C  
HETATM   19  C   UNL     1      -9.206  10.809  62.858  1.00  0.00    -0.336 C  
HETATM   20  C   UNL     1      -8.938  12.100  64.974  1.00  0.00     0.637 C  
HETATM   21  C   UNL     1     -11.199  11.253  64.284  1.00  0.00    -0.214 C  
ENDBRANCH  16  18
ENDBRANCH  15  16
ENDBRANCH  14  15
ENDBRANCH  13  14
BRANCH  11  22
HETATM   22  O   UNL     1     -11.027   9.531  70.833  1.00  0.00    -0.281 OA 
BRANCH  22  23
HETATM   23  C   UNL     1     -12.031  10.517  70.954  1.00  0.00    -0.377 C  
BRANCH  23  24
HETATM   24  C   UNL     1     -12.267  11.137  69.583  1.00  0.00    -0.290 C  
BRANCH  24  25
HETATM   25  N   UNL     1     -12.216  12.572  69.671  1.00  0.00    -0.167 NA 
HETATM   26  C   UNL     1     -11.764  13.397  68.686  1.00  0.00    -0.349 A  
HETATM   27  N   UNL     1     -11.462  13.074  67.418  1.00  0.00    -0.312 NA 
HETATM   28  H2  UNL     1     -10.204  16.811  69.835  1.00  0.00     0.000 HD 
HETATM   29  H1  UNL     1     -10.398  17.669  68.446  1.00  0.00     0.000 HD 
HETATM   30  C   UNL     1     -12.388  13.319  70.805  1.00  0.00    -0.344 A  
HETATM   31  N   UNL     1     -12.033  14.572  70.618  1.00  0.00    -0.301 NA 
HETATM   32  C   UNL     1     -11.614  14.627  69.300  1.00  0.00    -0.302 A  
HETATM   33  C   UNL     1     -11.063  15.654  68.520  1.00  0.00    -0.322 A  
HETATM   34  N   UNL     1     -10.799  16.922  69.013  1.00  0.00    -0.295 NA 
HETATM   35  N   UNL     1     -10.771  15.392  67.222  1.00  0.00    -0.302 NA 
HETATM   36  C   UNL     1     -10.984  14.142  66.753  1.00  0.00    -0.300 A  
ENDBRANCH  24  25
ENDBRANCH  23  24
ENDBRANCH  22  23
ENDBRANCH  11  22
ENDBRANCH   8   9
ENDBRANCH   7   8
ENDBRANCH   5   7
ENDBRANCH   2   5
TORSDOF 12
ENDMDL
MODEL      260
REMARK 921   NORMALIZED FREE ENERGY PREDICTED BY IDOCK:   -3.57 KCAL/MOL
REMARK 922        TOTAL FREE ENERGY PREDICTED BY IDOCK:   -7.67 KCAL/MOL
REMARK 923 INTER-LIGAND FREE ENERGY PREDICTED BY IDOCK:   -7.05 KCAL/MOL
REMARK 924 INTRA-LIGAND FREE ENERGY PREDICTED BY IDOCK:   -0.61 KCAL/MOL
REMARK 927      BINDING AFFINITY PREDICTED BY RF-SCORE:    0.00 PKD
ROOT
HETATM    1  C   UNL     1      -7.010   4.278  72.871  1.00  0.00    -0.062 C  
HETATM    2  C   UNL     1      -8.212   3.323  72.735  1.00  0.00    -0.080 C  
HETATM    3  C   UNL     1      -7.972   2.408  71.528  1.00  0.00    -0.047 C  
HETATM    4  C   UNL     1      -8.307   2.481  74.017  1.00  0.00    -0.067 C  
ENDROOT
BRANCH   2   5
HETATM    5  C   UNL     1      -9.492   4.158  72.576  1.00  0.00    -0.130 C  
HETATM    6  O   UNL     1     -10.371   3.895  71.761  1.00  0.00    -0.100 OA 
BRANCH   5   7
HETATM    7  O   UNL     1      -9.502   5.273  73.360  1.00  0.00    -0.137 OA 
BRANCH   7   8
HETATM    8  C   UNL     1      -9.600   6.511  72.631  1.00  0.00    -0.150 C  
BRANCH   8   9
HETATM    9  O   UNL     1      -9.568   6.348  71.216  1.00  0.00    -0.169 OA 
HETATM   10  P   UNL     1     -10.758   7.108  70.407  1.00  0.00    -0.249 P  
HETATM   11  C   UNL     1     -10.489   8.868  70.728  1.00  0.00    -0.227 C  
HETATM   12  O   UNL     1     -12.126   6.595  70.723  1.00  0.00    -0.385 OA 
HETATM   13  O   UNL     1     -10.333   7.072  68.855  1.00  0.00    -0.178 OA 
BRANCH  13  14
HETATM   14  C   UNL     1     -10.452   5.935  68.049  1.00  0.00    -0.234 C  
BRANCH  14  15
HETATM   15  O   UNL     1      -9.187   5.677  67.394  1.00  0.00    -0.111 OA 
BRANCH  15  16
HETATM   16  C   UNL     1      -9.089   4.484  66.741  1.00  0.00    -0.124 C  
HETATM   17  O   UNL     1      -9.470   3.416  67.207  1.00  0.00    -0.203 OA 
BRANCH  16  18
HETATM   18  C   UNL     1      -8.434   4.627  65.351  1.00  0.00    -0.126 C  
HETATM   19  C   UNL     1      -7.933   6.074  65.163  1.00  0.00    -0.123 C  
HETATM   20  C   UNL     1      -9.456   4.326  64.247  1.00  0.00    -0.141 C  
HETATM   21  C   UNL     1      -7.229   3.686  65.215  1.00  0.00    -0.067 C  
ENDBRANCH  16  18
ENDBRANCH  15  16
ENDBRANCH  14  15
ENDBRANCH  13  14
BRANCH  11  22
HETATM   22  O   UNL     1      -9.158   9.113  70.267  1.00  0.00    -0.180 OA 
BRANCH  22  23
HETATM   23  C   UNL     1      -9.097  10.082  69.242  1.00  0.00    -0.200 C  
BRANCH  23  24
HETATM   24  C   UNL     1     -10.510  10.574  68.960  1.00  0.00    -0.217 C  
BRANCH  24  25
HETATM   25  N   UNL     1     -10.618  11.022  67.596  1.00  0.00    -0.203 NA 
HETATM   26  C   UNL     1     -11.185  12.197  67.205  1.00  0.00    -0.306 A  
HETATM   27  N   UNL     1     -11.576  13.219  67.984  1.00  0.00    -0.314 NA 
HETATM   28  H2  UNL     1     -12.797  12.262  63.627  1.00  0.00     0.000 HD 
HETATM   29  H1  UNL     1     -12.756  13.882  63.350  1.00  0.00     0.000 HD 
HETATM   30  C   UNL     1     -10.387  10.269  66.477  1.00  0.00    -0.211 A  
HETATM   31  N   UNL     1     -10.811  10.875  65.389  1.00  0.00    -0.112 NA 
HETATM   32  C   UNL     1     -11.339  12.074  65.837  1.00  0.00    -0.337 A  
HETATM   33  C   UNL     1     -11.998  13.125  65.183  1.00  0.00    -0.394 A  
HETATM   34  N   UNL     1     -12.277  13.117  63.825  1.00  0.00    -0.632 NA 
HETATM   35  N   UNL     1     -12.383  14.199  65.915  1.00  0.00    -0.465 NA 
HETATM   36  C   UNL     1     -12.154  14.187  67.247  1.00  0.00    -0.372 A  
ENDBRANCH  24  25
ENDBRANCH  23  24
ENDBRANCH  22  23
ENDBRANCH  11  22
ENDBRANCH   8   9
ENDBRANCH   7   8
ENDBRANCH   5   7
ENDBRANCH   2   5
TORSDOF 12
ENDMDL
MODEL      261
REMARK 921   NORMALIZED FREE ENERGY PREDICTED BY IDOCK:   -3.49 KCAL/MOL
REMARK 922        TOTAL FREE ENERGY PREDICTED BY IDOCK:   -7.53 KCAL/MOL
REMARK 923 INTER-LIGAND FREE ENERGY PREDICTED BY IDOCK:   -6.15 KCAL/MOL
REMARK 924 INTRA-LIGAND FREE ENERGY PREDICTED BY IDOCK:   -1.38 KCAL/MOL
REMARK 927      BINDING AFFINITY PREDICTED BY RF-SCORE:    0.00 PKD
ROOT
HETATM    1  C   UNL     1      -5.410   2.506  70.793  1.00  0.00    -0.004 C  
HETATM    2  C   UNL     1      -6.346   3.711  70.576  1.00  0.00    -0.027 C  
HETATM    3  C   UNL     1      -7.581   3.534  71.469  1.00  0.00    -0.052 C  
HETATM    4  C   UNL     1      -5.592   4.988  70.978  1.00  0.00    -0.012 C  
ENDROOT
BRANCH   2   5
HETATM    5  C   UNL     1      -6.720   3.785  69.088  1.00  0.00    -0.045 C  
HETATM    6  O   UNL     1      -6.588   2.843  68.312  1.00  0.00    -0.035 OA 
BRANCH   5   7
HETATM    7  O   UNL     1      -7.117   5.030  68.699  1.00  0.00    -0.055 OA 
BRANCH   7   8
HETATM    8  C   UNL     1      -8.544   5.195  68.602  1.00  0.00    -0.087 C  
BRANCH   8   9
HETATM    9  O   UNL     1      -8.943   6.484  68.146  1.00  0.00    -0.119 OA 
HETATM   10  P   UNL     1     -10.504   6.607  67.703  1.00  0.00    -0.307 P  
HETATM   11  C   UNL     1     -11.444   6.283  69.214  1.00  0.00    -0.218 C  
HETATM   12  O   UNL     1     -10.865   5.763  66.523  1.00  0.00    -0.276 OA 
HETATM   13  O   UNL     1     -10.803   8.183  67.560  1.00  0.00    -0.194 OA 
BRANCH  13  14
HETATM   14  C   UNL     1     -10.387   8.951  66.467  1.00  0.00    -0.197 C  
BRANCH  14  15
HETATM   15  O   UNL     1     -11.009  10.256  66.534  1.00  0.00    -0.067 OA 
BRANCH  15  16
HETATM   16  C   UNL     1     -10.307  11.278  65.968  1.00  0.00    -0.252 C  
HETATM   17  O   UNL     1      -9.249  11.131  65.366  1.00  0.00    -0.210 OA 
BRANCH  16  18
HETATM   18  C   UNL     1     -10.989  12.647  66.179  1.00  0.00    -0.313 C  
HETATM   19  C   UNL     1     -11.516  12.744  67.625  1.00  0.00    -0.387 C  
HETATM   20  C   UNL     1     -12.177  12.803  65.222  1.00  0.00    -0.535 C  
HETATM   21  C   UNL     1      -9.991  13.794  65.960  1.00  0.00    -0.319 C  
ENDBRANCH  16  18
ENDBRANCH  15  16
ENDBRANCH  14  15
ENDBRANCH  13  14
BRANCH  11  22
HETATM   22  O   UNL     1     -10.974   7.263  70.142  1.00  0.00    -0.251 OA 
BRANCH  22  23
HETATM   23  C   UNL     1     -11.962   7.669  71.066  1.00  0.00    -0.273 C  
BRANCH  23  24
HETATM   24  C   UNL     1     -11.443   8.882  71.825  1.00  0.00    -0.353 C  
BRANCH  24  25
HETATM   25  N   UNL     1     -10.004   8.867  71.862  1.00  0.00    -0.338 NA 
HETATM   26  C   UNL     1      -9.195   9.406  70.908  1.00  0.00    -0.173 A  
HETATM   27  N   UNL     1      -9.550  10.191  69.878  1.00  0.00    -0.186 NA 
HETATM   28  H2  UNL     1      -5.669   7.743  70.454  1.00  0.00     0.000 HD 
HETATM   29  H1  UNL     1      -4.873   9.000  69.754  1.00  0.00     0.000 HD 
HETATM   30  C   UNL     1      -9.225   8.131  72.714  1.00  0.00    -0.271 A  
HETATM   31  N   UNL     1      -7.964   8.131  72.339  1.00  0.00    -0.128 NA 
HETATM   32  C   UNL     1      -7.937   8.906  71.191  1.00  0.00    -0.144 A  
HETATM   33  C   UNL     1      -6.915   9.235  70.290  1.00  0.00    -0.076 A  
HETATM   34  N   UNL     1      -5.617   8.760  70.410  1.00  0.00    -0.027 NA 
HETATM   35  N   UNL     1      -7.209  10.054  69.251  1.00  0.00    -0.070 NA 
HETATM   36  C   UNL     1      -8.484  10.478  69.106  1.00  0.00    -0.147 A  
ENDBRANCH  24  25
ENDBRANCH  23  24
ENDBRANCH  22  23
ENDBRANCH  11  22
ENDBRANCH   8   9
ENDBRANCH   7   8
ENDBRANCH   5   7
ENDBRANCH   2   5
TORSDOF 12
ENDMDL
MODEL      262
REMARK 921   NORMALIZED FREE ENERGY PREDICTED BY IDOCK:   -3.48 KCAL/MOL
REMARK 922        TOTAL FREE ENERGY PREDICTED BY IDOCK:   -7.52 KCAL/MOL
REMARK 923 INTER-LIGAND FREE ENERGY PREDICTED BY IDOCK:   -6.28 KCAL/MOL
REMARK 924 INTRA-LIGAND FREE ENERGY PREDICTED BY IDOCK:   -1.24 KCAL/MOL
REMARK 927      BINDING AFFINITY PREDICTED BY RF-SCORE:    0.00 PKD
ROOT
HETATM    1  C   UNL     1     -10.699  12.267  63.335  1.00  0.00    -0.438 C  
HETATM    2  C   UNL     1     -11.587  13.059  64.315  1.00  0.00    -0.437 C  
HETATM    3  C   UNL     1     -11.621  14.525  63.867  1.00  0.00     0.173 C  
HETATM    4  C   UNL     1     -13.004  12.467  64.269  1.00  0.00    -0.257 C  
ENDROOT
BRANCH   2   5
HETATM    5  C   UNL     1     -11.015  12.905  65.734  1.00  0.00    -0.278 C  
HETATM    6  O   UNL     1      -9.956  13.412  66.091  1.00  0.00    -0.284 OA 
BRANCH   5   7
HETATM    7  O   UNL     1     -11.752  12.070  66.518  1.00  0.00    -0.523 OA 
BRANCH   7   8
HETATM    8  C   UNL     1     -11.145  10.785  66.752  1.00  0.00    -0.082 C  
BRANCH   8   9
HETATM    9  O   UNL     1     -10.789  10.557  68.112  1.00  0.00    -0.214 OA 
HETATM   10  P   UNL     1      -9.751   9.328  68.358  1.00  0.00    -0.162 P  
HETATM   11  C   UNL     1      -8.234   9.824  67.506  1.00  0.00    -0.114 C  
HETATM   12  O   UNL     1     -10.297   7.990  67.976  1.00  0.00    -0.202 OA 
HETATM   13  O   UNL     1      -9.240   9.474  69.877  1.00  0.00    -0.187 OA 
BRANCH  13  14
HETATM   14  C   UNL     1     -10.007   9.104  70.987  1.00  0.00    -0.297 C  
BRANCH  14  15
HETATM   15  O   UNL     1      -9.316   8.067  71.723  1.00  0.00    -0.145 OA 
BRANCH  15  16
HETATM   16  C   UNL     1      -9.726   6.791  71.477  1.00  0.00    -0.163 C  
HETATM   17  O   UNL     1     -10.895   6.424  71.536  1.00  0.00    -0.237 OA 
BRANCH  16  18
HETATM   18  C   UNL     1      -8.551   5.853  71.124  1.00  0.00    -0.129 C  
HETATM   19  C   UNL     1      -7.775   6.429  69.922  1.00  0.00    -0.109 C  
HETATM   20  C   UNL     1      -9.075   4.464  70.738  1.00  0.00    -0.182 C  
HETATM   21  C   UNL     1      -7.576   5.732  72.304  1.00  0.00    -0.101 C  
ENDBRANCH  16  18
ENDBRANCH  15  16
ENDBRANCH  14  15
ENDBRANCH  13  14
BRANCH  11  22
HETATM   22  O   UNL     1      -7.883  11.074  68.105  1.00  0.00    -0.106 OA 
BRANCH  22  23
HETATM   23  C   UNL     1      -6.565  11.094  68.613  1.00  0.00    -0.059 C  
BRANCH  23  24
HETATM   24  C   UNL     1      -5.865  12.338  68.084  1.00  0.00    -0.059 C  
BRANCH  24  25
HETATM   25  N   UNL     1      -5.985  13.417  69.029  1.00  0.00    -0.078 NA 
HETATM   26  C   UNL     1      -5.738  14.727  68.751  1.00  0.00    -0.086 A  
HETATM   27  N   UNL     1      -5.523  15.285  67.548  1.00  0.00    -0.336 NA 
HETATM   28  H2  UNL     1      -4.512  16.954  71.740  1.00  0.00     0.000 HD 
HETATM   29  H1  UNL     1      -4.945  18.431  71.163  1.00  0.00     0.000 HD 
HETATM   30  C   UNL     1      -6.137  13.291  70.383  1.00  0.00    -0.064 A  
HETATM   31  N   UNL     1      -5.961  14.441  70.999  1.00  0.00    -0.191 NA 
HETATM   32  C   UNL     1      -5.684  15.344  69.987  1.00  0.00    -0.137 A  
HETATM   33  C   UNL     1      -5.343  16.704  69.994  1.00  0.00    -0.187 A  
HETATM   34  N   UNL     1      -5.192  17.442  71.158  1.00  0.00    -0.333 NA 
HETATM   35  N   UNL     1      -5.150  17.327  68.806  1.00  0.00    -0.143 NA 
HETATM   36  C   UNL     1      -5.250  16.598  67.672  1.00  0.00    -0.131 A  
ENDBRANCH  24  25
ENDBRANCH  23  24
ENDBRANCH  22  23
ENDBRANCH  11  22
ENDBRANCH   8   9
ENDBRANCH   7   8
ENDBRANCH   5   7
ENDBRANCH   2   5
TORSDOF 12
ENDMDL
MODEL      263
REMARK 921   NORMALIZED FREE ENERGY PREDICTED BY IDOCK:   -3.47 KCAL/MOL
REMARK 922        TOTAL FREE ENERGY PREDICTED BY IDOCK:   -7.49 KCAL/MOL
REMARK 923 INTER-LIGAND FREE ENERGY PREDICTED BY IDOCK:   -6.05 KCAL/MOL
REMARK 924 INTRA-LIGAND FREE ENERGY PREDICTED BY IDOCK:   -1.44 KCAL/MOL
REMARK 927      BINDING AFFINITY PREDICTED BY RF-SCORE:    0.00 PKD
ROOT
HETATM    1  C   UNL     1     -10.293  13.835  65.510  1.00  0.00    -0.333 C  
HETATM    2  C   UNL     1     -11.262  12.816  64.881  1.00  0.00    -0.331 C  
HETATM    3  C   UNL     1     -12.264  12.370  65.953  1.00  0.00    -0.220 C  
HETATM    4  C   UNL     1     -12.007  13.505  63.727  1.00  0.00    -0.475 C  
ENDROOT
BRANCH   2   5
HETATM    5  C   UNL     1     -10.448  11.634  64.330  1.00  0.00    -0.331 C  
HETATM    6  O   UNL     1     -10.115  11.537  63.152  1.00  0.00    -0.363 OA 
BRANCH   5   7
HETATM    7  O   UNL     1     -10.223  10.662  65.258  1.00  0.00    -0.282 OA 
BRANCH   7   8
HETATM    8  C   UNL     1      -9.042   9.874  65.017  1.00  0.00    -0.218 C  
BRANCH   8   9
HETATM    9  O   UNL     1      -9.194   8.497  65.349  1.00  0.00    -0.117 OA 
HETATM   10  P   UNL     1      -7.837   7.605  65.237  1.00  0.00    -0.134 P  
HETATM   11  C   UNL     1      -6.715   8.310  66.470  1.00  0.00    -0.063 C  
HETATM   12  O   UNL     1      -7.291   7.507  63.849  1.00  0.00    -0.079 OA 
HETATM   13  O   UNL     1      -8.161   6.208  65.968  1.00  0.00    -0.115 OA 
BRANCH  13  14
HETATM   14  C   UNL     1      -8.927   5.193  65.387  1.00  0.00    -0.156 C  
BRANCH  14  15
HETATM   15  O   UNL     1      -9.945   4.765  66.322  1.00  0.00    -0.192 OA 
BRANCH  15  16
HETATM   16  C   UNL     1      -9.734   5.103  67.626  1.00  0.00    -0.148 C  
HETATM   17  O   UNL     1     -10.132   6.144  68.136  1.00  0.00    -0.137 OA 
BRANCH  16  18
HETATM   18  C   UNL     1      -8.926   4.030  68.387  1.00  0.00    -0.159 C  
HETATM   19  C   UNL     1      -9.654   3.670  69.699  1.00  0.00    -0.211 C  
HETATM   20  C   UNL     1      -7.533   4.563  68.741  1.00  0.00    -0.060 C  
HETATM   21  C   UNL     1      -8.796   2.748  67.550  1.00  0.00    -0.164 C  
ENDBRANCH  16  18
ENDBRANCH  15  16
ENDBRANCH  14  15
ENDBRANCH  13  14
BRANCH  11  22
HETATM   22  O   UNL     1      -7.435   8.211  67.701  1.00  0.00    -0.091 OA 
BRANCH  22  23
HETATM   23  C   UNL     1      -7.105   9.235  68.617  1.00  0.00    -0.070 C  
BRANCH  23  24
HETATM   24  C   UNL     1      -6.835   8.598  69.974  1.00  0.00    -0.042 C  
BRANCH  24  25
HETATM   25  N   UNL     1      -8.075   8.355  70.664  1.00  0.00    -0.106 NA 
HETATM   26  C   UNL     1      -8.330   7.270  71.448  1.00  0.00    -0.110 A  
HETATM   27  N   UNL     1      -7.458   6.340  71.872  1.00  0.00    -0.093 NA 
HETATM   28  H2  UNL     1     -12.073   6.115  71.681  1.00  0.00     0.000 HD 
HETATM   29  H1  UNL     1     -12.007   5.293  73.103  1.00  0.00     0.000 HD 
HETATM   30  C   UNL     1      -9.251   9.028  70.474  1.00  0.00    -0.220 A  
HETATM   31  N   UNL     1     -10.259   8.415  71.058  1.00  0.00    -0.193 NA 
HETATM   32  C   UNL     1      -9.697   7.296  71.649  1.00  0.00    -0.154 A  
HETATM   33  C   UNL     1     -10.247   6.219  72.358  1.00  0.00    -0.187 A  
HETATM   34  N   UNL     1     -11.607   6.077  72.587  1.00  0.00    -0.259 NA 
HETATM   35  N   UNL     1      -9.409   5.269  72.840  1.00  0.00    -0.137 NA 
HETATM   36  C   UNL     1      -8.088   5.381  72.576  1.00  0.00    -0.103 A  
ENDBRANCH  24  25
ENDBRANCH  23  24
ENDBRANCH  22  23
ENDBRANCH  11  22
ENDBRANCH   8   9
ENDBRANCH   7   8
ENDBRANCH   5   7
ENDBRANCH   2   5
TORSDOF 12
ENDMDL
MODEL      264
REMARK 921   NORMALIZED FREE ENERGY PREDICTED BY IDOCK:   -3.46 KCAL/MOL
REMARK 922        TOTAL FREE ENERGY PREDICTED BY IDOCK:   -7.49 KCAL/MOL
REMARK 923 INTER-LIGAND FREE ENERGY PREDICTED BY IDOCK:   -6.48 KCAL/MOL
REMARK 924 INTRA-LIGAND FREE ENERGY PREDICTED BY IDOCK:   -1.01 KCAL/MOL
REMARK 927      BINDING AFFINITY PREDICTED BY RF-SCORE:    0.00 PKD
ROOT
HETATM    1  C   UNL     1      -8.424   4.658  64.377  1.00  0.00    -0.130 C  
HETATM    2  C   UNL     1      -7.352   4.293  65.423  1.00  0.00    -0.073 C  
HETATM    3  C   UNL     1      -7.824   3.054  66.193  1.00  0.00    -0.081 C  
HETATM    4  C   UNL     1      -6.042   3.980  64.683  1.00  0.00    -0.023 C  
ENDROOT
BRANCH   2   5
HETATM    5  C   UNL     1      -7.138   5.499  66.352  1.00  0.00    -0.069 C  
HETATM    6  O   UNL     1      -6.802   6.609  65.949  1.00  0.00    -0.050 OA 
BRANCH   5   7
HETATM    7  O   UNL     1      -7.262   5.183  67.672  1.00  0.00    -0.066 OA 
BRANCH   7   8
HETATM    8  C   UNL     1      -8.559   5.462  68.231  1.00  0.00    -0.096 C  
BRANCH   8   9
HETATM    9  O   UNL     1      -8.996   6.803  68.027  1.00  0.00    -0.120 OA 
HETATM   10  P   UNL     1     -10.580   6.970  67.691  1.00  0.00    -0.265 P  
HETATM   11  C   UNL     1     -11.434   6.370  69.168  1.00  0.00    -0.190 C  
HETATM   12  O   UNL     1     -10.994   6.335  66.403  1.00  0.00    -0.124 OA 
HETATM   13  O   UNL     1     -10.902   8.540  67.839  1.00  0.00    -0.125 OA 
BRANCH  13  14
HETATM   14  C   UNL     1     -10.554   9.493  66.877  1.00  0.00    -0.171 C  
BRANCH  14  15
HETATM   15  O   UNL     1     -11.360  10.681  67.064  1.00  0.00    -0.308 OA 
BRANCH  15  16
HETATM   16  C   UNL     1     -10.671  11.837  67.282  1.00  0.00    -0.237 C  
HETATM   17  O   UNL     1      -9.722  11.934  68.052  1.00  0.00    -0.180 OA 
BRANCH  16  18
HETATM   18  C   UNL     1     -11.227  13.016  66.455  1.00  0.00    -0.332 C  
HETATM   19  C   UNL     1     -10.079  13.683  65.670  1.00  0.00    -0.299 C  
HETATM   20  C   UNL     1     -11.852  14.068  67.380  1.00  0.00    -0.445 C  
HETATM   21  C   UNL     1     -12.273  12.528  65.442  1.00  0.00    -0.475 C  
ENDBRANCH  16  18
ENDBRANCH  15  16
ENDBRANCH  14  15
ENDBRANCH  13  14
BRANCH  11  22
HETATM   22  O   UNL     1     -10.925   7.185  70.227  1.00  0.00    -0.248 OA 
BRANCH  22  23
HETATM   23  C   UNL     1     -11.922   7.586  71.144  1.00  0.00    -0.308 C  
BRANCH  23  24
HETATM   24  C   UNL     1     -11.243   8.245  72.337  1.00  0.00    -0.381 C  
BRANCH  24  25
HETATM   25  N   UNL     1     -10.474   7.274  73.070  1.00  0.00    -0.275 NA 
HETATM   26  C   UNL     1      -9.141   7.372  73.329  1.00  0.00    -0.174 A  
HETATM   27  N   UNL     1      -8.340   8.431  73.128  1.00  0.00    -0.363 NA 
HETATM   28  H2  UNL     1      -7.181   3.996  73.734  1.00  0.00     0.000 HD 
HETATM   29  H1  UNL     1      -5.899   4.539  74.609  1.00  0.00     0.000 HD 
HETATM   30  C   UNL     1     -10.885   6.017  73.422  1.00  0.00    -0.231 A  
HETATM   31  N   UNL     1      -9.882   5.284  73.856  1.00  0.00    -0.158 NA 
HETATM   32  C   UNL     1      -8.777   6.115  73.776  1.00  0.00    -0.123 A  
HETATM   33  C   UNL     1      -7.414   5.910  74.029  1.00  0.00    -0.092 A  
HETATM   34  N   UNL     1      -6.891   4.688  74.425  1.00  0.00    -0.066 NA 
HETATM   35  N   UNL     1      -6.565   6.955  73.876  1.00  0.00    -0.071 NA 
HETATM   36  C   UNL     1      -7.065   8.134  73.443  1.00  0.00    -0.131 A  
ENDBRANCH  24  25
ENDBRANCH  23  24
ENDBRANCH  22  23
ENDBRANCH  11  22
ENDBRANCH   8   9
ENDBRANCH   7   8
ENDBRANCH   5   7
ENDBRANCH   2   5
TORSDOF 12
ENDMDL
MODEL      265
REMARK 921   NORMALIZED FREE ENERGY PREDICTED BY IDOCK:   -3.44 KCAL/MOL
REMARK 922        TOTAL FREE ENERGY PREDICTED BY IDOCK:   -7.44 KCAL/MOL
REMARK 923 INTER-LIGAND FREE ENERGY PREDICTED BY IDOCK:   -6.74 KCAL/MOL
REMARK 924 INTRA-LIGAND FREE ENERGY PREDICTED BY IDOCK:   -0.70 KCAL/MOL
REMARK 927      BINDING AFFINITY PREDICTED BY RF-SCORE:    0.00 PKD
ROOT
HETATM    1  C   UNL     1     -11.117  17.450  67.882  1.00  0.00    -0.014 C  
HETATM    2  C   UNL     1     -10.022  17.199  66.827  1.00  0.00    -0.291 C  
HETATM    3  C   UNL     1     -10.684  17.125  65.446  1.00  0.00    -0.097 C  
HETATM    4  C   UNL     1      -9.033  18.375  66.868  1.00  0.00    -0.280 C  
ENDROOT
BRANCH   2   5
HETATM    5  C   UNL     1      -9.284  15.898  67.180  1.00  0.00    -0.209 C  
HETATM    6  O   UNL     1      -8.284  15.863  67.892  1.00  0.00    -0.142 OA 
BRANCH   5   7
HETATM    7  O   UNL     1      -9.792  14.807  66.542  1.00  0.00    -0.250 OA 
BRANCH   7   8
HETATM    8  C   UNL     1      -9.018  13.604  66.715  1.00  0.00    -0.181 C  
BRANCH   8   9
HETATM    9  O   UNL     1      -9.676  12.604  67.487  1.00  0.00    -0.190 OA 
HETATM   10  P   UNL     1     -11.203  12.273  67.031  1.00  0.00    -0.349 P  
HETATM   11  C   UNL     1     -11.054  11.612  65.354  1.00  0.00    -0.239 C  
HETATM   12  O   UNL     1     -12.144  13.423  67.191  1.00  0.00    -0.368 OA 
HETATM   13  O   UNL     1     -11.611  10.916  67.796  1.00  0.00    -0.523 OA 
BRANCH  13  14
HETATM   14  C   UNL     1     -11.959  10.869  69.150  1.00  0.00    -0.288 C  
BRANCH  14  15
HETATM   15  O   UNL     1     -10.944  10.141  69.881  1.00  0.00    -0.252 OA 
BRANCH  15  16
HETATM   16  C   UNL     1     -11.402   9.281  70.834  1.00  0.00    -0.308 C  
HETATM   17  O   UNL     1     -12.188   9.596  71.720  1.00  0.00    -0.374 OA 
BRANCH  16  18
HETATM   18  C   UNL     1     -10.810   7.863  70.679  1.00  0.00    -0.238 C  
HETATM   19  C   UNL     1      -9.446   7.793  71.396  1.00  0.00    -0.173 C  
HETATM   20  C   UNL     1     -10.592   7.537  69.196  1.00  0.00    -0.204 C  
HETATM   21  C   UNL     1     -11.734   6.813  71.313  1.00  0.00    -0.384 C  
ENDBRANCH  16  18
ENDBRANCH  15  16
ENDBRANCH  14  15
ENDBRANCH  13  14
BRANCH  11  22
HETATM   22  O   UNL     1     -10.180  10.489  65.491  1.00  0.00    -0.272 OA 
BRANCH  22  23
HETATM   23  C   UNL     1      -9.133  10.484  64.543  1.00  0.00    -0.222 C  
BRANCH  23  24
HETATM   24  C   UNL     1      -7.808  10.402  65.288  1.00  0.00    -0.137 C  
BRANCH  24  25
HETATM   25  N   UNL     1      -7.461   9.027  65.536  1.00  0.00    -0.085 NA 
HETATM   26  C   UNL     1      -7.698   7.997  64.677  1.00  0.00    -0.126 A  
HETATM   27  N   UNL     1      -8.112   8.071  63.401  1.00  0.00    -0.136 NA 
HETATM   28  H2  UNL     1      -8.231   4.457  66.285  1.00  0.00     0.000 HD 
HETATM   29  H1  UNL     1      -7.849   3.520  64.989  1.00  0.00     0.000 HD 
HETATM   30  C   UNL     1      -7.060   8.498  66.733  1.00  0.00    -0.074 A  
HETATM   31  N   UNL     1      -7.064   7.183  66.706  1.00  0.00    -0.076 NA 
HETATM   32  C   UNL     1      -7.488   6.857  65.429  1.00  0.00    -0.088 A  
HETATM   33  C   UNL     1      -7.759   5.633  64.802  1.00  0.00    -0.101 A  
HETATM   34  N   UNL     1      -7.653   4.410  65.446  1.00  0.00    -0.084 NA 
HETATM   35  N   UNL     1      -8.147   5.646  63.503  1.00  0.00    -0.115 NA 
HETATM   36  C   UNL     1      -8.298   6.840  62.887  1.00  0.00     0.125 A  
ENDBRANCH  24  25
ENDBRANCH  23  24
ENDBRANCH  22  23
ENDBRANCH  11  22
ENDBRANCH   8   9
ENDBRANCH   7   8
ENDBRANCH   5   7
ENDBRANCH   2   5
TORSDOF 12
ENDMDL
MODEL      266
REMARK 921   NORMALIZED FREE ENERGY PREDICTED BY IDOCK:   -3.43 KCAL/MOL
REMARK 922        TOTAL FREE ENERGY PREDICTED BY IDOCK:   -7.43 KCAL/MOL
REMARK 923 INTER-LIGAND FREE ENERGY PREDICTED BY IDOCK:   -5.96 KCAL/MOL
REMARK 924 INTRA-LIGAND FREE ENERGY PREDICTED BY IDOCK:   -1.47 KCAL/MOL
REMARK 927      BINDING AFFINITY PREDICTED BY RF-SCORE:    0.00 PKD
ROOT
HETATM    1  C   UNL     1      -7.736   6.949  63.452  1.00  0.00    -0.106 C  
HETATM    2  C   UNL     1      -6.288   7.447  63.625  1.00  0.00    -0.053 C  
HETATM    3  C   UNL     1      -5.667   6.728  64.828  1.00  0.00    -0.031 C  
HETATM    4  C   UNL     1      -5.503   7.103  62.350  1.00  0.00    -0.037 C  
ENDROOT
BRANCH   2   5
HETATM    5  C   UNL     1      -6.309   8.972  63.816  1.00  0.00    -0.088 C  
HETATM    6  O   UNL     1      -5.432   9.716  63.389  1.00  0.00    -0.077 OA 
BRANCH   5   7
HETATM    7  O   UNL     1      -7.346   9.398  64.592  1.00  0.00    -0.098 OA 
BRANCH   7   8
HETATM    8  C   UNL     1      -6.951   9.927  65.872  1.00  0.00    -0.106 C  
BRANCH   8   9
HETATM    9  O   UNL     1      -8.043  10.162  66.757  1.00  0.00    -0.116 OA 
HETATM   10  P   UNL     1      -8.817   8.825  67.269  1.00  0.00    -0.133 P  
HETATM   11  C   UNL     1      -7.580   7.904  68.213  1.00  0.00    -0.116 C  
HETATM   12  O   UNL     1      -9.494   8.064  66.175  1.00  0.00    -0.190 OA 
HETATM   13  O   UNL     1      -9.758   9.296  68.488  1.00  0.00    -0.146 OA 
BRANCH  13  14
HETATM   14  C   UNL     1     -10.965   9.980  68.311  1.00  0.00    -0.227 C  
BRANCH  14  15
HETATM   15  O   UNL     1     -10.729  11.175  67.530  1.00  0.00    -0.207 OA 
BRANCH  15  16
HETATM   16  C   UNL     1     -11.523  12.244  67.826  1.00  0.00    -0.329 C  
HETATM   17  O   UNL     1     -12.531  12.176  68.518  1.00  0.00    -0.046 OA 
BRANCH  16  18
HETATM   18  C   UNL     1     -11.013  13.550  67.180  1.00  0.00    -0.302 C  
HETATM   19  C   UNL     1     -10.645  14.562  68.284  1.00  0.00    -0.241 C  
HETATM   20  C   UNL     1     -12.107  14.172  66.303  1.00  0.00    -0.463 C  
HETATM   21  C   UNL     1      -9.756  13.289  66.337  1.00  0.00    -0.279 C  
ENDBRANCH  16  18
ENDBRANCH  15  16
ENDBRANCH  14  15
ENDBRANCH  13  14
BRANCH  11  22
HETATM   22  O   UNL     1      -7.158   8.816  69.230  1.00  0.00    -0.060 OA 
BRANCH  22  23
HETATM   23  C   UNL     1      -6.327   8.215  70.201  1.00  0.00    -0.032 C  
BRANCH  23  24
HETATM   24  C   UNL     1      -6.999   6.937  70.686  1.00  0.00    -0.063 C  
BRANCH  24  25
HETATM   25  N   UNL     1      -8.192   7.253  71.426  1.00  0.00    -0.105 NA 
HETATM   26  C   UNL     1      -9.461   6.979  71.013  1.00  0.00    -0.159 A  
HETATM   27  N   UNL     1      -9.839   6.225  69.967  1.00  0.00    -0.167 NA 
HETATM   28  H2  UNL     1     -12.284   9.382  72.300  1.00  0.00     0.000 HD 
HETATM   29  H1  UNL     1     -13.579   8.384  72.125  1.00  0.00     0.000 HD 
HETATM   30  C   UNL     1      -8.269   8.064  72.526  1.00  0.00    -0.146 A  
HETATM   31  N   UNL     1      -9.517   8.361  72.822  1.00  0.00    -0.268 NA 
HETATM   32  C   UNL     1     -10.272   7.708  71.862  1.00  0.00    -0.193 A  
HETATM   33  C   UNL     1     -11.648   7.679  71.593  1.00  0.00    -0.267 A  
HETATM   34  N   UNL     1     -12.578   8.405  72.321  1.00  0.00    -0.356 NA 
HETATM   35  N   UNL     1     -12.089   6.906  70.571  1.00  0.00    -0.325 NA 
HETATM   36  C   UNL     1     -11.178   6.235  69.831  1.00  0.00    -0.429 A  
ENDBRANCH  24  25
ENDBRANCH  23  24
ENDBRANCH  22  23
ENDBRANCH  11  22
ENDBRANCH   8   9
ENDBRANCH   7   8
ENDBRANCH   5   7
ENDBRANCH   2   5
TORSDOF 12
ENDMDL
MODEL      267
REMARK 921   NORMALIZED FREE ENERGY PREDICTED BY IDOCK:   -3.41 KCAL/MOL
REMARK 922        TOTAL FREE ENERGY PREDICTED BY IDOCK:   -7.39 KCAL/MOL
REMARK 923 INTER-LIGAND FREE ENERGY PREDICTED BY IDOCK:   -6.50 KCAL/MOL
REMARK 924 INTRA-LIGAND FREE ENERGY PREDICTED BY IDOCK:   -0.89 KCAL/MOL
REMARK 927      BINDING AFFINITY PREDICTED BY RF-SCORE:    0.00 PKD
ROOT
HETATM    1  C   UNL     1     -11.768   5.728  72.505  1.00  0.00    -0.280 C  
HETATM    2  C   UNL     1     -10.311   5.627  72.995  1.00  0.00    -0.230 C  
HETATM    3  C   UNL     1     -10.304   5.711  74.526  1.00  0.00    -0.254 C  
HETATM    4  C   UNL     1      -9.743   4.272  72.545  1.00  0.00    -0.200 C  
ENDROOT
BRANCH   2   5
HETATM    5  C   UNL     1      -9.494   6.761  72.354  1.00  0.00    -0.143 C  
HETATM    6  O   UNL     1      -8.398   7.121  72.773  1.00  0.00    -0.106 OA 
BRANCH   5   7
HETATM    7  O   UNL     1     -10.155   7.387  71.341  1.00  0.00    -0.187 OA 
BRANCH   7   8
HETATM    8  C   UNL     1      -9.799   6.925  70.024  1.00  0.00    -0.173 C  
BRANCH   8   9
HETATM    9  O   UNL     1     -10.063   7.871  68.992  1.00  0.00    -0.189 OA 
HETATM   10  P   UNL     1      -9.715   9.416  69.367  1.00  0.00    -0.200 P  
HETATM   11  C   UNL     1      -7.926   9.437  69.638  1.00  0.00    -0.109 C  
HETATM   12  O   UNL     1     -10.544   9.969  70.481  1.00  0.00    -0.292 OA 
HETATM   13  O   UNL     1      -9.764  10.232  67.980  1.00  0.00    -0.147 OA 
BRANCH  13  14
HETATM   14  C   UNL     1     -10.953  10.608  67.348  1.00  0.00    -0.298 C  
BRANCH  14  15
HETATM   15  O   UNL     1     -10.648  11.465  66.222  1.00  0.00    -0.247 OA 
BRANCH  15  16
HETATM   16  C   UNL     1     -11.517  12.492  66.005  1.00  0.00    -0.377 C  
HETATM   17  O   UNL     1     -12.094  13.101  66.899  1.00  0.00    -0.379 OA 
BRANCH  16  18
HETATM   18  C   UNL     1     -11.703  12.797  64.503  1.00  0.00    -0.420 C  
HETATM   19  C   UNL     1     -12.035  14.292  64.317  1.00  0.00    -0.449 C  
HETATM   20  C   UNL     1     -12.864  11.972  63.932  1.00  0.00    -0.400 C  
HETATM   21  C   UNL     1     -10.416  12.495  63.721  1.00  0.00    -0.451 C  
ENDBRANCH  16  18
ENDBRANCH  15  16
ENDBRANCH  14  15
ENDBRANCH  13  14
BRANCH  11  22
HETATM   22  O   UNL     1      -7.376   8.946  68.413  1.00  0.00    -0.080 OA 
BRANCH  22  23
HETATM   23  C   UNL     1      -6.284   9.714  67.951  1.00  0.00    -0.052 C  
BRANCH  23  24
HETATM   24  C   UNL     1      -5.584   8.938  66.844  1.00  0.00    -0.041 C  
BRANCH  24  25
HETATM   25  N   UNL     1      -6.551   8.405  65.921  1.00  0.00    -0.053 NA 
HETATM   26  C   UNL     1      -6.793   7.079  65.725  1.00  0.00    -0.056 A  
HETATM   27  N   UNL     1      -6.336   6.045  66.451  1.00  0.00    -0.040 NA 
HETATM   28  H2  UNL     1      -8.074   6.036  62.165  1.00  0.00     0.000 HD 
HETATM   29  H1  UNL     1      -8.796   4.611  62.552  1.00  0.00     0.000 HD 
HETATM   30  C   UNL     1      -7.209   9.105  64.947  1.00  0.00    -0.097 A  
HETATM   31  N   UNL     1      -7.828   8.303  64.108  1.00  0.00    -0.139 NA 
HETATM   32  C   UNL     1      -7.552   7.027  64.571  1.00  0.00    -0.107 A  
HETATM   33  C   UNL     1      -7.865   5.751  64.083  1.00  0.00    -0.118 A  
HETATM   34  N   UNL     1      -8.568   5.540  62.907  1.00  0.00    -0.061 NA 
HETATM   35  N   UNL     1      -7.459   4.671  64.795  1.00  0.00    -0.071 NA 
HETATM   36  C   UNL     1      -6.733   4.874  65.917  1.00  0.00    -0.053 A  
ENDBRANCH  24  25
ENDBRANCH  23  24
ENDBRANCH  22  23
ENDBRANCH  11  22
ENDBRANCH   8   9
ENDBRANCH   7   8
ENDBRANCH   5   7
ENDBRANCH   2   5
TORSDOF 12
ENDMDL
MODEL      268
REMARK 921   NORMALIZED FREE ENERGY PREDICTED BY IDOCK:   -3.39 KCAL/MOL
REMARK 922        TOTAL FREE ENERGY PREDICTED BY IDOCK:   -7.37 KCAL/MOL
REMARK 923 INTER-LIGAND FREE ENERGY PREDICTED BY IDOCK:   -6.30 KCAL/MOL
REMARK 924 INTRA-LIGAND FREE ENERGY PREDICTED BY IDOCK:   -1.07 KCAL/MOL
REMARK 927      BINDING AFFINITY PREDICTED BY RF-SCORE:    0.00 PKD
ROOT
HETATM    1  C   UNL     1     -10.291  12.219  63.343  1.00  0.00    -0.395 C  
HETATM    2  C   UNL     1     -11.497  12.517  64.254  1.00  0.00    -0.423 C  
HETATM    3  C   UNL     1     -11.664  14.037  64.362  1.00  0.00    -0.415 C  
HETATM    4  C   UNL     1     -12.750  11.899  63.615  1.00  0.00    -0.509 C  
ENDROOT
BRANCH   2   5
HETATM    5  C   UNL     1     -11.251  11.868  65.626  1.00  0.00    -0.306 C  
HETATM    6  O   UNL     1     -12.027  11.978  66.571  1.00  0.00    -0.616 OA 
BRANCH   5   7
HETATM    7  O   UNL     1     -10.041  11.248  65.714  1.00  0.00    -0.228 OA 
BRANCH   7   8
HETATM    8  C   UNL     1     -10.100   9.901  66.221  1.00  0.00    -0.241 C  
BRANCH   8   9
HETATM    9  O   UNL     1      -9.248   9.671  67.339  1.00  0.00    -0.130 OA 
HETATM   10  P   UNL     1      -9.969   8.988  68.628  1.00  0.00    -0.181 P  
HETATM   11  C   UNL     1     -10.509   7.361  68.051  1.00  0.00    -0.199 C  
HETATM   12  O   UNL     1     -11.030   9.839  69.248  1.00  0.00    -0.228 OA 
HETATM   13  O   UNL     1      -8.780   8.520  69.607  1.00  0.00    -0.129 OA 
BRANCH  13  14
HETATM   14  C   UNL     1      -8.060   9.400  70.422  1.00  0.00    -0.175 C  
BRANCH  14  15
HETATM   15  O   UNL     1      -8.079   8.915  71.786  1.00  0.00    -0.313 OA 
BRANCH  15  16
HETATM   16  C   UNL     1      -6.909   8.388  72.244  1.00  0.00    -0.089 C  
HETATM   17  O   UNL     1      -5.815   8.603  71.734  1.00  0.00    -0.043 OA 
BRANCH  16  18
HETATM   18  C   UNL     1      -7.116   7.478  73.474  1.00  0.00    -0.096 C  
HETATM   19  C   UNL     1      -5.746   7.108  74.079  1.00  0.00    -0.054 C  
HETATM   20  C   UNL     1      -7.827   6.182  73.065  1.00  0.00    -0.104 C  
HETATM   21  C   UNL     1      -7.933   8.200  74.556  1.00  0.00    -0.293 C  
ENDBRANCH  16  18
ENDBRANCH  15  16
ENDBRANCH  14  15
ENDBRANCH  13  14
BRANCH  11  22
HETATM   22  O   UNL     1      -9.310   6.731  67.593  1.00  0.00    -0.121 OA 
BRANCH  22  23
HETATM   23  C   UNL     1      -9.365   5.321  67.662  1.00  0.00    -0.118 C  
BRANCH  23  24
HETATM   24  C   UNL     1     -10.071   4.805  66.416  1.00  0.00    -0.262 C  
BRANCH  24  25
HETATM   25  N   UNL     1      -9.220   3.887  65.706  1.00  0.00    -0.145 NA 
HETATM   26  C   UNL     1      -8.248   4.249  64.823  1.00  0.00    -0.103 A  
HETATM   27  N   UNL     1      -7.778   5.484  64.581  1.00  0.00    -0.087 NA 
HETATM   28  H2  UNL     1      -7.426   1.684  61.969  1.00  0.00     0.000 HD 
HETATM   29  H1  UNL     1      -5.906   2.185  61.595  1.00  0.00     0.000 HD 
HETATM   30  C   UNL     1      -9.386   2.531  65.622  1.00  0.00    -0.002 A  
HETATM   31  N   UNL     1      -8.606   2.004  64.703  1.00  0.00    -0.094 NA 
HETATM   32  C   UNL     1      -7.907   3.076  64.176  1.00  0.00    -0.081 A  
HETATM   33  C   UNL     1      -6.978   3.184  63.132  1.00  0.00    -0.036 A  
HETATM   34  N   UNL     1      -6.582   2.106  62.354  1.00  0.00    -0.013 NA 
HETATM   35  N   UNL     1      -6.443   4.401  62.867  1.00  0.00    -0.026 NA 
HETATM   36  C   UNL     1      -6.863   5.462  63.592  1.00  0.00    -0.042 A  
ENDBRANCH  24  25
ENDBRANCH  23  24
ENDBRANCH  22  23
ENDBRANCH  11  22
ENDBRANCH   8   9
ENDBRANCH   7   8
ENDBRANCH   5   7
ENDBRANCH   2   5
TORSDOF 12
ENDMDL
MODEL      269
REMARK 921   NORMALIZED FREE ENERGY PREDICTED BY IDOCK:   -3.38 KCAL/MOL
REMARK 922        TOTAL FREE ENERGY PREDICTED BY IDOCK:   -7.34 KCAL/MOL
REMARK 923 INTER-LIGAND FREE ENERGY PREDICTED BY IDOCK:   -5.88 KCAL/MOL
REMARK 924 INTRA-LIGAND FREE ENERGY PREDICTED BY IDOCK:   -1.46 KCAL/MOL
REMARK 927      BINDING AFFINITY PREDICTED BY RF-SCORE:    0.00 PKD
ROOT
HETATM    1  C   UNL     1      -7.670  14.663  68.491  1.00  0.00    -0.126 C  
HETATM    2  C   UNL     1      -6.707  13.476  68.297  1.00  0.00    -0.107 C  
HETATM    3  C   UNL     1      -5.332  14.025  67.899  1.00  0.00    -0.075 C  
HETATM    4  C   UNL     1      -6.600  12.719  69.630  1.00  0.00     0.015 C  
ENDROOT
BRANCH   2   5
HETATM    5  C   UNL     1      -7.285  12.541  67.223  1.00  0.00    -0.114 C  
HETATM    6  O   UNL     1      -8.431  12.637  66.793  1.00  0.00    -0.154 OA 
BRANCH   5   7
HETATM    7  O   UNL     1      -6.430  11.539  66.873  1.00  0.00    -0.125 OA 
BRANCH   7   8
HETATM    8  C   UNL     1      -6.999  10.557  65.985  1.00  0.00    -0.134 C  
BRANCH   8   9
HETATM    9  O   UNL     1      -8.123   9.873  66.531  1.00  0.00    -0.115 OA 
HETATM   10  P   UNL     1      -7.906   8.278  66.780  1.00  0.00    -0.096 P  
HETATM   11  C   UNL     1      -6.590   8.175  68.017  1.00  0.00    -0.057 C  
HETATM   12  O   UNL     1      -7.676   7.498  65.527  1.00  0.00    -0.091 OA 
HETATM   13  O   UNL     1      -9.142   7.799  67.693  1.00  0.00    -0.133 OA 
BRANCH  13  14
HETATM   14  C   UNL     1     -10.432   7.590  67.197  1.00  0.00    -0.336 C  
BRANCH  14  15
HETATM   15  O   UNL     1     -10.564   6.213  66.769  1.00  0.00    -0.259 OA 
BRANCH  15  16
HETATM   16  C   UNL     1     -10.262   5.270  67.705  1.00  0.00    -0.156 C  
HETATM   17  O   UNL     1     -10.773   5.222  68.819  1.00  0.00    -0.124 OA 
BRANCH  16  18
HETATM   18  C   UNL     1      -9.194   4.271  67.210  1.00  0.00    -0.169 C  
HETATM   19  C   UNL     1      -7.820   4.651  67.798  1.00  0.00    -0.086 C  
HETATM   20  C   UNL     1      -9.092   4.316  65.680  1.00  0.00    -0.136 C  
HETATM   21  C   UNL     1      -9.528   2.843  67.667  1.00  0.00    -0.169 C  
ENDBRANCH  16  18
ENDBRANCH  15  16
ENDBRANCH  14  15
ENDBRANCH  13  14
BRANCH  11  22
HETATM   22  O   UNL     1      -7.089   8.924  69.129  1.00  0.00    -0.061 OA 
BRANCH  22  23
HETATM   23  C   UNL     1      -7.460   8.111  70.222  1.00  0.00    -0.067 C  
BRANCH  23  24
HETATM   24  C   UNL     1      -8.370   8.918  71.136  1.00  0.00    -0.183 C  
BRANCH  24  25
HETATM   25  N   UNL     1      -9.697   8.360  71.136  1.00  0.00    -0.175 NA 
HETATM   26  C   UNL     1     -10.846   9.081  71.008  1.00  0.00    -0.276 A  
HETATM   27  N   UNL     1     -10.969  10.379  70.683  1.00  0.00    -0.229 NA 
HETATM   28  H2  UNL     1     -14.050   7.595  72.719  1.00  0.00     0.000 HD 
HETATM   29  H1  UNL     1     -15.202   8.361  71.831  1.00  0.00     0.000 HD 
HETATM   30  C   UNL     1     -10.035   7.081  71.486  1.00  0.00    -0.180 A  
HETATM   31  N   UNL     1     -11.336   6.946  71.631  1.00  0.00    -0.250 NA 
HETATM   32  C   UNL     1     -11.853   8.202  71.360  1.00  0.00    -0.295 A  
HETATM   33  C   UNL     1     -13.153   8.725  71.406  1.00  0.00    -0.257 A  
HETATM   34  N   UNL     1     -14.256   7.981  71.798  1.00  0.00    -0.432 NA 
HETATM   35  N   UNL     1     -13.341  10.020  71.053  1.00  0.00    -0.346 NA 
HETATM   36  C   UNL     1     -12.260  10.759  70.717  1.00  0.00    -0.381 A  
ENDBRANCH  24  25
ENDBRANCH  23  24
ENDBRANCH  22  23
ENDBRANCH  11  22
ENDBRANCH   8   9
ENDBRANCH   7   8
ENDBRANCH   5   7
ENDBRANCH   2   5
TORSDOF 12
ENDMDL
MODEL      270
REMARK 921   NORMALIZED FREE ENERGY PREDICTED BY IDOCK:   -3.37 KCAL/MOL
REMARK 922        TOTAL FREE ENERGY PREDICTED BY IDOCK:   -7.33 KCAL/MOL
REMARK 923 INTER-LIGAND FREE ENERGY PREDICTED BY IDOCK:   -6.06 KCAL/MOL
REMARK 924 INTRA-LIGAND FREE ENERGY PREDICTED BY IDOCK:   -1.28 KCAL/MOL
REMARK 927      BINDING AFFINITY PREDICTED BY RF-SCORE:    0.00 PKD
ROOT
HETATM    1  C   UNL     1      -7.555   4.099  67.349  1.00  0.00    -0.076 C  
HETATM    2  C   UNL     1      -6.816   5.452  67.365  1.00  0.00    -0.060 C  
HETATM    3  C   UNL     1      -6.952   6.064  68.765  1.00  0.00    -0.072 C  
HETATM    4  C   UNL     1      -5.334   5.197  67.050  1.00  0.00    -0.008 C  
ENDROOT
BRANCH   2   5
HETATM    5  C   UNL     1      -7.421   6.358  66.281  1.00  0.00    -0.085 C  
HETATM    6  O   UNL     1      -8.004   5.927  65.291  1.00  0.00    -0.102 OA 
BRANCH   5   7
HETATM    7  O   UNL     1      -7.155   7.680  66.482  1.00  0.00    -0.071 OA 
BRANCH   7   8
HETATM    8  C   UNL     1      -7.790   8.563  65.539  1.00  0.00    -0.104 C  
BRANCH   8   9
HETATM    9  O   UNL     1      -7.935   9.899  66.011  1.00  0.00    -0.109 OA 
HETATM   10  P   UNL     1      -9.437  10.516  65.888  1.00  0.00    -0.219 P  
HETATM   11  C   UNL     1     -10.456   9.478  66.963  1.00  0.00    -0.232 C  
HETATM   12  O   UNL     1      -9.918  10.657  64.480  1.00  0.00    -0.296 OA 
HETATM   13  O   UNL     1      -9.438  11.862  66.771  1.00  0.00    -0.191 OA 
BRANCH  13  14
HETATM   14  C   UNL     1      -8.863  13.064  66.346  1.00  0.00     0.099 C  
BRANCH  14  15
HETATM   15  O   UNL     1      -9.846  14.123  66.432  1.00  0.00    -0.276 OA 
BRANCH  15  16
HETATM   16  C   UNL     1      -9.361  15.361  66.732  1.00  0.00    -0.246 C  
HETATM   17  O   UNL     1      -8.317  15.815  66.279  1.00  0.00    -0.281 OA 
BRANCH  16  18
HETATM   18  C   UNL     1     -10.270  16.124  67.719  1.00  0.00    -0.267 C  
HETATM   19  C   UNL     1      -9.468  16.487  68.986  1.00  0.00    -0.249 C  
HETATM   20  C   UNL     1     -11.457  15.248  68.137  1.00  0.00    -0.357 C  
HETATM   21  C   UNL     1     -10.782  17.429  67.092  1.00  0.00    -0.188 C  
ENDBRANCH  16  18
ENDBRANCH  15  16
ENDBRANCH  14  15
ENDBRANCH  13  14
BRANCH  11  22
HETATM   22  O   UNL     1      -9.835   9.581  68.247  1.00  0.00    -0.148 OA 
BRANCH  22  23
HETATM   23  C   UNL     1     -10.116   8.480  69.086  1.00  0.00    -0.203 C  
BRANCH  23  24
HETATM   24  C   UNL     1     -10.591   9.008  70.432  1.00  0.00    -0.218 C  
BRANCH  24  25
HETATM   25  N   UNL     1     -10.998   7.918  71.279  1.00  0.00    -0.235 NA 
HETATM   26  C   UNL     1     -10.146   7.099  71.957  1.00  0.00    -0.177 A  
HETATM   27  N   UNL     1      -8.821   7.246  72.120  1.00  0.00    -0.127 NA 
HETATM   28  H2  UNL     1     -11.404   3.447  72.650  1.00  0.00     0.000 HD 
HETATM   29  H1  UNL     1     -10.445   3.078  73.934  1.00  0.00     0.000 HD 
HETATM   30  C   UNL     1     -12.256   7.386  71.364  1.00  0.00    -0.342 A  
HETATM   31  N   UNL     1     -12.257   6.248  72.024  1.00  0.00    -0.303 NA 
HETATM   32  C   UNL     1     -10.934   6.044  72.378  1.00  0.00    -0.260 A  
HETATM   33  C   UNL     1     -10.277   4.992  73.032  1.00  0.00    -0.176 A  
HETATM   34  N   UNL     1     -10.924   3.843  73.458  1.00  0.00    -0.235 NA 
HETATM   35  N   UNL     1      -8.945   5.104  73.255  1.00  0.00    -0.120 NA 
HETATM   36  C   UNL     1      -8.304   6.203  72.797  1.00  0.00    -0.117 A  
ENDBRANCH  24  25
ENDBRANCH  23  24
ENDBRANCH  22  23
ENDBRANCH  11  22
ENDBRANCH   8   9
ENDBRANCH   7   8
ENDBRANCH   5   7
ENDBRANCH   2   5
TORSDOF 12
ENDMDL
MODEL      271
REMARK 921   NORMALIZED FREE ENERGY PREDICTED BY IDOCK:   -3.35 KCAL/MOL
REMARK 922        TOTAL FREE ENERGY PREDICTED BY IDOCK:   -7.30 KCAL/MOL
REMARK 923 INTER-LIGAND FREE ENERGY PREDICTED BY IDOCK:   -6.03 KCAL/MOL
REMARK 924 INTRA-LIGAND FREE ENERGY PREDICTED BY IDOCK:   -1.27 KCAL/MOL
REMARK 927      BINDING AFFINITY PREDICTED BY RF-SCORE:    0.00 PKD
ROOT
HETATM    1  C   UNL     1     -10.428  12.155  63.386  1.00  0.00    -0.450 C  
HETATM    2  C   UNL     1     -10.575  12.687  64.825  1.00  0.00    -0.341 C  
HETATM    3  C   UNL     1     -10.376  14.207  64.805  1.00  0.00    -0.387 C  
HETATM    4  C   UNL     1     -11.990  12.353  65.322  1.00  0.00    -0.461 C  
ENDROOT
BRANCH   2   5
HETATM    5  C   UNL     1      -9.540  11.985  65.719  1.00  0.00    -0.213 C  
HETATM    6  O   UNL     1      -9.263  12.364  66.853  1.00  0.00    -0.197 OA 
BRANCH   5   7
HETATM    7  O   UNL     1      -8.895  10.964  65.087  1.00  0.00    -0.197 OA 
BRANCH   7   8
HETATM    8  C   UNL     1      -9.384   9.653  65.426  1.00  0.00    -0.259 C  
BRANCH   8   9
HETATM    9  O   UNL     1      -8.921   9.175  66.685  1.00  0.00    -0.130 OA 
HETATM   10  P   UNL     1     -10.067   8.518  67.638  1.00  0.00    -0.246 P  
HETATM   11  C   UNL     1     -10.658   7.072  66.725  1.00  0.00    -0.227 C  
HETATM   12  O   UNL     1     -11.121   9.485  68.069  1.00  0.00    -0.157 OA 
HETATM   13  O   UNL     1      -9.280   7.759  68.820  1.00  0.00    -0.140 OA 
BRANCH  13  14
HETATM   14  C   UNL     1      -8.695   8.420  69.905  1.00  0.00    -0.136 C  
BRANCH  14  15
HETATM   15  O   UNL     1      -8.299   7.447  70.901  1.00  0.00    -0.113 OA 
BRANCH  15  16
HETATM   16  C   UNL     1      -9.299   6.972  71.698  1.00  0.00    -0.156 C  
HETATM   17  O   UNL     1     -10.416   6.675  71.290  1.00  0.00    -0.211 OA 
BRANCH  16  18
HETATM   18  C   UNL     1      -8.869   6.861  73.176  1.00  0.00    -0.142 C  
HETATM   19  C   UNL     1     -10.091   6.491  74.042  1.00  0.00    -0.348 C  
HETATM   20  C   UNL     1      -8.315   8.202  73.673  1.00  0.00    -0.305 C  
HETATM   21  C   UNL     1      -7.810   5.763  73.356  1.00  0.00    -0.109 C  
ENDBRANCH  16  18
ENDBRANCH  15  16
ENDBRANCH  14  15
ENDBRANCH  13  14
BRANCH  11  22
HETATM   22  O   UNL     1      -9.485   6.282  66.513  1.00  0.00    -0.152 OA 
BRANCH  22  23
HETATM   23  C   UNL     1      -9.693   4.907  66.761  1.00  0.00    -0.181 C  
BRANCH  23  24
HETATM   24  C   UNL     1      -8.406   4.319  67.324  1.00  0.00    -0.100 C  
BRANCH  24  25
HETATM   25  N   UNL     1      -8.588   3.955  68.704  1.00  0.00    -0.090 NA 
HETATM   26  C   UNL     1      -7.730   3.181  69.425  1.00  0.00    -0.047 A  
HETATM   27  N   UNL     1      -6.500   2.771  69.073  1.00  0.00    -0.029 NA 
HETATM   28  H2  UNL     1      -9.296   1.074  72.343  1.00  0.00     0.000 HD 
HETATM   29  H1  UNL     1      -7.949   0.851  73.258  1.00  0.00     0.000 HD 
HETATM   30  C   UNL     1      -9.730   4.122  69.440  1.00  0.00    -0.163 A  
HETATM   31  N   UNL     1      -9.673   3.465  70.579  1.00  0.00    -0.153 NA 
HETATM   32  C   UNL     1      -8.433   2.849  70.568  1.00  0.00    -0.056 A  
HETATM   33  C   UNL     1      -7.804   1.964  71.456  1.00  0.00    -0.040 A  
HETATM   34  N   UNL     1      -8.407   1.494  72.613  1.00  0.00    -0.052 NA 
HETATM   35  N   UNL     1      -6.547   1.546  71.168  1.00  0.00    -0.023 NA 
HETATM   36  C   UNL     1      -5.977   1.965  70.016  1.00  0.00    -0.023 A  
ENDBRANCH  24  25
ENDBRANCH  23  24
ENDBRANCH  22  23
ENDBRANCH  11  22
ENDBRANCH   8   9
ENDBRANCH   7   8
ENDBRANCH   5   7
ENDBRANCH   2   5
TORSDOF 12
ENDMDL
MODEL      272
REMARK 921   NORMALIZED FREE ENERGY PREDICTED BY IDOCK:   -3.31 KCAL/MOL
REMARK 922        TOTAL FREE ENERGY PREDICTED BY IDOCK:   -7.23 KCAL/MOL
REMARK 923 INTER-LIGAND FREE ENERGY PREDICTED BY IDOCK:   -6.05 KCAL/MOL
REMARK 924 INTRA-LIGAND FREE ENERGY PREDICTED BY IDOCK:   -1.18 KCAL/MOL
REMARK 927      BINDING AFFINITY PREDICTED BY RF-SCORE:    0.00 PKD
ROOT
HETATM    1  C   UNL     1     -11.892   5.565  72.650  1.00  0.00    -0.176 C  
HETATM    2  C   UNL     1     -10.391   5.282  72.855  1.00  0.00    -0.235 C  
HETATM    3  C   UNL     1     -10.059   5.468  74.341  1.00  0.00    -0.282 C  
HETATM    4  C   UNL     1     -10.112   3.830  72.437  1.00  0.00    -0.237 C  
ENDROOT
BRANCH   2   5
HETATM    5  C   UNL     1      -9.581   6.236  71.963  1.00  0.00    -0.151 C  
HETATM    6  O   UNL     1      -8.362   6.358  72.040  1.00  0.00    -0.109 OA 
BRANCH   5   7
HETATM    7  O   UNL     1     -10.364   7.001  71.151  1.00  0.00    -0.206 OA 
BRANCH   7   8
HETATM    8  C   UNL     1     -10.363   6.594  69.769  1.00  0.00    -0.193 C  
BRANCH   8   9
HETATM    9  O   UNL     1     -10.491   7.676  68.852  1.00  0.00    -0.211 OA 
HETATM   10  P   UNL     1      -9.410   8.877  69.047  1.00  0.00    -0.146 P  
HETATM   11  C   UNL     1      -7.803   8.114  68.720  1.00  0.00    -0.113 C  
HETATM   12  O   UNL     1      -9.531   9.593  70.353  1.00  0.00    -0.252 OA 
HETATM   13  O   UNL     1      -9.521   9.793  67.727  1.00  0.00    -0.133 OA 
BRANCH  13  14
HETATM   14  C   UNL     1     -10.558  10.704  67.506  1.00  0.00    -0.252 C  
BRANCH  14  15
HETATM   15  O   UNL     1     -10.225  11.970  68.125  1.00  0.00    -0.189 OA 
BRANCH  15  16
HETATM   16  C   UNL     1     -11.190  12.514  68.919  1.00  0.00    -0.281 C  
HETATM   17  O   UNL     1     -11.884  11.867  69.695  1.00  0.00    -0.306 OA 
BRANCH  16  18
HETATM   18  C   UNL     1     -11.321  14.040  68.723  1.00  0.00    -0.309 C  
HETATM   19  C   UNL     1     -12.125  14.329  67.439  1.00  0.00    -0.371 C  
HETATM   20  C   UNL     1      -9.934  14.678  68.576  1.00  0.00    -0.235 C  
HETATM   21  C   UNL     1     -12.065  14.681  69.903  1.00  0.00    -0.385 C  
ENDBRANCH  16  18
ENDBRANCH  15  16
ENDBRANCH  14  15
ENDBRANCH  13  14
BRANCH  11  22
HETATM   22  O   UNL     1      -7.924   7.583  67.398  1.00  0.00    -0.112 OA 
BRANCH  22  23
HETATM   23  C   UNL     1      -6.785   7.825  66.598  1.00  0.00    -0.066 C  
BRANCH  23  24
HETATM   24  C   UNL     1      -6.313   6.499  66.018  1.00  0.00    -0.042 C  
BRANCH  24  25
HETATM   25  N   UNL     1      -7.372   5.883  65.261  1.00  0.00    -0.073 NA 
HETATM   26  C   UNL     1      -8.058   4.771  65.646  1.00  0.00    -0.111 A  
HETATM   27  N   UNL     1      -8.022   4.156  66.839  1.00  0.00    -0.097 NA 
HETATM   28  H2  UNL     1      -9.491   2.514  62.773  1.00  0.00     0.000 HD 
HETATM   29  H1  UNL     1     -10.683   1.750  63.609  1.00  0.00     0.000 HD 
HETATM   30  C   UNL     1      -7.703   6.159  63.962  1.00  0.00    -0.106 A  
HETATM   31  N   UNL     1      -8.534   5.264  63.474  1.00  0.00    -0.117 NA 
HETATM   32  C   UNL     1      -8.742   4.373  64.513  1.00  0.00    -0.144 A  
HETATM   33  C   UNL     1      -9.468   3.176  64.607  1.00  0.00    -0.148 A  
HETATM   34  N   UNL     1     -10.155   2.620  63.540  1.00  0.00    -0.141 NA 
HETATM   35  N   UNL     1      -9.496   2.531  65.799  1.00  0.00     0.029 NA 
HETATM   36  C   UNL     1      -8.787   3.047  66.828  1.00  0.00    -0.147 A  
ENDBRANCH  24  25
ENDBRANCH  23  24
ENDBRANCH  22  23
ENDBRANCH  11  22
ENDBRANCH   8   9
ENDBRANCH   7   8
ENDBRANCH   5   7
ENDBRANCH   2   5
TORSDOF 12
ENDMDL
MODEL      273
REMARK 921   NORMALIZED FREE ENERGY PREDICTED BY IDOCK:   -3.30 KCAL/MOL
REMARK 922        TOTAL FREE ENERGY PREDICTED BY IDOCK:   -7.22 KCAL/MOL
REMARK 923 INTER-LIGAND FREE ENERGY PREDICTED BY IDOCK:   -5.76 KCAL/MOL
REMARK 924 INTRA-LIGAND FREE ENERGY PREDICTED BY IDOCK:   -1.46 KCAL/MOL
REMARK 927      BINDING AFFINITY PREDICTED BY RF-SCORE:    0.00 PKD
ROOT
HETATM    1  C   UNL     1      -6.244   5.188  67.921  1.00  0.00    -0.035 C  
HETATM    2  C   UNL     1      -6.982   6.534  67.791  1.00  0.00    -0.082 C  
HETATM    3  C   UNL     1      -7.009   7.210  69.167  1.00  0.00    -0.074 C  
HETATM    4  C   UNL     1      -6.211   7.414  66.795  1.00  0.00    -0.044 C  
ENDROOT
BRANCH   2   5
HETATM    5  C   UNL     1      -8.397   6.272  67.253  1.00  0.00    -0.109 C  
HETATM    6  O   UNL     1      -9.154   5.431  67.729  1.00  0.00    -0.109 OA 
BRANCH   5   7
HETATM    7  O   UNL     1      -8.685   6.996  66.135  1.00  0.00    -0.137 OA 
BRANCH   7   8
HETATM    8  C   UNL     1      -9.623   8.068  66.346  1.00  0.00    -0.197 C  
BRANCH   8   9
HETATM    9  O   UNL     1      -9.009   9.317  66.650  1.00  0.00    -0.134 OA 
HETATM   10  P   UNL     1      -9.993  10.611  66.557  1.00  0.00    -0.230 P  
HETATM   11  C   UNL     1     -11.248  10.333  67.829  1.00  0.00    -0.190 C  
HETATM   12  O   UNL     1     -10.514  10.875  65.181  1.00  0.00    -0.283 OA 
HETATM   13  O   UNL     1      -9.197  11.824  67.254  1.00  0.00    -0.167 OA 
BRANCH  13  14
HETATM   14  C   UNL     1      -8.154  12.519  66.636  1.00  0.00     0.150 C  
BRANCH  14  15
HETATM   15  O   UNL     1      -7.882  13.734  67.374  1.00  0.00    -0.168 OA 
BRANCH  15  16
HETATM   16  C   UNL     1      -6.852  13.670  68.264  1.00  0.00    -0.108 C  
HETATM   17  O   UNL     1      -6.017  12.773  68.281  1.00  0.00    -0.063 OA 
BRANCH  16  18
HETATM   18  C   UNL     1      -6.860  14.851  69.259  1.00  0.00    -0.148 C  
HETATM   19  C   UNL     1      -7.031  16.175  68.486  1.00  0.00    -0.137 C  
HETATM   20  C   UNL     1      -5.534  14.910  70.027  1.00  0.00    -0.113 C  
HETATM   21  C   UNL     1      -8.029  14.725  70.247  1.00  0.00     0.811 C  
ENDBRANCH  16  18
ENDBRANCH  15  16
ENDBRANCH  14  15
ENDBRANCH  13  14
BRANCH  11  22
HETATM   22  O   UNL     1     -10.500  10.195  69.041  1.00  0.00    -0.194 OA 
BRANCH  22  23
HETATM   23  C   UNL     1     -11.095  10.861  70.136  1.00  0.00    -0.161 C  
BRANCH  23  24
HETATM   24  C   UNL     1     -12.049  11.917  69.597  1.00  0.00    -0.239 C  
BRANCH  24  25
HETATM   25  N   UNL     1     -12.527  12.749  70.670  1.00  0.00    -0.293 NA 
HETATM   26  C   UNL     1     -12.276  14.083  70.791  1.00  0.00    -0.367 A  
HETATM   27  N   UNL     1     -11.717  14.900  69.883  1.00  0.00    -0.286 NA 
HETATM   28  H2  UNL     1     -12.200  15.529  74.439  1.00  0.00     0.000 HD 
HETATM   29  H1  UNL     1     -12.507  17.108  74.102  1.00  0.00     0.000 HD 
HETATM   30  C   UNL     1     -13.099  12.316  71.835  1.00  0.00    -0.363 A  
HETATM   31  N   UNL     1     -13.194  13.288  72.718  1.00  0.00    -0.419 NA 
HETATM   32  C   UNL     1     -12.656  14.395  72.083  1.00  0.00    -0.296 A  
HETATM   33  C   UNL     1     -12.412  15.708  72.508  1.00  0.00    -0.428 A  
HETATM   34  N   UNL     1     -12.684  16.153  73.793  1.00  0.00    -0.587 NA 
HETATM   35  N   UNL     1     -11.882  16.586  71.621  1.00  0.00    -0.282 NA 
HETATM   36  C   UNL     1     -11.571  16.141  70.383  1.00  0.00    -0.277 A  
ENDBRANCH  24  25
ENDBRANCH  23  24
ENDBRANCH  22  23
ENDBRANCH  11  22
ENDBRANCH   8   9
ENDBRANCH   7   8
ENDBRANCH   5   7
ENDBRANCH   2   5
TORSDOF 12
ENDMDL
MODEL      274
REMARK 921   NORMALIZED FREE ENERGY PREDICTED BY IDOCK:   -3.30 KCAL/MOL
REMARK 922        TOTAL FREE ENERGY PREDICTED BY IDOCK:   -7.21 KCAL/MOL
REMARK 923 INTER-LIGAND FREE ENERGY PREDICTED BY IDOCK:   -8.26 KCAL/MOL
REMARK 924 INTRA-LIGAND FREE ENERGY PREDICTED BY IDOCK:    1.05 KCAL/MOL
REMARK 927      BINDING AFFINITY PREDICTED BY RF-SCORE:    0.00 PKD
ROOT
HETATM    1  C   UNL     1      -7.445   8.318  64.933  1.00  0.00    -0.092 C  
HETATM    2  C   UNL     1      -8.022   9.184  66.070  1.00  0.00    -0.103 C  
HETATM    3  C   UNL     1      -7.689   8.515  67.409  1.00  0.00    -0.098 C  
HETATM    4  C   UNL     1      -7.365  10.571  66.002  1.00  0.00    -0.137 C  
ENDROOT
BRANCH   2   5
HETATM    5  C   UNL     1      -9.538   9.326  65.862  1.00  0.00    -0.275 C  
HETATM    6  O   UNL     1     -10.354   8.500  66.263  1.00  0.00    -0.185 OA 
BRANCH   5   7
HETATM    7  O   UNL     1      -9.874  10.407  65.102  1.00  0.00    -0.267 OA 
BRANCH   7   8
HETATM    8  C   UNL     1      -9.578  11.676  65.714  1.00  0.00    -0.232 C  
BRANCH   8   9
HETATM    9  O   UNL     1     -10.550  12.093  66.669  1.00  0.00    -0.226 OA 
HETATM   10  P   UNL     1      -9.944  12.736  68.036  1.00  0.00    -0.230 P  
HETATM   11  C   UNL     1      -9.074  14.230  67.502  1.00  0.00    -0.193 C  
HETATM   12  O   UNL     1      -9.138  11.775  68.849  1.00  0.00    -0.047 OA 
HETATM   13  O   UNL     1     -11.186  13.429  68.790  1.00  0.00    -0.248 OA 
BRANCH  13  14
HETATM   14  C   UNL     1     -12.152  12.713  69.504  1.00  0.00    -0.192 C  
BRANCH  14  15
HETATM   15  O   UNL     1     -11.734  11.333  69.624  1.00  0.00    -0.286 OA 
BRANCH  15  16
HETATM   16  C   UNL     1     -12.264  10.641  70.672  1.00  0.00    -0.365 C  
HETATM   17  O   UNL     1     -13.212  11.035  71.342  1.00  0.00    -0.356 OA 
BRANCH  16  18
HETATM   18  C   UNL     1     -11.529   9.308  70.928  1.00  0.00    -0.367 C  
HETATM   19  C   UNL     1     -12.473   8.329  71.657  1.00  0.00    -0.351 C  
HETATM   20  C   UNL     1     -10.299   9.540  71.815  1.00  0.00     0.188 C  
HETATM   21  C   UNL     1     -11.101   8.657  69.605  1.00  0.00    -0.023 C  
ENDBRANCH  16  18
ENDBRANCH  15  16
ENDBRANCH  14  15
ENDBRANCH  13  14
BRANCH  11  22
HETATM   22  O   UNL     1     -10.074  15.002  66.832  1.00  0.00    -0.243 OA 
BRANCH  22  23
HETATM   23  C   UNL     1      -9.542  15.849  65.834  1.00  0.00    -0.343 C  
BRANCH  23  24
HETATM   24  C   UNL     1     -10.542  16.966  65.568  1.00  0.00    -0.202 C  
BRANCH  24  25
HETATM   25  N   UNL     1      -9.960  18.242  65.891  1.00  0.00    -0.556 NA 
HETATM   26  C   UNL     1      -8.628  18.468  66.067  1.00  0.00     0.004 A  
HETATM   27  N   UNL     1      -7.611  17.631  65.804  1.00  0.00    -0.527 NA 
HETATM   28  H2  UNL     1      -7.651  21.386  68.503  1.00  0.00     0.000 HD 
HETATM   29  H1  UNL     1      -6.137  21.700  67.944  1.00  0.00     0.000 HD 
HETATM   30  C   UNL     1     -10.638  19.360  66.294  1.00  0.00    -0.475 A  
HETATM   31  N   UNL     1      -9.820  20.281  66.758  1.00  0.00    -0.450 NA 
HETATM   32  C   UNL     1      -8.559  19.721  66.646  1.00  0.00    -0.335 A  
HETATM   33  C   UNL     1      -7.285  20.167  67.025  1.00  0.00    -0.255 A  
HETATM   34  N   UNL     1      -7.064  21.375  67.669  1.00  0.00    -0.382 NA 
HETATM   35  N   UNL     1      -6.217  19.378  66.751  1.00  0.00    -0.174 NA 
HETATM   36  C   UNL     1      -6.435  18.179  66.166  1.00  0.00    -0.235 A  
ENDBRANCH  24  25
ENDBRANCH  23  24
ENDBRANCH  22  23
ENDBRANCH  11  22
ENDBRANCH   8   9
ENDBRANCH   7   8
ENDBRANCH   5   7
ENDBRANCH   2   5
TORSDOF 12
ENDMDL
MODEL      275
REMARK 921   NORMALIZED FREE ENERGY PREDICTED BY IDOCK:   -3.28 KCAL/MOL
REMARK 922        TOTAL FREE ENERGY PREDICTED BY IDOCK:   -7.18 KCAL/MOL
REMARK 923 INTER-LIGAND FREE ENERGY PREDICTED BY IDOCK:   -6.56 KCAL/MOL
REMARK 924 INTRA-LIGAND FREE ENERGY PREDICTED BY IDOCK:   -0.63 KCAL/MOL
REMARK 927      BINDING AFFINITY PREDICTED BY RF-SCORE:    0.00 PKD
ROOT
HETATM    1  C   UNL     1      -9.924   4.112  68.032  1.00  0.00    -0.006 C  
HETATM    2  C   UNL     1      -9.261   4.431  66.678  1.00  0.00    -0.143 C  
HETATM    3  C   UNL     1      -8.153   3.402  66.424  1.00  0.00    -0.092 C  
HETATM    4  C   UNL     1     -10.330   4.328  65.580  1.00  0.00    -0.210 C  
ENDROOT
BRANCH   2   5
HETATM    5  C   UNL     1      -8.711   5.866  66.723  1.00  0.00    -0.117 C  
HETATM    6  O   UNL     1      -7.674   6.172  67.303  1.00  0.00    -0.092 OA 
BRANCH   5   7
HETATM    7  O   UNL     1      -9.544   6.774  66.141  1.00  0.00    -0.089 OA 
BRANCH   7   8
HETATM    8  C   UNL     1     -10.282   7.586  67.074  1.00  0.00    -0.298 C  
BRANCH   8   9
HETATM    9  O   UNL     1      -9.595   8.767  67.477  1.00  0.00    -0.144 OA 
HETATM   10  P   UNL     1     -10.495   9.843  68.302  1.00  0.00    -0.229 P  
HETATM   11  C   UNL     1     -10.972   8.983  69.820  1.00  0.00    -0.166 C  
HETATM   12  O   UNL     1     -11.620  10.424  67.507  1.00  0.00    -0.343 OA 
HETATM   13  O   UNL     1      -9.458  10.900  68.932  1.00  0.00    -0.188 OA 
BRANCH  13  14
HETATM   14  C   UNL     1      -8.845  11.916  68.191  1.00  0.00    -0.178 C  
BRANCH  14  15
HETATM   15  O   UNL     1      -9.855  12.837  67.714  1.00  0.00    -0.208 OA 
BRANCH  15  16
HETATM   16  C   UNL     1     -10.002  12.907  66.360  1.00  0.00    -0.267 C  
HETATM   17  O   UNL     1      -9.352  12.237  65.566  1.00  0.00    -0.097 OA 
BRANCH  16  18
HETATM   18  C   UNL     1     -11.073  13.935  65.938  1.00  0.00    -0.291 C  
HETATM   19  C   UNL     1     -12.072  13.271  64.968  1.00  0.00    -0.447 C  
HETATM   20  C   UNL     1     -10.419  15.121  65.217  1.00  0.00    -0.434 C  
HETATM   21  C   UNL     1     -11.859  14.438  67.158  1.00  0.00    -0.437 C  
ENDBRANCH  16  18
ENDBRANCH  15  16
ENDBRANCH  14  15
ENDBRANCH  13  14
BRANCH  11  22
HETATM   22  O   UNL     1      -9.730   8.609  70.421  1.00  0.00    -0.167 OA 
BRANCH  22  23
HETATM   23  C   UNL     1      -9.524   9.207  71.684  1.00  0.00    -0.113 C  
BRANCH  23  24
HETATM   24  C   UNL     1      -9.059   8.132  72.656  1.00  0.00    -0.250 C  
BRANCH  24  25
HETATM   25  N   UNL     1      -9.022   6.851  72.001  1.00  0.00    -0.133 NA 
HETATM   26  C   UNL     1      -9.761   5.767  72.368  1.00  0.00    -0.159 A  
HETATM   27  N   UNL     1     -10.768   5.723  73.256  1.00  0.00    -0.252 NA 
HETATM   28  H2  UNL     1      -8.217   2.245  71.587  1.00  0.00     0.000 HD 
HETATM   29  H1  UNL     1      -9.595   1.348  71.584  1.00  0.00     0.000 HD 
HETATM   30  C   UNL     1      -8.101   6.444  71.074  1.00  0.00    -0.121 A  
HETATM   31  N   UNL     1      -8.177   5.149  70.854  1.00  0.00    -0.107 NA 
HETATM   32  C   UNL     1      -9.197   4.709  71.680  1.00  0.00    -0.138 A  
HETATM   33  C   UNL     1      -9.717   3.436  71.953  1.00  0.00    -0.165 A  
HETATM   34  N   UNL     1      -9.216   2.274  71.386  1.00  0.00    -0.096 NA 
HETATM   35  N   UNL     1     -10.758   3.336  72.815  1.00  0.00    -0.084 NA 
HETATM   36  C   UNL     1     -11.217   4.462  73.406  1.00  0.00    -0.295 A  
ENDBRANCH  24  25
ENDBRANCH  23  24
ENDBRANCH  22  23
ENDBRANCH  11  22
ENDBRANCH   8   9
ENDBRANCH   7   8
ENDBRANCH   5   7
ENDBRANCH   2   5
TORSDOF 12
ENDMDL
MODEL      276
REMARK 921   NORMALIZED FREE ENERGY PREDICTED BY IDOCK:   -3.25 KCAL/MOL
REMARK 922        TOTAL FREE ENERGY PREDICTED BY IDOCK:   -7.13 KCAL/MOL
REMARK 923 INTER-LIGAND FREE ENERGY PREDICTED BY IDOCK:   -7.01 KCAL/MOL
REMARK 924 INTRA-LIGAND FREE ENERGY PREDICTED BY IDOCK:   -0.13 KCAL/MOL
REMARK 927      BINDING AFFINITY PREDICTED BY RF-SCORE:    0.00 PKD
ROOT
HETATM    1  C   UNL     1      -5.207   4.646  68.525  1.00  0.00    -0.007 C  
HETATM    2  C   UNL     1      -6.665   4.151  68.576  1.00  0.00    -0.046 C  
HETATM    3  C   UNL     1      -7.150   3.915  67.141  1.00  0.00    -0.063 C  
HETATM    4  C   UNL     1      -6.700   2.831  69.362  1.00  0.00    -0.034 C  
ENDROOT
BRANCH   2   5
HETATM    5  C   UNL     1      -7.519   5.201  69.305  1.00  0.00    -0.058 C  
HETATM    6  O   UNL     1      -7.721   5.183  70.516  1.00  0.00    -0.068 OA 
BRANCH   5   7
HETATM    7  O   UNL     1      -8.106   6.092  68.457  1.00  0.00    -0.106 OA 
BRANCH   7   8
HETATM    8  C   UNL     1      -7.494   7.396  68.448  1.00  0.00    -0.105 C  
BRANCH   8   9
HETATM    9  O   UNL     1      -8.308   8.408  67.862  1.00  0.00    -0.128 OA 
HETATM   10  P   UNL     1      -9.883   8.026  67.710  1.00  0.00    -0.188 P  
HETATM   11  C   UNL     1     -10.475   7.808  69.406  1.00  0.00    -0.220 C  
HETATM   12  O   UNL     1     -10.140   6.881  66.785  1.00  0.00    -0.201 OA 
HETATM   13  O   UNL     1     -10.642   9.401  67.358  1.00  0.00    -0.265 OA 
BRANCH  13  14
HETATM   14  C   UNL     1     -10.619   9.992  66.091  1.00  0.00    -0.000 C  
BRANCH  14  15
HETATM   15  O   UNL     1      -9.468   9.510  65.358  1.00  0.00    -0.249 OA 
BRANCH  15  16
HETATM   16  C   UNL     1      -9.230  10.116  64.160  1.00  0.00    -0.270 C  
HETATM   17  O   UNL     1     -10.026  10.864  63.602  1.00  0.00    -0.302 OA 
BRANCH  16  18
HETATM   18  C   UNL     1      -7.848   9.748  63.579  1.00  0.00    -0.140 C  
HETATM   19  C   UNL     1      -7.875   8.293  63.067  1.00  0.00    -0.148 C  
HETATM   20  C   UNL     1      -6.769   9.857  64.663  1.00  0.00    -0.123 C  
HETATM   21  C   UNL     1      -7.492  10.660  62.396  1.00  0.00    -0.158 C  
ENDBRANCH  16  18
ENDBRANCH  15  16
ENDBRANCH  14  15
ENDBRANCH  13  14
BRANCH  11  22
HETATM   22  O   UNL     1     -10.187   9.055  70.044  1.00  0.00    -0.187 OA 
BRANCH  22  23
HETATM   23  C   UNL     1     -11.346   9.721  70.503  1.00  0.00    -0.314 C  
BRANCH  23  24
HETATM   24  C   UNL     1     -11.427  11.076  69.813  1.00  0.00    -0.311 C  
BRANCH  24  25
HETATM   25  N   UNL     1     -12.263  11.970  70.570  1.00  0.00    -0.361 NA 
HETATM   26  C   UNL     1     -12.059  13.311  70.692  1.00  0.00    -0.280 A  
HETATM   27  N   UNL     1     -11.187  14.074  70.013  1.00  0.00    -0.093 NA 
HETATM   28  H2  UNL     1     -13.349  14.988  73.998  1.00  0.00     0.000 HD 
HETATM   29  H1  UNL     1     -13.483  16.540  73.471  1.00  0.00     0.000 HD 
HETATM   30  C   UNL     1     -13.240  11.606  71.457  1.00  0.00    -0.201 A  
HETATM   31  N   UNL     1     -13.648  12.631  72.175  1.00  0.00    -0.497 NA 
HETATM   32  C   UNL     1     -12.895  13.701  71.722  1.00  0.00    -0.315 A  
HETATM   33  C   UNL     1     -12.812  15.042  72.123  1.00  0.00    -0.335 A  
HETATM   34  N   UNL     1     -13.543  15.564  73.179  1.00  0.00    -0.485 NA 
HETATM   35  N   UNL     1     -11.973  15.866  71.449  1.00  0.00    -0.426 NA 
HETATM   36  C   UNL     1     -11.223  15.347  70.451  1.00  0.00    -0.323 A  
ENDBRANCH  24  25
ENDBRANCH  23  24
ENDBRANCH  22  23
ENDBRANCH  11  22
ENDBRANCH   8   9
ENDBRANCH   7   8
ENDBRANCH   5   7
ENDBRANCH   2   5
TORSDOF 12
ENDMDL
MODEL      277
REMARK 921   NORMALIZED FREE ENERGY PREDICTED BY IDOCK:   -3.23 KCAL/MOL
REMARK 922        TOTAL FREE ENERGY PREDICTED BY IDOCK:   -7.09 KCAL/MOL
REMARK 923 INTER-LIGAND FREE ENERGY PREDICTED BY IDOCK:   -5.61 KCAL/MOL
REMARK 924 INTRA-LIGAND FREE ENERGY PREDICTED BY IDOCK:   -1.48 KCAL/MOL
REMARK 927      BINDING AFFINITY PREDICTED BY RF-SCORE:    0.00 PKD
ROOT
HETATM    1  C   UNL     1      -5.878   1.785  70.918  1.00  0.00    -0.017 C  
HETATM    2  C   UNL     1      -6.974   2.828  70.626  1.00  0.00    -0.033 C  
HETATM    3  C   UNL     1      -8.293   2.332  71.232  1.00  0.00    -0.078 C  
HETATM    4  C   UNL     1      -6.566   4.156  71.284  1.00  0.00    -0.030 C  
ENDROOT
BRANCH   2   5
HETATM    5  C   UNL     1      -7.079   3.023  69.105  1.00  0.00    -0.045 C  
HETATM    6  O   UNL     1      -6.863   2.127  68.295  1.00  0.00    -0.038 OA 
BRANCH   5   7
HETATM    7  O   UNL     1      -7.338   4.313  68.749  1.00  0.00    -0.055 OA 
BRANCH   7   8
HETATM    8  C   UNL     1      -8.652   4.525  68.200  1.00  0.00    -0.101 C  
BRANCH   8   9
HETATM    9  O   UNL     1      -8.909   5.878  67.833  1.00  0.00    -0.108 OA 
HETATM   10  P   UNL     1     -10.475   6.237  67.575  1.00  0.00    -0.316 P  
HETATM   11  C   UNL     1     -11.282   5.977  69.173  1.00  0.00    -0.267 C  
HETATM   12  O   UNL     1     -11.080   5.507  66.420  1.00  0.00    -0.167 OA 
HETATM   13  O   UNL     1     -10.558   7.844  67.515  1.00  0.00    -0.261 OA 
BRANCH  13  14
HETATM   14  C   UNL     1     -10.158   8.596  66.406  1.00  0.00    -0.224 C  
BRANCH  14  15
HETATM   15  O   UNL     1      -8.752   8.366  66.152  1.00  0.00    -0.133 OA 
BRANCH  15  16
HETATM   16  C   UNL     1      -8.262   8.901  64.998  1.00  0.00    -0.153 C  
HETATM   17  O   UNL     1      -8.424  10.069  64.662  1.00  0.00    -0.154 OA 
BRANCH  16  18
HETATM   18  C   UNL     1      -7.487   7.867  64.153  1.00  0.00    -0.105 C  
HETATM   19  C   UNL     1      -6.007   7.851  64.588  1.00  0.00    -0.045 C  
HETATM   20  C   UNL     1      -7.548   8.240  62.667  1.00  0.00    -0.118 C  
HETATM   21  C   UNL     1      -8.058   6.456  64.359  1.00  0.00    -0.076 C  
ENDBRANCH  16  18
ENDBRANCH  15  16
ENDBRANCH  14  15
ENDBRANCH  13  14
BRANCH  11  22
HETATM   22  O   UNL     1     -10.576   6.839  70.071  1.00  0.00    -0.202 OA 
BRANCH  22  23
HETATM   23  C   UNL     1     -11.308   7.134  71.243  1.00  0.00    -0.268 C  
BRANCH  23  24
HETATM   24  C   UNL     1     -11.729   8.596  71.192  1.00  0.00    -0.288 C  
BRANCH  24  25
HETATM   25  N   UNL     1     -10.659   9.404  70.668  1.00  0.00    -0.265 NA 
HETATM   26  C   UNL     1     -10.804  10.361  69.710  1.00  0.00    -0.292 A  
HETATM   27  N   UNL     1     -11.948  10.858  69.211  1.00  0.00    -0.327 NA 
HETATM   28  H2  UNL     1      -7.687  11.040  67.424  1.00  0.00     0.000 HD 
HETATM   29  H1  UNL     1      -8.053  12.563  66.925  1.00  0.00     0.000 HD 
HETATM   30  C   UNL     1      -9.321   9.199  70.865  1.00  0.00    -0.269 A  
HETATM   31  N   UNL     1      -8.593   9.941  70.059  1.00  0.00    -0.201 NA 
HETATM   32  C   UNL     1      -9.514  10.655  69.310  1.00  0.00    -0.133 A  
HETATM   33  C   UNL     1      -9.377  11.559  68.247  1.00  0.00    -0.190 A  
HETATM   34  N   UNL     1      -8.152  11.905  67.698  1.00  0.00    -0.138 NA 
HETATM   35  N   UNL     1     -10.497  12.119  67.729  1.00  0.00    -0.201 NA 
HETATM   36  C   UNL     1     -11.696  11.746  68.230  1.00  0.00    -0.310 A  
ENDBRANCH  24  25
ENDBRANCH  23  24
ENDBRANCH  22  23
ENDBRANCH  11  22
ENDBRANCH   8   9
ENDBRANCH   7   8
ENDBRANCH   5   7
ENDBRANCH   2   5
TORSDOF 12
ENDMDL
MODEL      278
REMARK 921   NORMALIZED FREE ENERGY PREDICTED BY IDOCK:   -3.21 KCAL/MOL
REMARK 922        TOTAL FREE ENERGY PREDICTED BY IDOCK:   -7.07 KCAL/MOL
REMARK 923 INTER-LIGAND FREE ENERGY PREDICTED BY IDOCK:   -6.58 KCAL/MOL
REMARK 924 INTRA-LIGAND FREE ENERGY PREDICTED BY IDOCK:   -0.49 KCAL/MOL
REMARK 927      BINDING AFFINITY PREDICTED BY RF-SCORE:    0.00 PKD
ROOT
HETATM    1  C   UNL     1     -10.414  10.748  65.615  1.00  0.00    -0.255 C  
HETATM    2  C   UNL     1     -10.820  11.896  64.671  1.00  0.00    -0.363 C  
HETATM    3  C   UNL     1     -10.161  11.661  63.307  1.00  0.00    -0.445 C  
HETATM    4  C   UNL     1     -12.350  11.880  64.521  1.00  0.00    -0.183 C  
ENDROOT
BRANCH   2   5
HETATM    5  C   UNL     1     -10.383  13.230  65.297  1.00  0.00    -0.312 C  
HETATM    6  O   UNL     1     -10.628  14.323  64.795  1.00  0.00    -0.418 OA 
BRANCH   5   7
HETATM    7  O   UNL     1      -9.610  13.069  66.409  1.00  0.00    -0.262 OA 
BRANCH   7   8
HETATM    8  C   UNL     1     -10.032  13.851  67.542  1.00  0.00    -0.240 C  
BRANCH   8   9
HETATM    9  O   UNL     1      -9.417  15.135  67.615  1.00  0.00    -0.200 OA 
HETATM   10  P   UNL     1      -9.020  15.626  69.115  1.00  0.00    -0.268 P  
HETATM   11  C   UNL     1      -7.786  14.433  69.684  1.00  0.00     0.223 C  
HETATM   12  O   UNL     1     -10.195  15.821  70.017  1.00  0.00    -0.297 OA 
HETATM   13  O   UNL     1      -8.059  16.903  68.924  1.00  0.00    -0.248 OA 
BRANCH  13  14
HETATM   14  C   UNL     1      -8.526  18.177  68.583  1.00  0.00    -0.270 C  
BRANCH  14  15
HETATM   15  O   UNL     1      -9.837  18.061  67.981  1.00  0.00    -0.294 OA 
BRANCH  15  16
HETATM   16  C   UNL     1      -9.907  18.352  66.651  1.00  0.00    -0.353 C  
HETATM   17  O   UNL     1     -10.039  17.508  65.772  1.00  0.00    -0.551 OA 
BRANCH  16  18
HETATM   18  C   UNL     1      -9.790  19.866  66.374  1.00  0.00    -0.572 C  
HETATM   19  C   UNL     1      -8.370  20.189  65.865  1.00  0.00    -0.118 C  
HETATM   20  C   UNL     1     -10.033  20.664  67.661  1.00  0.00    -0.388 C  
HETATM   21  C   UNL     1     -10.791  20.303  65.295  1.00  0.00     0.190 C  
ENDBRANCH  16  18
ENDBRANCH  15  16
ENDBRANCH  14  15
ENDBRANCH  13  14
BRANCH  11  22
HETATM   22  O   UNL     1      -6.748  14.500  68.703  1.00  0.00    -0.080 OA 
BRANCH  22  23
HETATM   23  C   UNL     1      -5.510  14.009  69.174  1.00  0.00    -0.077 C  
BRANCH  23  24
HETATM   24  C   UNL     1      -5.176  12.735  68.411  1.00  0.00    -0.065 C  
BRANCH  24  25
HETATM   25  N   UNL     1      -6.109  11.693  68.750  1.00  0.00    -0.048 NA 
HETATM   26  C   UNL     1      -6.000  10.872  69.832  1.00  0.00    -0.089 A  
HETATM   27  N   UNL     1      -5.143  10.979  70.861  1.00  0.00    -0.094 NA 
HETATM   28  H2  UNL     1      -7.577   7.295  69.485  1.00  0.00     0.000 HD 
HETATM   29  H1  UNL     1      -7.783   6.942  71.077  1.00  0.00     0.000 HD 
HETATM   30  C   UNL     1      -7.107  11.209  67.948  1.00  0.00    -0.081 A  
HETATM   31  N   UNL     1      -7.620  10.098  68.431  1.00  0.00    -0.086 NA 
HETATM   32  C   UNL     1      -6.915   9.862  69.599  1.00  0.00    -0.086 A  
HETATM   33  C   UNL     1      -6.942   8.814  70.530  1.00  0.00    -0.048 A  
HETATM   34  N   UNL     1      -7.763   7.705  70.400  1.00  0.00    -0.089 NA 
HETATM   35  N   UNL     1      -6.123   8.887  71.608  1.00  0.00    -0.061 NA 
HETATM   36  C   UNL     1      -5.287   9.945  71.711  1.00  0.00    -0.048 A  
ENDBRANCH  24  25
ENDBRANCH  23  24
ENDBRANCH  22  23
ENDBRANCH  11  22
ENDBRANCH   8   9
ENDBRANCH   7   8
ENDBRANCH   5   7
ENDBRANCH   2   5
TORSDOF 12
ENDMDL
MODEL      279
REMARK 921   NORMALIZED FREE ENERGY PREDICTED BY IDOCK:   -3.21 KCAL/MOL
REMARK 922        TOTAL FREE ENERGY PREDICTED BY IDOCK:   -7.06 KCAL/MOL
REMARK 923 INTER-LIGAND FREE ENERGY PREDICTED BY IDOCK:   -5.69 KCAL/MOL
REMARK 924 INTRA-LIGAND FREE ENERGY PREDICTED BY IDOCK:   -1.37 KCAL/MOL
REMARK 927      BINDING AFFINITY PREDICTED BY RF-SCORE:    0.00 PKD
ROOT
HETATM    1  C   UNL     1      -9.245   3.886  63.822  1.00  0.00    -0.129 C  
HETATM    2  C   UNL     1      -8.123   3.628  64.847  1.00  0.00    -0.090 C  
HETATM    3  C   UNL     1      -8.766   3.278  66.195  1.00  0.00    -0.128 C  
HETATM    4  C   UNL     1      -7.279   2.444  64.350  1.00  0.00    -0.054 C  
ENDROOT
BRANCH   2   5
HETATM    5  C   UNL     1      -7.241   4.882  64.941  1.00  0.00    -0.063 C  
HETATM    6  O   UNL     1      -6.208   4.931  65.603  1.00  0.00    -0.032 OA 
BRANCH   5   7
HETATM    7  O   UNL     1      -7.774   5.959  64.298  1.00  0.00    -0.091 OA 
BRANCH   7   8
HETATM    8  C   UNL     1      -7.823   7.160  65.091  1.00  0.00    -0.124 C  
BRANCH   8   9
HETATM    9  O   UNL     1      -8.720   7.082  66.195  1.00  0.00    -0.137 OA 
HETATM   10  P   UNL     1      -8.145   7.678  67.596  1.00  0.00    -0.122 P  
HETATM   11  C   UNL     1      -7.875   9.438  67.276  1.00  0.00    -0.099 C  
HETATM   12  O   UNL     1      -6.967   6.931  68.132  1.00  0.00    -0.074 OA 
HETATM   13  O   UNL     1      -9.412   7.798  68.582  1.00  0.00    -0.151 OA 
BRANCH  13  14
HETATM   14  C   UNL     1      -9.987   6.703  69.235  1.00  0.00    -0.158 C  
BRANCH  14  15
HETATM   15  O   UNL     1      -9.323   6.499  70.505  1.00  0.00    -0.161 OA 
BRANCH  15  16
HETATM   16  C   UNL     1     -10.120   6.569  71.609  1.00  0.00    -0.182 C  
HETATM   17  O   UNL     1     -11.149   5.919  71.753  1.00  0.00    -0.263 OA 
BRANCH  16  18
HETATM   18  C   UNL     1      -9.585   7.569  72.656  1.00  0.00    -0.220 C  
HETATM   19  C   UNL     1      -8.185   8.060  72.233  1.00  0.00    -0.186 C  
HETATM   20  C   UNL     1      -9.463   6.891  74.026  1.00  0.00    -0.273 C  
HETATM   21  C   UNL     1     -10.505   8.794  72.762  1.00  0.00     0.279 C  
ENDBRANCH  16  18
ENDBRANCH  15  16
ENDBRANCH  14  15
ENDBRANCH  13  14
BRANCH  11  22
HETATM   22  O   UNL     1      -9.154   9.924  66.863  1.00  0.00    -0.140 OA 
BRANCH  22  23
HETATM   23  C   UNL     1      -9.089  11.186  66.232  1.00  0.00    -0.194 C  
BRANCH  23  24
HETATM   24  C   UNL     1     -10.477  11.810  66.258  1.00  0.00    -0.244 C  
BRANCH  24  25
HETATM   25  N   UNL     1     -10.460  13.030  67.021  1.00  0.00    -0.246 NA 
HETATM   26  C   UNL     1     -10.357  14.280  66.489  1.00  0.00    -0.278 A  
HETATM   27  N   UNL     1     -10.435  14.631  65.195  1.00  0.00    -0.393 NA 
HETATM   28  H2  UNL     1      -8.661  17.011  68.741  1.00  0.00     0.000 HD 
HETATM   29  H1  UNL     1      -9.295  18.358  68.044  1.00  0.00     0.000 HD 
HETATM   30  C   UNL     1     -10.314  13.133  68.378  1.00  0.00    -0.253 A  
HETATM   31  N   UNL     1     -10.081  14.374  68.748  1.00  0.00    -0.239 NA 
HETATM   32  C   UNL     1     -10.079  15.099  67.568  1.00  0.00    -0.232 A  
HETATM   33  C   UNL     1      -9.827  16.448  67.283  1.00  0.00    -0.245 A  
HETATM   34  N   UNL     1      -9.478  17.376  68.252  1.00  0.00    -0.280 NA 
HETATM   35  N   UNL     1      -9.928  16.865  65.997  1.00  0.00    -0.448 NA 
HETATM   36  C   UNL     1     -10.221  15.952  65.044  1.00  0.00    -0.042 A  
ENDBRANCH  24  25
ENDBRANCH  23  24
ENDBRANCH  22  23
ENDBRANCH  11  22
ENDBRANCH   8   9
ENDBRANCH   7   8
ENDBRANCH   5   7
ENDBRANCH   2   5
TORSDOF 12
ENDMDL
MODEL      280
REMARK 921   NORMALIZED FREE ENERGY PREDICTED BY IDOCK:   -3.19 KCAL/MOL
REMARK 922        TOTAL FREE ENERGY PREDICTED BY IDOCK:   -7.02 KCAL/MOL
REMARK 923 INTER-LIGAND FREE ENERGY PREDICTED BY IDOCK:   -7.02 KCAL/MOL
REMARK 924 INTRA-LIGAND FREE ENERGY PREDICTED BY IDOCK:    0.00 KCAL/MOL
REMARK 927      BINDING AFFINITY PREDICTED BY RF-SCORE:    0.00 PKD
ROOT
HETATM    1  C   UNL     1     -10.684   5.304  66.800  1.00  0.00    -0.241 C  
HETATM    2  C   UNL     1      -9.298   4.706  66.490  1.00  0.00    -0.151 C  
HETATM    3  C   UNL     1      -9.270   3.256  66.989  1.00  0.00    -0.206 C  
HETATM    4  C   UNL     1      -9.086   4.738  64.969  1.00  0.00    -0.150 C  
ENDROOT
BRANCH   2   5
HETATM    5  C   UNL     1      -8.224   5.568  67.173  1.00  0.00    -0.101 C  
HETATM    6  O   UNL     1      -7.302   5.098  67.833  1.00  0.00    -0.073 OA 
BRANCH   5   7
HETATM    7  O   UNL     1      -8.459   6.905  67.055  1.00  0.00    -0.119 OA 
BRANCH   7   8
HETATM    8  C   UNL     1      -7.891   7.704  68.110  1.00  0.00    -0.121 C  
BRANCH   8   9
HETATM    9  O   UNL     1      -8.035   9.107  67.909  1.00  0.00    -0.100 OA 
HETATM   10  P   UNL     1      -9.511   9.587  67.421  1.00  0.00    -0.142 P  
HETATM   11  C   UNL     1     -10.617   9.147  68.783  1.00  0.00    -0.181 C  
HETATM   12  O   UNL     1      -9.903   9.064  66.076  1.00  0.00    -0.277 OA 
HETATM   13  O   UNL     1      -9.536  11.188  67.589  1.00  0.00    -0.167 OA 
BRANCH  13  14
HETATM   14  C   UNL     1      -8.910  12.067  66.700  1.00  0.00    -0.191 C  
BRANCH  14  15
HETATM   15  O   UNL     1      -9.659  13.304  66.641  1.00  0.00    -0.250 OA 
BRANCH  15  16
HETATM   16  C   UNL     1     -10.236  13.592  65.440  1.00  0.00    -0.302 C  
HETATM   17  O   UNL     1      -9.708  13.372  64.356  1.00  0.00    -0.052 OA 
BRANCH  16  18
HETATM   18  C   UNL     1     -11.630  14.236  65.598  1.00  0.00    -0.346 C  
HETATM   19  C   UNL     1     -12.718  13.220  65.191  1.00  0.00    -0.464 C  
HETATM   20  C   UNL     1     -11.755  15.465  64.688  1.00  0.00    -0.267 C  
HETATM   21  C   UNL     1     -11.882  14.642  67.058  1.00  0.00    -0.358 C  
ENDBRANCH  16  18
ENDBRANCH  15  16
ENDBRANCH  14  15
ENDBRANCH  13  14
BRANCH  11  22
HETATM   22  O   UNL     1     -10.075   9.831  69.915  1.00  0.00    -0.220 OA 
BRANCH  22  23
HETATM   23  C   UNL     1     -10.898   9.745  71.060  1.00  0.00    -0.308 C  
BRANCH  23  24
HETATM   24  C   UNL     1     -11.808   8.534  70.908  1.00  0.00    -0.217 C  
BRANCH  24  25
HETATM   25  N   UNL     1     -11.385   7.480  71.792  1.00  0.00    -0.248 NA 
HETATM   26  C   UNL     1     -10.248   7.502  72.541  1.00  0.00    -0.232 A  
HETATM   27  N   UNL     1      -9.419   8.539  72.746  1.00  0.00    -0.230 NA 
HETATM   28  H2  UNL     1      -8.625   4.025  73.366  1.00  0.00     0.000 HD 
HETATM   29  H1  UNL     1      -7.764   4.447  74.702  1.00  0.00     0.000 HD 
HETATM   30  C   UNL     1     -11.912   6.219  71.856  1.00  0.00    -0.286 A  
HETATM   31  N   UNL     1     -11.156   5.414  72.571  1.00  0.00    -0.256 NA 
HETATM   32  C   UNL     1     -10.095   6.201  72.984  1.00  0.00    -0.183 A  
HETATM   33  C   UNL     1      -8.930   5.920  73.713  1.00  0.00    -0.127 A  
HETATM   34  N   UNL     1      -8.610   4.651  74.171  1.00  0.00    -0.104 NA 
HETATM   35  N   UNL     1      -8.075   6.937  73.980  1.00  0.00    -0.117 NA 
HETATM   36  C   UNL     1      -8.362   8.165  73.492  1.00  0.00    -0.236 A  
ENDBRANCH  24  25
ENDBRANCH  23  24
ENDBRANCH  22  23
ENDBRANCH  11  22
ENDBRANCH   8   9
ENDBRANCH   7   8
ENDBRANCH   5   7
ENDBRANCH   2   5
TORSDOF 12
ENDMDL
MODEL      281
REMARK 921   NORMALIZED FREE ENERGY PREDICTED BY IDOCK:   -3.17 KCAL/MOL
REMARK 922        TOTAL FREE ENERGY PREDICTED BY IDOCK:   -7.00 KCAL/MOL
REMARK 923 INTER-LIGAND FREE ENERGY PREDICTED BY IDOCK:   -6.78 KCAL/MOL
REMARK 924 INTRA-LIGAND FREE ENERGY PREDICTED BY IDOCK:   -0.22 KCAL/MOL
REMARK 927      BINDING AFFINITY PREDICTED BY RF-SCORE:    0.00 PKD
ROOT
HETATM    1  C   UNL     1      -9.856   3.523  70.498  1.00  0.00    -0.076 C  
HETATM    2  C   UNL     1      -9.941   5.062  70.483  1.00  0.00    -0.312 C  
HETATM    3  C   UNL     1     -10.895   5.509  71.597  1.00  0.00    -0.271 C  
HETATM    4  C   UNL     1      -8.535   5.626  70.744  1.00  0.00    -0.124 C  
ENDROOT
BRANCH   2   5
HETATM    5  C   UNL     1     -10.424   5.517  69.097  1.00  0.00    -0.244 C  
HETATM    6  O   UNL     1     -10.091   4.964  68.052  1.00  0.00    -0.140 OA 
BRANCH   5   7
HETATM    7  O   UNL     1     -11.177   6.652  69.140  1.00  0.00    -0.278 OA 
BRANCH   7   8
HETATM    8  C   UNL     1     -10.415   7.863  69.304  1.00  0.00    -0.216 C  
BRANCH   8   9
HETATM    9  O   UNL     1     -10.304   8.637  68.112  1.00  0.00    -0.211 OA 
HETATM   10  P   UNL     1     -10.117  10.237  68.343  1.00  0.00    -0.178 P  
HETATM   11  C   UNL     1      -8.537  10.400  69.210  1.00  0.00    -0.150 C  
HETATM   12  O   UNL     1     -11.286  10.893  69.003  1.00  0.00    -0.235 OA 
HETATM   13  O   UNL     1      -9.680  10.844  66.918  1.00  0.00    -0.176 OA 
BRANCH  13  14
HETATM   14  C   UNL     1     -10.574  11.057  65.864  1.00  0.00    -0.206 C  
BRANCH  14  15
HETATM   15  O   UNL     1     -10.075  12.123  65.021  1.00  0.00    -0.269 OA 
BRANCH  15  16
HETATM   16  C   UNL     1     -10.103  13.373  65.565  1.00  0.00    -0.266 C  
HETATM   17  O   UNL     1      -9.213  13.831  66.272  1.00  0.00    -0.195 OA 
BRANCH  16  18
HETATM   18  C   UNL     1     -11.390  14.144  65.200  1.00  0.00    -0.336 C  
HETATM   19  C   UNL     1     -12.408  14.025  66.353  1.00  0.00    -0.468 C  
HETATM   20  C   UNL     1     -12.024  13.553  63.935  1.00  0.00    -0.491 C  
HETATM   21  C   UNL     1     -11.090  15.635  64.984  1.00  0.00    -0.399 C  
ENDBRANCH  16  18
ENDBRANCH  15  16
ENDBRANCH  14  15
ENDBRANCH  13  14
BRANCH  11  22
HETATM   22  O   UNL     1      -7.590   9.774  68.342  1.00  0.00    -0.079 OA 
BRANCH  22  23
HETATM   23  C   UNL     1      -6.723  10.695  67.712  1.00  0.00    -0.068 C  
BRANCH  23  24
HETATM   24  C   UNL     1      -5.495  10.880  68.593  1.00  0.00    -0.040 C  
BRANCH  24  25
HETATM   25  N   UNL     1      -5.669  12.019  69.455  1.00  0.00    -0.068 NA 
HETATM   26  C   UNL     1      -5.687  13.316  69.038  1.00  0.00    -0.076 A  
HETATM   27  N   UNL     1      -5.732  13.772  67.775  1.00  0.00    -0.268 NA 
HETATM   28  H2  UNL     1      -4.465  16.007  71.621  1.00  0.00     0.000 HD 
HETATM   29  H1  UNL     1      -5.216  17.330  70.997  1.00  0.00     0.000 HD 
HETATM   30  C   UNL     1      -5.615  12.013  70.822  1.00  0.00    -0.123 A  
HETATM   31  N   UNL     1      -5.555  13.234  71.310  1.00  0.00    -0.302 NA 
HETATM   32  C   UNL     1      -5.572  14.059  70.198  1.00  0.00    -0.118 A  
HETATM   33  C   UNL     1      -5.469  15.449  70.044  1.00  0.00    -0.123 A  
HETATM   34  N   UNL     1      -5.291  16.319  71.109  1.00  0.00    -0.063 NA 
HETATM   35  N   UNL     1      -5.545  15.967  68.794  1.00  0.00    -0.106 NA 
HETATM   36  C   UNL     1      -5.670  15.117  67.750  1.00  0.00    -0.101 A  
ENDBRANCH  24  25
ENDBRANCH  23  24
ENDBRANCH  22  23
ENDBRANCH  11  22
ENDBRANCH   8   9
ENDBRANCH   7   8
ENDBRANCH   5   7
ENDBRANCH   2   5
TORSDOF 12
ENDMDL
MODEL      282
REMARK 921   NORMALIZED FREE ENERGY PREDICTED BY IDOCK:   -3.17 KCAL/MOL
REMARK 922        TOTAL FREE ENERGY PREDICTED BY IDOCK:   -6.99 KCAL/MOL
REMARK 923 INTER-LIGAND FREE ENERGY PREDICTED BY IDOCK:   -6.47 KCAL/MOL
REMARK 924 INTRA-LIGAND FREE ENERGY PREDICTED BY IDOCK:   -0.52 KCAL/MOL
REMARK 927      BINDING AFFINITY PREDICTED BY RF-SCORE:    0.00 PKD
ROOT
HETATM    1  C   UNL     1     -10.493   7.231  73.630  1.00  0.00    -0.391 C  
HETATM    2  C   UNL     1     -11.308   7.471  72.344  1.00  0.00    -0.360 C  
HETATM    3  C   UNL     1     -12.202   6.250  72.099  1.00  0.00    -0.255 C  
HETATM    4  C   UNL     1     -12.179   8.721  72.551  1.00  0.00    -0.347 C  
ENDROOT
BRANCH   2   5
HETATM    5  C   UNL     1     -10.335   7.714  71.180  1.00  0.00    -0.200 C  
HETATM    6  O   UNL     1      -9.117   7.774  71.322  1.00  0.00    -0.135 OA 
BRANCH   5   7
HETATM    7  O   UNL     1     -10.967   7.953  69.997  1.00  0.00    -0.249 OA 
BRANCH   7   8
HETATM    8  C   UNL     1     -10.917   6.857  69.064  1.00  0.00    -0.181 C  
BRANCH   8   9
HETATM    9  O   UNL     1      -9.604   6.559  68.599  1.00  0.00    -0.126 OA 
HETATM   10  P   UNL     1      -9.366   6.795  67.006  1.00  0.00    -0.154 P  
HETATM   11  C   UNL     1      -9.610   8.570  66.757  1.00  0.00    -0.210 C  
HETATM   12  O   UNL     1     -10.188   5.902  66.134  1.00  0.00    -0.070 OA 
HETATM   13  O   UNL     1      -7.774   6.730  66.780  1.00  0.00    -0.101 OA 
BRANCH  13  14
HETATM   14  C   UNL     1      -7.046   5.536  66.755  1.00  0.00    -0.070 C  
BRANCH  14  15
HETATM   15  O   UNL     1      -7.466   4.696  67.857  1.00  0.00    -0.075 OA 
BRANCH  15  16
HETATM   16  C   UNL     1      -7.834   3.425  67.527  1.00  0.00    -0.077 C  
HETATM   17  O   UNL     1      -7.768   2.966  66.392  1.00  0.00    -0.075 OA 
BRANCH  16  18
HETATM   18  C   UNL     1      -8.356   2.630  68.743  1.00  0.00    -0.087 C  
HETATM   19  C   UNL     1      -7.167   1.997  69.495  1.00  0.00    -0.039 C  
HETATM   20  C   UNL     1      -9.289   1.503  68.283  1.00  0.00    -0.234 C  
HETATM   21  C   UNL     1      -9.098   3.553  69.721  1.00  0.00    -0.196 C  
ENDBRANCH  16  18
ENDBRANCH  15  16
ENDBRANCH  14  15
ENDBRANCH  13  14
BRANCH  11  22
HETATM   22  O   UNL     1      -8.662   9.185  67.633  1.00  0.00    -0.120 OA 
BRANCH  22  23
HETATM   23  C   UNL     1      -8.632  10.592  67.517  1.00  0.00    -0.121 C  
BRANCH  23  24
HETATM   24  C   UNL     1      -8.466  10.950  66.046  1.00  0.00    -0.167 C  
BRANCH  24  25
HETATM   25  N   UNL     1      -9.642  11.626  65.564  1.00  0.00    -0.227 NA 
HETATM   26  C   UNL     1      -9.890  12.958  65.711  1.00  0.00    -0.209 A  
HETATM   27  N   UNL     1      -9.046  13.907  66.150  1.00  0.00    -0.008 NA 
HETATM   28  H2  UNL     1     -13.661  14.033  65.874  1.00  0.00     0.000 HD 
HETATM   29  H1  UNL     1     -13.506  15.606  65.422  1.00  0.00     0.000 HD 
HETATM   30  C   UNL     1     -10.782  11.031  65.095  1.00  0.00    -0.183 A  
HETATM   31  N   UNL     1     -11.764  11.898  64.971  1.00  0.00    -0.245 NA 
HETATM   32  C   UNL     1     -11.224  13.105  65.381  1.00  0.00    -0.291 A  
HETATM   33  C   UNL     1     -11.772  14.386  65.541  1.00  0.00    -0.352 A  
HETATM   34  N   UNL     1     -13.107  14.674  65.306  1.00  0.00    -0.305 NA 
HETATM   35  N   UNL     1     -10.957  15.390  65.947  1.00  0.00    -0.318 NA 
HETATM   36  C   UNL     1      -9.665  15.100  66.223  1.00  0.00    -0.290 A  
ENDBRANCH  24  25
ENDBRANCH  23  24
ENDBRANCH  22  23
ENDBRANCH  11  22
ENDBRANCH   8   9
ENDBRANCH   7   8
ENDBRANCH   5   7
ENDBRANCH   2   5
TORSDOF 12
ENDMDL
MODEL      283
REMARK 921   NORMALIZED FREE ENERGY PREDICTED BY IDOCK:   -3.15 KCAL/MOL
REMARK 922        TOTAL FREE ENERGY PREDICTED BY IDOCK:   -6.96 KCAL/MOL
REMARK 923 INTER-LIGAND FREE ENERGY PREDICTED BY IDOCK:   -5.91 KCAL/MOL
REMARK 924 INTRA-LIGAND FREE ENERGY PREDICTED BY IDOCK:   -1.05 KCAL/MOL
REMARK 927      BINDING AFFINITY PREDICTED BY RF-SCORE:    0.00 PKD
ROOT
HETATM    1  C   UNL     1      -8.418  17.034  65.846  1.00  0.00    -0.023 C  
HETATM    2  C   UNL     1      -8.813  17.583  67.231  1.00  0.00    -0.235 C  
HETATM    3  C   UNL     1      -8.004  18.857  67.499  1.00  0.00    -0.264 C  
HETATM    4  C   UNL     1     -10.314  17.914  67.209  1.00  0.00    -0.374 C  
ENDROOT
BRANCH   2   5
HETATM    5  C   UNL     1      -8.544  16.499  68.287  1.00  0.00    -0.200 C  
HETATM    6  O   UNL     1      -7.975  16.723  69.352  1.00  0.00    -0.107 OA 
BRANCH   5   7
HETATM    7  O   UNL     1      -8.910  15.252  67.877  1.00  0.00    -0.163 OA 
BRANCH   7   8
HETATM    8  C   UNL     1     -10.230  14.855  68.292  1.00  0.00    -0.225 C  
BRANCH   8   9
HETATM    9  O   UNL     1     -10.291  13.536  68.827  1.00  0.00    -0.226 OA 
HETATM   10  P   UNL     1     -10.796  12.391  67.786  1.00  0.00    -0.249 P  
HETATM   11  C   UNL     1      -9.540  12.359  66.485  1.00  0.00    -0.240 C  
HETATM   12  O   UNL     1     -12.204  12.576  67.321  1.00  0.00    -0.454 OA 
HETATM   13  O   UNL     1     -10.464  10.979  68.485  1.00  0.00    -0.172 OA 
BRANCH  13  14
HETATM   14  C   UNL     1     -11.227  10.433  69.522  1.00  0.00    -0.269 C  
BRANCH  14  15
HETATM   15  O   UNL     1     -10.344   9.948  70.562  1.00  0.00    -0.286 OA 
BRANCH  15  16
HETATM   16  C   UNL     1     -10.065   8.614  70.529  1.00  0.00    -0.196 C  
HETATM   17  O   UNL     1     -10.920   7.735  70.549  1.00  0.00    -0.239 OA 
BRANCH  16  18
HETATM   18  C   UNL     1      -8.548   8.332  70.475  1.00  0.00    -0.131 C  
HETATM   19  C   UNL     1      -8.307   6.906  69.937  1.00  0.00    -0.139 C  
HETATM   20  C   UNL     1      -7.939   8.426  71.879  1.00  0.00    -0.180 C  
HETATM   21  C   UNL     1      -7.843   9.320  69.534  1.00  0.00    -0.086 C  
ENDBRANCH  16  18
ENDBRANCH  15  16
ENDBRANCH  14  15
ENDBRANCH  13  14
BRANCH  11  22
HETATM   22  O   UNL     1      -8.319  12.088  67.177  1.00  0.00    -0.167 OA 
BRANCH  22  23
HETATM   23  C   UNL     1      -7.564  11.053  66.582  1.00  0.00    -0.146 C  
BRANCH  23  24
HETATM   24  C   UNL     1      -8.229  10.666  65.268  1.00  0.00    -0.105 C  
BRANCH  24  25
HETATM   25  N   UNL     1      -7.793   9.358  64.855  1.00  0.00    -0.112 NA 
HETATM   26  C   UNL     1      -8.301   8.184  65.323  1.00  0.00    -0.152 A  
HETATM   27  N   UNL     1      -9.390   8.008  66.089  1.00  0.00    -0.178 NA 
HETATM   28  H2  UNL     1      -5.868   5.104  65.347  1.00  0.00     0.000 HD 
HETATM   29  H1  UNL     1      -6.979   3.892  65.349  1.00  0.00     0.000 HD 
HETATM   30  C   UNL     1      -6.672   9.074  64.122  1.00  0.00    -0.083 A  
HETATM   31  N   UNL     1      -6.406   7.785  64.125  1.00  0.00    -0.056 NA 
HETATM   32  C   UNL     1      -7.406   7.220  64.898  1.00  0.00    -0.080 A  
HETATM   33  C   UNL     1      -7.646   5.908  65.331  1.00  0.00    -0.085 A  
HETATM   34  N   UNL     1      -6.804   4.847  65.035  1.00  0.00    -0.048 NA 
HETATM   35  N   UNL     1      -8.751   5.667  66.077  1.00  0.00    -0.139 NA 
HETATM   36  C   UNL     1      -9.546   6.709  66.407  1.00  0.00    -0.096 A  
ENDBRANCH  24  25
ENDBRANCH  23  24
ENDBRANCH  22  23
ENDBRANCH  11  22
ENDBRANCH   8   9
ENDBRANCH   7   8
ENDBRANCH   5   7
ENDBRANCH   2   5
TORSDOF 12
ENDMDL
MODEL      284
REMARK 921   NORMALIZED FREE ENERGY PREDICTED BY IDOCK:   -3.10 KCAL/MOL
REMARK 922        TOTAL FREE ENERGY PREDICTED BY IDOCK:   -6.87 KCAL/MOL
REMARK 923 INTER-LIGAND FREE ENERGY PREDICTED BY IDOCK:   -6.21 KCAL/MOL
REMARK 924 INTRA-LIGAND FREE ENERGY PREDICTED BY IDOCK:   -0.66 KCAL/MOL
REMARK 927      BINDING AFFINITY PREDICTED BY RF-SCORE:    0.00 PKD
ROOT
HETATM    1  C   UNL     1      -9.102   6.161  66.338  1.00  0.00    -0.158 C  
HETATM    2  C   UNL     1      -7.861   6.973  66.757  1.00  0.00    -0.107 C  
HETATM    3  C   UNL     1      -8.038   7.415  68.215  1.00  0.00    -0.125 C  
HETATM    4  C   UNL     1      -6.626   6.067  66.634  1.00  0.00    -0.059 C  
ENDROOT
BRANCH   2   5
HETATM    5  C   UNL     1      -7.711   8.173  65.809  1.00  0.00    -0.092 C  
HETATM    6  O   UNL     1      -7.121   8.112  64.734  1.00  0.00    -0.075 OA 
BRANCH   5   7
HETATM    7  O   UNL     1      -8.212   9.329  66.328  1.00  0.00    -0.106 OA 
BRANCH   7   8
HETATM    8  C   UNL     1      -7.945  10.501  65.534  1.00  0.00    -0.145 C  
BRANCH   8   9
HETATM    9  O   UNL     1      -8.695  11.646  65.931  1.00  0.00    -0.127 OA 
HETATM   10  P   UNL     1     -10.248  11.657  65.440  1.00  0.00    -0.284 P  
HETATM   11  C   UNL     1     -11.006  10.236  66.263  1.00  0.00     0.201 C  
HETATM   12  O   UNL     1     -10.412  11.708  63.956  1.00  0.00    -0.299 OA 
HETATM   13  O   UNL     1     -10.966  12.835  66.270  1.00  0.00    -0.271 OA 
BRANCH  13  14
HETATM   14  C   UNL     1     -10.816  14.193  65.969  1.00  0.00    -0.297 C  
BRANCH  14  15
HETATM   15  O   UNL     1      -9.703  14.731  66.723  1.00  0.00    -0.236 OA 
BRANCH  15  16
HETATM   16  C   UNL     1      -9.917  15.940  67.314  1.00  0.00    -0.240 C  
HETATM   17  O   UNL     1     -11.027  16.381  67.591  1.00  0.00    -0.308 OA 
BRANCH  16  18
HETATM   18  C   UNL     1      -8.601  16.700  67.588  1.00  0.00    -0.207 C  
HETATM   19  C   UNL     1      -7.548  16.307  66.531  1.00  0.00    -0.218 C  
HETATM   20  C   UNL     1      -8.053  16.334  68.973  1.00  0.00    -0.236 C  
HETATM   21  C   UNL     1      -8.819  18.218  67.500  1.00  0.00    -0.256 C  
ENDBRANCH  16  18
ENDBRANCH  15  16
ENDBRANCH  14  15
ENDBRANCH  13  14
BRANCH  11  22
HETATM   22  O   UNL     1     -10.783  10.472  67.656  1.00  0.00    -0.232 OA 
BRANCH  22  23
HETATM   23  C   UNL     1     -11.736   9.837  68.483  1.00  0.00     0.635 C  
BRANCH  23  24
HETATM   24  C   UNL     1     -11.412  10.170  69.933  1.00  0.00    -0.254 C  
BRANCH  24  25
HETATM   25  N   UNL     1     -11.591  11.578  70.172  1.00  0.00    -0.286 NA 
HETATM   26  C   UNL     1     -12.501  12.112  71.034  1.00  0.00    -0.269 A  
HETATM   27  N   UNL     1     -13.255  11.465  71.937  1.00  0.00    -0.458 NA 
HETATM   28  H2  UNL     1     -13.844  15.697  70.168  1.00  0.00     0.000 HD 
HETATM   29  H1  UNL     1     -14.339  16.161  71.666  1.00  0.00     0.000 HD 
HETATM   30  C   UNL     1     -11.059  12.597  69.430  1.00  0.00    -0.065 A  
HETATM   31  N   UNL     1     -11.605  13.755  69.736  1.00  0.00    -0.272 NA 
HETATM   32  C   UNL     1     -12.530  13.459  70.723  1.00  0.00    -0.341 A  
HETATM   33  C   UNL     1     -13.469  14.241  71.411  1.00  0.00    -0.330 A  
HETATM   34  N   UNL     1     -13.656  15.592  71.165  1.00  0.00    -0.576 NA 
HETATM   35  N   UNL     1     -14.233  13.646  72.359  1.00  0.00    -0.696 NA 
HETATM   36  C   UNL     1     -14.086  12.318  72.566  1.00  0.00     0.578 A  
ENDBRANCH  24  25
ENDBRANCH  23  24
ENDBRANCH  22  23
ENDBRANCH  11  22
ENDBRANCH   8   9
ENDBRANCH   7   8
ENDBRANCH   5   7
ENDBRANCH   2   5
TORSDOF 12
ENDMDL
MODEL      285
REMARK 921   NORMALIZED FREE ENERGY PREDICTED BY IDOCK:   -3.09 KCAL/MOL
REMARK 922        TOTAL FREE ENERGY PREDICTED BY IDOCK:   -6.85 KCAL/MOL
REMARK 923 INTER-LIGAND FREE ENERGY PREDICTED BY IDOCK:   -6.11 KCAL/MOL
REMARK 924 INTRA-LIGAND FREE ENERGY PREDICTED BY IDOCK:   -0.74 KCAL/MOL
REMARK 927      BINDING AFFINITY PREDICTED BY RF-SCORE:    0.00 PKD
ROOT
HETATM    1  C   UNL     1     -11.756  10.900  70.050  1.00  0.00    -0.427 C  
HETATM    2  C   UNL     1     -12.528  10.051  71.080  1.00  0.00    -0.460 C  
HETATM    3  C   UNL     1     -13.046  10.978  72.185  1.00  0.00    -0.300 C  
HETATM    4  C   UNL     1     -13.712   9.382  70.364  1.00  0.00     0.737 C  
ENDROOT
BRANCH   2   5
HETATM    5  C   UNL     1     -11.587   8.969  71.632  1.00  0.00    -0.356 C  
HETATM    6  O   UNL     1     -11.728   8.455  72.738  1.00  0.00    -0.367 OA 
BRANCH   5   7
HETATM    7  O   UNL     1     -10.529   8.712  70.813  1.00  0.00    -0.192 OA 
BRANCH   7   8
HETATM    8  C   UNL     1      -9.615   7.719  71.316  1.00  0.00    -0.157 C  
BRANCH   8   9
HETATM    9  O   UNL     1      -9.366   6.654  70.403  1.00  0.00    -0.158 OA 
HETATM   10  P   UNL     1     -10.426   6.536  69.174  1.00  0.00    -0.273 P  
HETATM   11  C   UNL     1     -10.228   8.071  68.238  1.00  0.00    -0.205 C  
HETATM   12  O   UNL     1     -11.821   6.219  69.608  1.00  0.00    -0.290 OA 
HETATM   13  O   UNL     1      -9.768   5.516  68.116  1.00  0.00    -0.121 OA 
BRANCH  13  14
HETATM   14  C   UNL     1      -9.750   4.128  68.291  1.00  0.00    -0.082 C  
BRANCH  14  15
HETATM   15  O   UNL     1      -8.874   3.532  67.306  1.00  0.00    -0.111 OA 
BRANCH  15  16
HETATM   16  C   UNL     1      -8.758   4.208  66.128  1.00  0.00    -0.115 C  
HETATM   17  O   UNL     1      -9.699   4.446  65.380  1.00  0.00    -0.173 OA 
BRANCH  16  18
HETATM   18  C   UNL     1      -7.302   4.633  65.836  1.00  0.00    -0.077 C  
HETATM   19  C   UNL     1      -6.709   3.723  64.740  1.00  0.00    -0.048 C  
HETATM   20  C   UNL     1      -6.442   4.490  67.098  1.00  0.00    -0.042 C  
HETATM   21  C   UNL     1      -7.247   6.082  65.330  1.00  0.00    -0.074 C  
ENDBRANCH  16  18
ENDBRANCH  15  16
ENDBRANCH  14  15
ENDBRANCH  13  14
BRANCH  11  22
HETATM   22  O   UNL     1      -8.845   8.091  67.878  1.00  0.00    -0.130 OA 
BRANCH  22  23
HETATM   23  C   UNL     1      -8.208   9.311  68.195  1.00  0.00    -0.119 C  
BRANCH  23  24
HETATM   24  C   UNL     1      -8.182  10.181  66.946  1.00  0.00    -0.122 C  
BRANCH  24  25
HETATM   25  N   UNL     1      -8.851  11.430  67.196  1.00  0.00    -0.153 NA 
HETATM   26  C   UNL     1      -9.862  11.937  66.437  1.00  0.00    -0.213 A  
HETATM   27  N   UNL     1     -10.541  11.321  65.455  1.00  0.00    -0.266 NA 
HETATM   28  H2  UNL     1     -10.192  15.847  66.339  1.00  0.00     0.000 HD 
HETATM   29  H1  UNL     1     -11.773  15.967  65.905  1.00  0.00     0.000 HD 
HETATM   30  C   UNL     1      -8.448  12.402  68.071  1.00  0.00    -0.176 A  
HETATM   31  N   UNL     1      -9.115  13.522  67.891  1.00  0.00    -0.194 NA 
HETATM   32  C   UNL     1      -9.986  13.250  66.850  1.00  0.00    -0.250 A  
HETATM   33  C   UNL     1     -10.909  14.043  66.152  1.00  0.00    -0.291 A  
HETATM   34  N   UNL     1     -11.101  15.391  66.413  1.00  0.00    -0.281 NA 
HETATM   35  N   UNL     1     -11.647  13.463  65.174  1.00  0.00    -0.301 NA 
HETATM   36  C   UNL     1     -11.427  12.161  64.886  1.00  0.00    -0.325 A  
ENDBRANCH  24  25
ENDBRANCH  23  24
ENDBRANCH  22  23
ENDBRANCH  11  22
ENDBRANCH   8   9
ENDBRANCH   7   8
ENDBRANCH   5   7
ENDBRANCH   2   5
TORSDOF 12
ENDMDL
MODEL      286
REMARK 921   NORMALIZED FREE ENERGY PREDICTED BY IDOCK:   -3.08 KCAL/MOL
REMARK 922        TOTAL FREE ENERGY PREDICTED BY IDOCK:   -6.84 KCAL/MOL
REMARK 923 INTER-LIGAND FREE ENERGY PREDICTED BY IDOCK:   -4.83 KCAL/MOL
REMARK 924 INTRA-LIGAND FREE ENERGY PREDICTED BY IDOCK:   -2.01 KCAL/MOL
REMARK 927      BINDING AFFINITY PREDICTED BY RF-SCORE:    0.00 PKD
ROOT
HETATM    1  C   UNL     1      -6.768  10.190  67.136  1.00  0.00    -0.074 C  
HETATM    2  C   UNL     1      -7.990  10.326  68.066  1.00  0.00    -0.101 C  
HETATM    3  C   UNL     1      -8.086  11.783  68.533  1.00  0.00    -0.140 C  
HETATM    4  C   UNL     1      -9.248   9.950  67.268  1.00  0.00    -0.156 C  
ENDROOT
BRANCH   2   5
HETATM    5  C   UNL     1      -7.823   9.355  69.246  1.00  0.00    -0.085 C  
HETATM    6  O   UNL     1      -7.343   8.231  69.130  1.00  0.00    -0.077 OA 
BRANCH   5   7
HETATM    7  O   UNL     1      -8.354   9.831  70.407  1.00  0.00    -0.185 OA 
BRANCH   7   8
HETATM    8  C   UNL     1      -9.648   9.291  70.734  1.00  0.00    -0.275 C  
BRANCH   8   9
HETATM    9  O   UNL     1      -9.592   8.084  71.490  1.00  0.00    -0.153 OA 
HETATM   10  P   UNL     1     -11.037   7.427  71.849  1.00  0.00    -0.262 P  
HETATM   11  C   UNL     1     -11.763   6.996  70.249  1.00  0.00    -0.236 C  
HETATM   12  O   UNL     1     -11.886   8.280  72.735  1.00  0.00    -0.388 OA 
HETATM   13  O   UNL     1     -10.728   5.941  72.387  1.00  0.00    -0.210 OA 
BRANCH  13  14
HETATM   14  C   UNL     1     -10.238   5.671  73.669  1.00  0.00    -0.218 C  
BRANCH  14  15
HETATM   15  O   UNL     1      -9.144   4.728  73.576  1.00  0.00    -0.114 OA 
BRANCH  15  16
HETATM   16  C   UNL     1      -7.967   5.229  73.104  1.00  0.00    -0.101 C  
HETATM   17  O   UNL     1      -7.415   6.223  73.560  1.00  0.00    -0.090 OA 
BRANCH  16  18
HETATM   18  C   UNL     1      -7.412   4.407  71.921  1.00  0.00    -0.070 C  
HETATM   19  C   UNL     1      -8.182   3.075  71.811  1.00  0.00    -0.062 C  
HETATM   20  C   UNL     1      -5.929   4.088  72.144  1.00  0.00    -0.009 C  
HETATM   21  C   UNL     1      -7.588   5.167  70.598  1.00  0.00    -0.071 C  
ENDBRANCH  16  18
ENDBRANCH  15  16
ENDBRANCH  14  15
ENDBRANCH  13  14
BRANCH  11  22
HETATM   22  O   UNL     1     -10.804   6.122  69.648  1.00  0.00    -0.281 OA 
BRANCH  22  23
HETATM   23  C   UNL     1     -10.316   6.602  68.412  1.00  0.00    -0.193 C  
BRANCH  23  24
HETATM   24  C   UNL     1     -10.744   5.635  67.317  1.00  0.00    -0.215 C  
BRANCH  24  25
HETATM   25  N   UNL     1      -9.696   4.682  67.059  1.00  0.00    -0.180 NA 
HETATM   26  C   UNL     1      -8.852   4.723  65.991  1.00  0.00    -0.123 A  
HETATM   27  N   UNL     1      -8.704   5.717  65.099  1.00  0.00    -0.131 NA 
HETATM   28  H2  UNL     1      -7.439   1.283  64.737  1.00  0.00     0.000 HD 
HETATM   29  H1  UNL     1      -6.093   1.819  63.960  1.00  0.00     0.000 HD 
HETATM   30  C   UNL     1      -9.522   3.481  67.693  1.00  0.00    -0.183 A  
HETATM   31  N   UNL     1      -8.641   2.728  67.069  1.00  0.00    -0.100 NA 
HETATM   32  C   UNL     1      -8.234   3.486  65.984  1.00  0.00    -0.097 A  
HETATM   33  C   UNL     1      -7.368   3.224  64.913  1.00  0.00    -0.071 A  
HETATM   34  N   UNL     1      -6.723   2.009  64.739  1.00  0.00    -0.030 NA 
HETATM   35  N   UNL     1      -7.154   4.204  64.002  1.00  0.00    -0.046 NA 
HETATM   36  C   UNL     1      -7.819   5.373  64.143  1.00  0.00    -0.104 A  
ENDBRANCH  24  25
ENDBRANCH  23  24
ENDBRANCH  22  23
ENDBRANCH  11  22
ENDBRANCH   8   9
ENDBRANCH   7   8
ENDBRANCH   5   7
ENDBRANCH   2   5
TORSDOF 12
ENDMDL
MODEL      287
REMARK 921   NORMALIZED FREE ENERGY PREDICTED BY IDOCK:   -3.08 KCAL/MOL
REMARK 922        TOTAL FREE ENERGY PREDICTED BY IDOCK:   -6.84 KCAL/MOL
REMARK 923 INTER-LIGAND FREE ENERGY PREDICTED BY IDOCK:   -5.10 KCAL/MOL
REMARK 924 INTRA-LIGAND FREE ENERGY PREDICTED BY IDOCK:   -1.73 KCAL/MOL
REMARK 927      BINDING AFFINITY PREDICTED BY RF-SCORE:    0.00 PKD
ROOT
HETATM    1  C   UNL     1      -7.477  10.839  62.504  1.00  0.00    -0.086 C  
HETATM    2  C   UNL     1      -8.403  10.019  63.423  1.00  0.00    -0.170 C  
HETATM    3  C   UNL     1      -9.786  10.680  63.436  1.00  0.00    -0.387 C  
HETATM    4  C   UNL     1      -8.511   8.595  62.854  1.00  0.00    -0.128 C  
ENDROOT
BRANCH   2   5
HETATM    5  C   UNL     1      -7.781   9.961  64.828  1.00  0.00    -0.138 C  
HETATM    6  O   UNL     1      -6.603   9.681  65.032  1.00  0.00    -0.081 OA 
BRANCH   5   7
HETATM    7  O   UNL     1      -8.692  10.154  65.823  1.00  0.00    -0.142 OA 
BRANCH   7   8
HETATM    8  C   UNL     1      -8.841   9.035  66.716  1.00  0.00    -0.127 C  
BRANCH   8   9
HETATM    9  O   UNL     1      -8.115   9.173  67.935  1.00  0.00    -0.104 OA 
HETATM   10  P   UNL     1      -8.305  10.600  68.694  1.00  0.00    -0.150 P  
HETATM   11  C   UNL     1     -10.059  10.665  69.131  1.00  0.00    -0.216 C  
HETATM   12  O   UNL     1      -7.788  11.769  67.920  1.00  0.00    -0.120 OA 
HETATM   13  O   UNL     1      -7.690  10.404  70.169  1.00  0.00    -0.122 OA 
BRANCH  13  14
HETATM   14  C   UNL     1      -6.318  10.394  70.438  1.00  0.00    -0.127 C  
BRANCH  14  15
HETATM   15  O   UNL     1      -6.075   9.671  71.668  1.00  0.00    -0.242 OA 
BRANCH  15  16
HETATM   16  C   UNL     1      -6.301   8.328  71.621  1.00  0.00    -0.049 C  
HETATM   17  O   UNL     1      -6.014   7.618  70.663  1.00  0.00    -0.030 OA 
BRANCH  16  18
HETATM   18  C   UNL     1      -6.970   7.800  72.909  1.00  0.00    -0.087 C  
HETATM   19  C   UNL     1      -6.396   8.544  74.131  1.00  0.00    -0.147 C  
HETATM   20  C   UNL     1      -6.686   6.302  73.080  1.00  0.00    -0.074 C  
HETATM   21  C   UNL     1      -8.486   8.041  72.875  1.00  0.00    -0.244 C  
ENDBRANCH  16  18
ENDBRANCH  15  16
ENDBRANCH  14  15
ENDBRANCH  13  14
BRANCH  11  22
HETATM   22  O   UNL     1     -10.270   9.495  69.926  1.00  0.00    -0.200 OA 
BRANCH  22  23
HETATM   23  C   UNL     1     -11.506   8.864  69.663  1.00  0.00     0.272 C  
BRANCH  23  24
HETATM   24  C   UNL     1     -11.659   7.687  70.616  1.00  0.00    -0.232 C  
BRANCH  24  25
HETATM   25  N   UNL     1     -11.090   6.500  70.034  1.00  0.00    -0.329 NA 
HETATM   26  C   UNL     1     -10.501   5.493  70.738  1.00  0.00    -0.260 A  
HETATM   27  N   UNL     1     -10.495   5.316  72.070  1.00  0.00    -0.218 NA 
HETATM   28  H2  UNL     1      -7.699   3.464  68.886  1.00  0.00     0.000 HD 
HETATM   29  H1  UNL     1      -7.746   2.080  69.772  1.00  0.00     0.000 HD 
HETATM   30  C   UNL     1     -10.842   6.290  68.705  1.00  0.00    -0.333 A  
HETATM   31  N   UNL     1     -10.091   5.227  68.514  1.00  0.00    -0.174 NA 
HETATM   32  C   UNL     1      -9.848   4.734  69.785  1.00  0.00    -0.218 A  
HETATM   33  C   UNL     1      -9.070   3.668  70.258  1.00  0.00    -0.130 A  
HETATM   34  N   UNL     1      -8.312   2.856  69.428  1.00  0.00    -0.057 NA 
HETATM   35  N   UNL     1      -9.055   3.422  71.590  1.00  0.00    -0.103 NA 
HETATM   36  C   UNL     1      -9.755   4.242  72.406  1.00  0.00    -0.151 A  
ENDBRANCH  24  25
ENDBRANCH  23  24
ENDBRANCH  22  23
ENDBRANCH  11  22
ENDBRANCH   8   9
ENDBRANCH   7   8
ENDBRANCH   5   7
ENDBRANCH   2   5
TORSDOF 12
ENDMDL
MODEL      288
REMARK 921   NORMALIZED FREE ENERGY PREDICTED BY IDOCK:   -3.07 KCAL/MOL
REMARK 922        TOTAL FREE ENERGY PREDICTED BY IDOCK:   -6.82 KCAL/MOL
REMARK 923 INTER-LIGAND FREE ENERGY PREDICTED BY IDOCK:   -5.05 KCAL/MOL
REMARK 924 INTRA-LIGAND FREE ENERGY PREDICTED BY IDOCK:   -1.77 KCAL/MOL
REMARK 927      BINDING AFFINITY PREDICTED BY RF-SCORE:    0.00 PKD
ROOT
HETATM    1  C   UNL     1      -7.667  14.226  68.801  1.00  0.00    -0.134 C  
HETATM    2  C   UNL     1      -6.929  12.993  68.246  1.00  0.00    -0.101 C  
HETATM    3  C   UNL     1      -5.555  13.438  67.731  1.00  0.00    -0.098 C  
HETATM    4  C   UNL     1      -6.754  11.980  69.389  1.00  0.00    -0.070 C  
ENDROOT
BRANCH   2   5
HETATM    5  C   UNL     1      -7.783  12.364  67.133  1.00  0.00    -0.122 C  
HETATM    6  O   UNL     1      -8.944  12.693  66.908  1.00  0.00    -0.209 OA 
BRANCH   5   7
HETATM    7  O   UNL     1      -7.153  11.339  66.492  1.00  0.00    -0.139 OA 
BRANCH   7   8
HETATM    8  C   UNL     1      -8.017  10.538  65.663  1.00  0.00    -0.158 C  
BRANCH   8   9
HETATM    9  O   UNL     1      -8.829   9.625  66.395  1.00  0.00    -0.144 OA 
HETATM   10  P   UNL     1      -8.419   8.057  66.238  1.00  0.00    -0.148 P  
HETATM   11  C   UNL     1      -6.755   7.939  66.937  1.00  0.00    -0.068 C  
HETATM   12  O   UNL     1      -8.575   7.529  64.848  1.00  0.00    -0.023 OA 
HETATM   13  O   UNL     1      -9.226   7.269  67.386  1.00  0.00    -0.126 OA 
BRANCH  13  14
HETATM   14  C   UNL     1     -10.588   6.966  67.302  1.00  0.00    -0.322 C  
BRANCH  14  15
HETATM   15  O   UNL     1     -10.748   5.570  66.952  1.00  0.00    -0.280 OA 
BRANCH  15  16
HETATM   16  C   UNL     1      -9.981   4.690  67.657  1.00  0.00    -0.106 C  
HETATM   17  O   UNL     1      -9.979   4.612  68.880  1.00  0.00    -0.164 OA 
BRANCH  16  18
HETATM   18  C   UNL     1      -9.107   3.808  66.740  1.00  0.00    -0.171 C  
HETATM   19  C   UNL     1      -7.659   4.340  66.741  1.00  0.00    -0.085 C  
HETATM   20  C   UNL     1      -9.634   3.849  65.301  1.00  0.00    -0.185 C  
HETATM   21  C   UNL     1      -9.080   2.357  67.243  1.00  0.00    -0.180 C  
ENDBRANCH  16  18
ENDBRANCH  15  16
ENDBRANCH  14  15
ENDBRANCH  13  14
BRANCH  11  22
HETATM   22  O   UNL     1      -6.897   8.422  68.275  1.00  0.00    -0.063 OA 
BRANCH  22  23
HETATM   23  C   UNL     1      -6.495   7.480  69.248  1.00  0.00    -0.039 C  
BRANCH  23  24
HETATM   24  C   UNL     1      -7.046   7.918  70.598  1.00  0.00    -0.049 C  
BRANCH  24  25
HETATM   25  N   UNL     1      -7.898   6.894  71.143  1.00  0.00    -0.099 NA 
HETATM   26  C   UNL     1      -9.109   7.117  71.726  1.00  0.00    -0.139 A  
HETATM   27  N   UNL     1      -9.813   8.260  71.744  1.00  0.00    -0.197 NA 
HETATM   28  H2  UNL     1     -10.231   4.554  74.478  1.00  0.00     0.000 HD 
HETATM   29  H1  UNL     1     -11.855   4.801  74.421  1.00  0.00     0.000 HD 
HETATM   30  C   UNL     1      -7.549   5.590  71.374  1.00  0.00    -0.103 A  
HETATM   31  N   UNL     1      -8.449   4.971  72.108  1.00  0.00    -0.123 NA 
HETATM   32  C   UNL     1      -9.419   5.927  72.357  1.00  0.00    -0.146 A  
HETATM   33  C   UNL     1     -10.592   5.912  73.125  1.00  0.00    -0.245 A  
HETATM   34  N   UNL     1     -11.002   4.811  73.862  1.00  0.00    -0.297 NA 
HETATM   35  N   UNL     1     -11.360   7.028  73.151  1.00  0.00    -0.150 NA 
HETATM   36  C   UNL     1     -10.937   8.118  72.472  1.00  0.00    -0.369 A  
ENDBRANCH  24  25
ENDBRANCH  23  24
ENDBRANCH  22  23
ENDBRANCH  11  22
ENDBRANCH   8   9
ENDBRANCH   7   8
ENDBRANCH   5   7
ENDBRANCH   2   5
TORSDOF 12
ENDMDL
MODEL      289
REMARK 921   NORMALIZED FREE ENERGY PREDICTED BY IDOCK:   -3.04 KCAL/MOL
REMARK 922        TOTAL FREE ENERGY PREDICTED BY IDOCK:   -6.76 KCAL/MOL
REMARK 923 INTER-LIGAND FREE ENERGY PREDICTED BY IDOCK:   -6.13 KCAL/MOL
REMARK 924 INTRA-LIGAND FREE ENERGY PREDICTED BY IDOCK:   -0.63 KCAL/MOL
REMARK 927      BINDING AFFINITY PREDICTED BY RF-SCORE:    0.00 PKD
ROOT
HETATM    1  C   UNL     1      -9.451   5.061  69.164  1.00  0.00    -0.196 C  
HETATM    2  C   UNL     1      -9.434   4.449  67.750  1.00  0.00    -0.207 C  
HETATM    3  C   UNL     1      -9.366   2.923  67.880  1.00  0.00    -0.256 C  
HETATM    4  C   UNL     1     -10.732   4.853  67.033  1.00  0.00     0.078 C  
ENDROOT
BRANCH   2   5
HETATM    5  C   UNL     1      -8.229   5.014  66.981  1.00  0.00    -0.107 C  
HETATM    6  O   UNL     1      -7.087   5.022  67.431  1.00  0.00    -0.064 OA 
BRANCH   5   7
HETATM    7  O   UNL     1      -8.576   5.593  65.797  1.00  0.00    -0.137 OA 
BRANCH   7   8
HETATM    8  C   UNL     1      -9.186   6.891  65.927  1.00  0.00     0.048 C  
BRANCH   8   9
HETATM    9  O   UNL     1      -8.639   7.680  66.980  1.00  0.00    -0.118 OA 
HETATM   10  P   UNL     1      -7.986   9.096  66.513  1.00  0.00    -0.100 P  
HETATM   11  C   UNL     1      -9.367  10.042  65.827  1.00  0.00    -0.189 C  
HETATM   12  O   UNL     1      -6.797   8.947  65.619  1.00  0.00    -0.074 OA 
HETATM   13  O   UNL     1      -7.753   9.943  67.862  1.00  0.00    -0.090 OA 
BRANCH  13  14
HETATM   14  C   UNL     1      -6.701   9.702  68.752  1.00  0.00    -0.051 C  
BRANCH  14  15
HETATM   15  O   UNL     1      -7.199   8.965  69.894  1.00  0.00    -0.049 OA 
BRANCH  15  16
HETATM   16  C   UNL     1      -6.283   8.681  70.862  1.00  0.00    -0.039 C  
HETATM   17  O   UNL     1      -5.246   9.314  71.031  1.00  0.00    -0.028 OA 
BRANCH  16  18
HETATM   18  C   UNL     1      -6.692   7.463  71.719  1.00  0.00    -0.053 C  
HETATM   19  C   UNL     1      -8.117   7.675  72.269  1.00  0.00    -0.127 C  
HETATM   20  C   UNL     1      -5.736   7.303  72.908  1.00  0.00    -0.041 C  
HETATM   21  C   UNL     1      -6.694   6.179  70.876  1.00  0.00    -0.061 C  
ENDBRANCH  16  18
ENDBRANCH  15  16
ENDBRANCH  14  15
ENDBRANCH  13  14
BRANCH  11  22
HETATM   22  O   UNL     1     -10.317  10.107  66.893  1.00  0.00    -0.224 OA 
BRANCH  22  23
HETATM   23  C   UNL     1     -11.080  11.296  66.882  1.00  0.00    -0.275 C  
BRANCH  23  24
HETATM   24  C   UNL     1     -10.579  12.200  68.000  1.00  0.00    -0.210 C  
BRANCH  24  25
HETATM   25  N   UNL     1     -11.507  12.191  69.100  1.00  0.00    -0.276 NA 
HETATM   26  C   UNL     1     -12.022  13.304  69.693  1.00  0.00    -0.314 A  
HETATM   27  N   UNL     1     -11.922  14.577  69.277  1.00  0.00    -0.322 NA 
HETATM   28  H2  UNL     1     -13.008  12.976  73.478  1.00  0.00     0.000 HD 
HETATM   29  H1  UNL     1     -14.088  14.212  73.576  1.00  0.00     0.000 HD 
HETATM   30  C   UNL     1     -11.843  11.107  69.865  1.00  0.00    -0.363 A  
HETATM   31  N   UNL     1     -12.511  11.463  70.942  1.00  0.00    -0.390 NA 
HETATM   32  C   UNL     1     -12.605  12.842  70.858  1.00  0.00    -0.255 A  
HETATM   33  C   UNL     1     -13.137  13.812  71.720  1.00  0.00    -0.379 A  
HETATM   34  N   UNL     1     -13.700  13.507  72.950  1.00  0.00    -0.548 NA 
HETATM   35  N   UNL     1     -13.096  15.110  71.334  1.00  0.00    -0.385 NA 
HETATM   36  C   UNL     1     -12.503  15.414  70.157  1.00  0.00    -0.335 A  
ENDBRANCH  24  25
ENDBRANCH  23  24
ENDBRANCH  22  23
ENDBRANCH  11  22
ENDBRANCH   8   9
ENDBRANCH   7   8
ENDBRANCH   5   7
ENDBRANCH   2   5
TORSDOF 12
ENDMDL
MODEL      290
REMARK 921   NORMALIZED FREE ENERGY PREDICTED BY IDOCK:   -3.03 KCAL/MOL
REMARK 922        TOTAL FREE ENERGY PREDICTED BY IDOCK:   -6.75 KCAL/MOL
REMARK 923 INTER-LIGAND FREE ENERGY PREDICTED BY IDOCK:   -7.21 KCAL/MOL
REMARK 924 INTRA-LIGAND FREE ENERGY PREDICTED BY IDOCK:    0.46 KCAL/MOL
REMARK 927      BINDING AFFINITY PREDICTED BY RF-SCORE:    0.00 PKD
ROOT
HETATM    1  C   UNL     1      -9.886   5.690  66.839  1.00  0.00    -0.178 C  
HETATM    2  C   UNL     1      -8.412   6.072  66.604  1.00  0.00    -0.112 C  
HETATM    3  C   UNL     1      -7.605   4.787  66.386  1.00  0.00    -0.087 C  
HETATM    4  C   UNL     1      -8.336   6.954  65.348  1.00  0.00    -0.122 C  
ENDROOT
BRANCH   2   5
HETATM    5  C   UNL     1      -7.907   6.867  67.818  1.00  0.00    -0.113 C  
HETATM    6  O   UNL     1      -6.969   6.501  68.521  1.00  0.00    -0.074 OA 
BRANCH   5   7
HETATM    7  O   UNL     1      -8.669   7.964  68.092  1.00  0.00    -0.126 OA 
BRANCH   7   8
HETATM    8  C   UNL     1      -8.454   8.525  69.400  1.00  0.00    -0.127 C  
BRANCH   8   9
HETATM    9  O   UNL     1      -9.057   9.803  69.583  1.00  0.00    -0.189 OA 
HETATM   10  P   UNL     1     -10.609   9.908  69.103  1.00  0.00    -0.234 P  
HETATM   11  C   UNL     1     -11.506   8.758  70.173  1.00  0.00    -0.020 C  
HETATM   12  O   UNL     1     -10.802   9.708  67.635  1.00  0.00    -0.282 OA 
HETATM   13  O   UNL     1     -11.168  11.292  69.706  1.00  0.00    -0.257 OA 
BRANCH  13  14
HETATM   14  C   UNL     1     -10.869  12.546  69.163  1.00  0.00    -0.084 C  
BRANCH  14  15
HETATM   15  O   UNL     1     -11.923  13.479  69.503  1.00  0.00    -0.311 OA 
BRANCH  15  16
HETATM   16  C   UNL     1     -12.390  13.407  70.782  1.00  0.00    -0.354 C  
HETATM   17  O   UNL     1     -12.687  12.359  71.344  1.00  0.00    -0.348 OA 
BRANCH  16  18
HETATM   18  C   UNL     1     -12.512  14.797  71.441  1.00  0.00    -0.401 C  
HETATM   19  C   UNL     1     -12.027  14.720  72.903  1.00  0.00    -0.236 C  
HETATM   20  C   UNL     1     -13.975  15.259  71.443  1.00  0.00    -0.601 C  
HETATM   21  C   UNL     1     -11.643  15.829  70.707  1.00  0.00    -0.429 C  
ENDBRANCH  16  18
ENDBRANCH  15  16
ENDBRANCH  14  15
ENDBRANCH  13  14
BRANCH  11  22
HETATM   22  O   UNL     1     -11.224   9.213  71.499  1.00  0.00    -0.308 OA 
BRANCH  22  23
HETATM   23  C   UNL     1     -11.704   8.337  72.498  1.00  0.00    -0.383 C  
BRANCH  23  24
HETATM   24  C   UNL     1     -11.932   6.969  71.869  1.00  0.00    -0.320 C  
BRANCH  24  25
HETATM   25  N   UNL     1     -10.725   6.187  71.928  1.00  0.00    -0.224 NA 
HETATM   26  C   UNL     1      -9.652   6.470  72.717  1.00  0.00    -0.149 A  
HETATM   27  N   UNL     1      -9.571   7.386  73.696  1.00  0.00    -0.265 NA 
HETATM   28  H2  UNL     1      -6.149   5.280  71.406  1.00  0.00     0.000 HD 
HETATM   29  H1  UNL     1      -5.334   5.238  72.834  1.00  0.00     0.000 HD 
HETATM   30  C   UNL     1     -10.365   5.190  71.062  1.00  0.00    -0.208 A  
HETATM   31  N   UNL     1      -9.106   4.843  71.221  1.00  0.00    -0.139 NA 
HETATM   32  C   UNL     1      -8.641   5.658  72.238  1.00  0.00    -0.129 A  
HETATM   33  C   UNL     1      -7.376   5.821  72.823  1.00  0.00    -0.092 A  
HETATM   34  N   UNL     1      -6.254   5.121  72.408  1.00  0.00    -0.030 NA 
HETATM   35  N   UNL     1      -7.245   6.707  73.840  1.00  0.00    -0.084 NA 
HETATM   36  C   UNL     1      -8.328   7.425  74.213  1.00  0.00    -0.198 A  
ENDBRANCH  24  25
ENDBRANCH  23  24
ENDBRANCH  22  23
ENDBRANCH  11  22
ENDBRANCH   8   9
ENDBRANCH   7   8
ENDBRANCH   5   7
ENDBRANCH   2   5
TORSDOF 12
ENDMDL
MODEL      291
REMARK 921   NORMALIZED FREE ENERGY PREDICTED BY IDOCK:   -3.02 KCAL/MOL
REMARK 922        TOTAL FREE ENERGY PREDICTED BY IDOCK:   -6.74 KCAL/MOL
REMARK 923 INTER-LIGAND FREE ENERGY PREDICTED BY IDOCK:   -5.19 KCAL/MOL
REMARK 924 INTRA-LIGAND FREE ENERGY PREDICTED BY IDOCK:   -1.55 KCAL/MOL
REMARK 927      BINDING AFFINITY PREDICTED BY RF-SCORE:    0.00 PKD
ROOT
HETATM    1  C   UNL     1      -8.871   4.045  64.638  1.00  0.00    -0.131 C  
HETATM    2  C   UNL     1      -7.871   3.386  65.608  1.00  0.00    -0.085 C  
HETATM    3  C   UNL     1      -8.504   2.103  66.161  1.00  0.00    -0.102 C  
HETATM    4  C   UNL     1      -6.595   3.041  64.825  1.00  0.00    -0.039 C  
ENDROOT
BRANCH   2   5
HETATM    5  C   UNL     1      -7.532   4.386  66.724  1.00  0.00    -0.081 C  
HETATM    6  O   UNL     1      -6.906   5.424  66.530  1.00  0.00    -0.059 OA 
BRANCH   5   7
HETATM    7  O   UNL     1      -7.908   3.954  67.960  1.00  0.00    -0.073 OA 
BRANCH   7   8
HETATM    8  C   UNL     1      -9.128   4.542  68.449  1.00  0.00    -0.124 C  
BRANCH   8   9
HETATM    9  O   UNL     1      -9.100   5.966  68.496  1.00  0.00    -0.113 OA 
HETATM   10  P   UNL     1     -10.545   6.692  68.311  1.00  0.00    -0.266 P  
HETATM   11  C   UNL     1     -11.523   6.150  69.733  1.00  0.00    -0.292 C  
HETATM   12  O   UNL     1     -11.169   6.462  66.973  1.00  0.00    -0.373 OA 
HETATM   13  O   UNL     1     -10.327   8.230  68.733  1.00  0.00    -0.208 OA 
BRANCH  13  14
HETATM   14  C   UNL     1      -9.700   9.173  67.912  1.00  0.00    -0.154 C  
BRANCH  14  15
HETATM   15  O   UNL     1      -8.336   8.760  67.661  1.00  0.00    -0.113 OA 
BRANCH  15  16
HETATM   16  C   UNL     1      -7.932   8.803  66.360  1.00  0.00    -0.103 C  
HETATM   17  O   UNL     1      -8.513   8.233  65.444  1.00  0.00    -0.163 OA 
BRANCH  16  18
HETATM   18  C   UNL     1      -6.652   9.645  66.170  1.00  0.00    -0.078 C  
HETATM   19  C   UNL     1      -6.726  10.904  67.058  1.00  0.00    -0.098 C  
HETATM   20  C   UNL     1      -6.522  10.094  64.709  1.00  0.00    -0.128 C  
HETATM   21  C   UNL     1      -5.407   8.846  66.582  1.00  0.00    -0.039 C  
ENDBRANCH  16  18
ENDBRANCH  15  16
ENDBRANCH  14  15
ENDBRANCH  13  14
BRANCH  11  22
HETATM   22  O   UNL     1     -10.754   6.557  70.868  1.00  0.00    -0.225 OA 
BRANCH  22  23
HETATM   23  C   UNL     1     -11.551   6.875  71.990  1.00  0.00    -0.285 C  
BRANCH  23  24
HETATM   24  C   UNL     1     -10.934   8.076  72.694  1.00  0.00    -0.382 C  
BRANCH  24  25
HETATM   25  N   UNL     1      -9.674   7.711  73.288  1.00  0.00    -0.264 NA 
HETATM   26  C   UNL     1      -8.452   8.026  72.776  1.00  0.00    -0.180 A  
HETATM   27  N   UNL     1      -8.177   8.861  71.760  1.00  0.00    -0.354 NA 
HETATM   28  H2  UNL     1      -5.519   5.549  73.589  1.00  0.00     0.000 HD 
HETATM   29  H1  UNL     1      -4.246   6.566  73.367  1.00  0.00     0.000 HD 
HETATM   30  C   UNL     1      -9.491   6.818  74.308  1.00  0.00    -0.252 A  
HETATM   31  N   UNL     1      -8.220   6.507  74.456  1.00  0.00    -0.127 NA 
HETATM   32  C   UNL     1      -7.562   7.238  73.482  1.00  0.00    -0.093 A  
HETATM   33  C   UNL     1      -6.219   7.297  73.083  1.00  0.00    -0.056 A  
HETATM   34  N   UNL     1      -5.223   6.522  73.657  1.00  0.00    -0.040 NA 
HETATM   35  N   UNL     1      -5.879   8.151  72.087  1.00  0.00    -0.038 NA 
HETATM   36  C   UNL     1      -6.857   8.871  71.493  1.00  0.00    -0.075 A  
ENDBRANCH  24  25
ENDBRANCH  23  24
ENDBRANCH  22  23
ENDBRANCH  11  22
ENDBRANCH   8   9
ENDBRANCH   7   8
ENDBRANCH   5   7
ENDBRANCH   2   5
TORSDOF 12
ENDMDL
MODEL      292
REMARK 921   NORMALIZED FREE ENERGY PREDICTED BY IDOCK:   -3.01 KCAL/MOL
REMARK 922        TOTAL FREE ENERGY PREDICTED BY IDOCK:   -6.72 KCAL/MOL
REMARK 923 INTER-LIGAND FREE ENERGY PREDICTED BY IDOCK:   -5.01 KCAL/MOL
REMARK 924 INTRA-LIGAND FREE ENERGY PREDICTED BY IDOCK:   -1.71 KCAL/MOL
REMARK 927      BINDING AFFINITY PREDICTED BY RF-SCORE:    0.00 PKD
ROOT
HETATM    1  C   UNL     1      -8.837  13.530  66.848  1.00  0.00    -0.194 C  
HETATM    2  C   UNL     1     -10.186  13.159  66.203  1.00  0.00    -0.291 C  
HETATM    3  C   UNL     1     -11.189  12.842  67.319  1.00  0.00    -0.339 C  
HETATM    4  C   UNL     1     -10.679  14.364  65.386  1.00  0.00    -0.359 C  
ENDROOT
BRANCH   2   5
HETATM    5  C   UNL     1      -9.973  11.959  65.265  1.00  0.00    -0.251 C  
HETATM    6  O   UNL     1     -10.130  12.018  64.049  1.00  0.00    -0.314 OA 
BRANCH   5   7
HETATM    7  O   UNL     1      -9.691  10.805  65.932  1.00  0.00    -0.204 OA 
BRANCH   7   8
HETATM    8  C   UNL     1      -8.390  10.257  65.648  1.00  0.00    -0.158 C  
BRANCH   8   9
HETATM    9  O   UNL     1      -8.186   8.953  66.184  1.00  0.00    -0.110 OA 
HETATM   10  P   UNL     1      -6.705   8.326  65.929  1.00  0.00    -0.053 P  
HETATM   11  C   UNL     1      -5.575   9.427  66.813  1.00  0.00    -0.047 C  
HETATM   12  O   UNL     1      -6.387   8.095  64.487  1.00  0.00    -0.062 OA 
HETATM   13  O   UNL     1      -6.597   7.039  66.890  1.00  0.00    -0.051 OA 
BRANCH  13  14
HETATM   14  C   UNL     1      -7.211   5.814  66.610  1.00  0.00    -0.074 C  
BRANCH  14  15
HETATM   15  O   UNL     1      -6.806   4.837  67.599  1.00  0.00    -0.057 OA 
BRANCH  15  16
HETATM   16  C   UNL     1      -7.569   4.784  68.728  1.00  0.00    -0.069 C  
HETATM   17  O   UNL     1      -8.434   5.605  69.009  1.00  0.00    -0.102 OA 
BRANCH  16  18
HETATM   18  C   UNL     1      -7.213   3.576  69.621  1.00  0.00    -0.042 C  
HETATM   19  C   UNL     1      -5.707   3.608  69.957  1.00  0.00    -0.017 C  
HETATM   20  C   UNL     1      -7.513   2.264  68.885  1.00  0.00    -0.043 C  
HETATM   21  C   UNL     1      -7.995   3.623  70.941  1.00  0.00    -0.057 C  
ENDBRANCH  16  18
ENDBRANCH  15  16
ENDBRANCH  14  15
ENDBRANCH  13  14
BRANCH  11  22
HETATM   22  O   UNL     1      -6.044   9.408  68.164  1.00  0.00    -0.051 OA 
BRANCH  22  23
HETATM   23  C   UNL     1      -6.442  10.681  68.629  1.00  0.00    -0.051 C  
BRANCH  23  24
HETATM   24  C   UNL     1      -6.825  10.559  70.097  1.00  0.00    -0.141 C  
BRANCH  24  25
HETATM   25  N   UNL     1      -8.193  10.128  70.219  1.00  0.00    -0.073 NA 
HETATM   26  C   UNL     1      -8.645   9.221  71.129  1.00  0.00    -0.025 A  
HETATM   27  N   UNL     1      -7.979   8.704  72.175  1.00  0.00    -0.328 NA 
HETATM   28  H2  UNL     1     -11.788   7.112  70.092  1.00  0.00     0.000 HD 
HETATM   29  H1  UNL     1     -12.325   6.686  71.586  1.00  0.00     0.000 HD 
HETATM   30  C   UNL     1      -9.200  10.370  69.324  1.00  0.00    -0.184 A  
HETATM   31  N   UNL     1     -10.263   9.638  69.582  1.00  0.00    -0.206 NA 
HETATM   32  C   UNL     1      -9.917   8.893  70.696  1.00  0.00    -0.216 A  
HETATM   33  C   UNL     1     -10.584   7.891  71.414  1.00  0.00    -0.211 A  
HETATM   34  N   UNL     1     -11.839   7.415  71.064  1.00  0.00    -0.302 NA 
HETATM   35  N   UNL     1      -9.973   7.359  72.500  1.00  0.00    -0.174 NA 
HETATM   36  C   UNL     1      -8.730   7.787  72.814  1.00  0.00    -0.156 A  
ENDBRANCH  24  25
ENDBRANCH  23  24
ENDBRANCH  22  23
ENDBRANCH  11  22
ENDBRANCH   8   9
ENDBRANCH   7   8
ENDBRANCH   5   7
ENDBRANCH   2   5
TORSDOF 12
ENDMDL
MODEL      293
REMARK 921   NORMALIZED FREE ENERGY PREDICTED BY IDOCK:   -3.00 KCAL/MOL
REMARK 922        TOTAL FREE ENERGY PREDICTED BY IDOCK:   -6.70 KCAL/MOL
REMARK 923 INTER-LIGAND FREE ENERGY PREDICTED BY IDOCK:   -6.39 KCAL/MOL
REMARK 924 INTRA-LIGAND FREE ENERGY PREDICTED BY IDOCK:   -0.31 KCAL/MOL
REMARK 927      BINDING AFFINITY PREDICTED BY RF-SCORE:    0.00 PKD
ROOT
HETATM    1  C   UNL     1      -9.729  14.551  66.928  1.00  0.00    -0.257 C  
HETATM    2  C   UNL     1     -11.171  14.366  66.415  1.00  0.00    -0.345 C  
HETATM    3  C   UNL     1     -12.125  14.426  67.614  1.00  0.00    -0.312 C  
HETATM    4  C   UNL     1     -11.488  15.510  65.440  1.00  0.00    -0.046 C  
ENDROOT
BRANCH   2   5
HETATM    5  C   UNL     1     -11.263  13.022  65.674  1.00  0.00    -0.283 C  
HETATM    6  O   UNL     1     -12.075  12.801  64.781  1.00  0.00    -0.381 OA 
BRANCH   5   7
HETATM    7  O   UNL     1     -10.423  12.076  66.179  1.00  0.00    -0.225 OA 
BRANCH   7   8
HETATM    8  C   UNL     1     -10.271  10.911  65.346  1.00  0.00    -0.277 C  
BRANCH   8   9
HETATM    9  O   UNL     1      -9.934   9.730  66.066  1.00  0.00    -0.256 OA 
HETATM   10  P   UNL     1      -8.831   9.932  67.246  1.00  0.00    -0.131 P  
HETATM   11  C   UNL     1      -9.617  11.050  68.431  1.00  0.00    -0.181 C  
HETATM   12  O   UNL     1      -7.487  10.357  66.750  1.00  0.00    -0.103 OA 
HETATM   13  O   UNL     1      -8.864   8.581  68.122  1.00  0.00    -0.141 OA 
BRANCH  13  14
HETATM   14  C   UNL     1      -8.271   7.382  67.713  1.00  0.00    -0.119 C  
BRANCH  14  15
HETATM   15  O   UNL     1      -8.544   6.353  68.694  1.00  0.00    -0.122 OA 
BRANCH  15  16
HETATM   16  C   UNL     1      -7.583   5.396  68.833  1.00  0.00    -0.079 C  
HETATM   17  O   UNL     1      -6.558   5.545  69.487  1.00  0.00    -0.046 OA 
BRANCH  16  18
HETATM   18  C   UNL     1      -7.927   4.103  68.063  1.00  0.00    -0.085 C  
HETATM   19  C   UNL     1      -9.423   4.108  67.688  1.00  0.00    -0.225 C  
HETATM   20  C   UNL     1      -7.655   2.873  68.938  1.00  0.00    -0.047 C  
HETATM   21  C   UNL     1      -7.113   4.007  66.764  1.00  0.00    -0.064 C  
ENDBRANCH  16  18
ENDBRANCH  15  16
ENDBRANCH  14  15
ENDBRANCH  13  14
BRANCH  11  22
HETATM   22  O   UNL     1     -10.823  10.380  68.805  1.00  0.00    -0.206 OA 
BRANCH  22  23
HETATM   23  C   UNL     1     -11.054  10.392  70.198  1.00  0.00    -0.314 C  
BRANCH  23  24
HETATM   24  C   UNL     1     -11.660   9.054  70.598  1.00  0.00    -0.224 C  
BRANCH  24  25
HETATM   25  N   UNL     1     -11.015   8.551  71.783  1.00  0.00    -0.282 NA 
HETATM   26  C   UNL     1      -9.670   8.397  71.931  1.00  0.00    -0.261 A  
HETATM   27  N   UNL     1      -8.698   8.836  71.115  1.00  0.00    -0.194 NA 
HETATM   28  H2  UNL     1      -8.488   5.559  74.372  1.00  0.00     0.000 HD 
HETATM   29  H1  UNL     1      -6.984   6.123  74.721  1.00  0.00     0.000 HD 
HETATM   30  C   UNL     1     -11.632   7.942  72.842  1.00  0.00    -0.243 A  
HETATM   31  N   UNL     1     -10.762   7.368  73.644  1.00  0.00    -0.317 NA 
HETATM   32  C   UNL     1      -9.529   7.623  73.069  1.00  0.00    -0.226 A  
HETATM   33  C   UNL     1      -8.225   7.231  73.402  1.00  0.00    -0.112 A  
HETATM   34  N   UNL     1      -7.933   6.408  74.479  1.00  0.00    -0.112 NA 
HETATM   35  N   UNL     1      -7.201   7.675  72.633  1.00  0.00    -0.074 NA 
HETATM   36  C   UNL     1      -7.489   8.439  71.555  1.00  0.00    -0.098 A  
ENDBRANCH  24  25
ENDBRANCH  23  24
ENDBRANCH  22  23
ENDBRANCH  11  22
ENDBRANCH   8   9
ENDBRANCH   7   8
ENDBRANCH   5   7
ENDBRANCH   2   5
TORSDOF 12
ENDMDL
MODEL      294
REMARK 921   NORMALIZED FREE ENERGY PREDICTED BY IDOCK:   -2.95 KCAL/MOL
REMARK 922        TOTAL FREE ENERGY PREDICTED BY IDOCK:   -6.61 KCAL/MOL
REMARK 923 INTER-LIGAND FREE ENERGY PREDICTED BY IDOCK:   -5.53 KCAL/MOL
REMARK 924 INTRA-LIGAND FREE ENERGY PREDICTED BY IDOCK:   -1.08 KCAL/MOL
REMARK 927      BINDING AFFINITY PREDICTED BY RF-SCORE:    0.00 PKD
ROOT
HETATM    1  C   UNL     1      -9.810  13.648  66.696  1.00  0.00    -0.284 C  
HETATM    2  C   UNL     1     -11.297  13.788  66.317  1.00  0.00    -0.329 C  
HETATM    3  C   UNL     1     -12.113  13.968  67.603  1.00  0.00    -0.344 C  
HETATM    4  C   UNL     1     -11.454  15.029  65.424  1.00  0.00    -0.287 C  
ENDROOT
BRANCH   2   5
HETATM    5  C   UNL     1     -11.728  12.538  65.534  1.00  0.00    -0.409 C  
HETATM    6  O   UNL     1     -12.752  12.485  64.859  1.00  0.00    -0.657 OA 
BRANCH   5   7
HETATM    7  O   UNL     1     -10.911  11.468  65.747  1.00  0.00    -0.292 OA 
BRANCH   7   8
HETATM    8  C   UNL     1     -10.244  10.986  64.565  1.00  0.00    -0.344 C  
BRANCH   8   9
HETATM    9  O   UNL     1      -9.899   9.605  64.624  1.00  0.00    -0.138 OA 
HETATM   10  P   UNL     1      -8.313   9.281  64.454  1.00  0.00    -0.183 P  
HETATM   11  C   UNL     1      -7.522  10.070  65.877  1.00  0.00    -0.115 C  
HETATM   12  O   UNL     1      -7.760   9.657  63.117  1.00  0.00    -0.119 OA 
HETATM   13  O   UNL     1      -8.124   7.742  64.888  1.00  0.00    -0.136 OA 
BRANCH  13  14
HETATM   14  C   UNL     1      -8.476   6.662  64.072  1.00  0.00     0.288 C  
BRANCH  14  15
HETATM   15  O   UNL     1      -7.276   5.991  63.621  1.00  0.00    -0.052 OA 
BRANCH  15  16
HETATM   16  C   UNL     1      -6.811   4.999  64.433  1.00  0.00    -0.048 C  
HETATM   17  O   UNL     1      -6.553   5.152  65.622  1.00  0.00    -0.042 OA 
BRANCH  16  18
HETATM   18  C   UNL     1      -6.634   3.661  63.683  1.00  0.00    -0.034 C  
HETATM   19  C   UNL     1      -5.387   3.736  62.779  1.00  0.00    -0.005 C  
HETATM   20  C   UNL     1      -7.855   3.382  62.798  1.00  0.00    -0.070 C  
HETATM   21  C   UNL     1      -6.434   2.503  64.672  1.00  0.00    -0.027 C  
ENDBRANCH  16  18
ENDBRANCH  15  16
ENDBRANCH  14  15
ENDBRANCH  13  14
BRANCH  11  22
HETATM   22  O   UNL     1      -8.166   9.483  67.011  1.00  0.00    -0.112 OA 
BRANCH  22  23
HETATM   23  C   UNL     1      -8.424  10.414  68.042  1.00  0.00    -0.119 C  
BRANCH  23  24
HETATM   24  C   UNL     1      -7.684   9.963  69.293  1.00  0.00    -0.109 C  
BRANCH  24  25
HETATM   25  N   UNL     1      -8.606   9.388  70.237  1.00  0.00    -0.204 NA 
HETATM   26  C   UNL     1      -8.260   8.540  71.246  1.00  0.00    -0.142 A  
HETATM   27  N   UNL     1      -7.024   8.227  71.668  1.00  0.00    -0.072 NA 
HETATM   28  H2  UNL     1     -10.993   5.966  72.389  1.00  0.00     0.000 HD 
HETATM   29  H1  UNL     1     -10.438   5.649  73.903  1.00  0.00     0.000 HD 
HETATM   30  C   UNL     1      -9.971   9.405  70.146  1.00  0.00    -0.229 A  
HETATM   31  N   UNL     1     -10.525   8.585  71.013  1.00  0.00    -0.204 NA 
HETATM   32  C   UNL     1      -9.460   8.016  71.690  1.00  0.00    -0.164 A  
HETATM   33  C   UNL     1      -9.383   7.027  72.681  1.00  0.00    -0.138 A  
HETATM   34  N   UNL     1     -10.495   6.368  73.183  1.00  0.00    -0.227 NA 
HETATM   35  N   UNL     1      -8.162   6.697  73.169  1.00  0.00    -0.112 NA 
HETATM   36  C   UNL     1      -7.073   7.304  72.647  1.00  0.00    -0.068 A  
ENDBRANCH  24  25
ENDBRANCH  23  24
ENDBRANCH  22  23
ENDBRANCH  11  22
ENDBRANCH   8   9
ENDBRANCH   7   8
ENDBRANCH   5   7
ENDBRANCH   2   5
TORSDOF 12
ENDMDL
MODEL      295
REMARK 921   NORMALIZED FREE ENERGY PREDICTED BY IDOCK:   -2.91 KCAL/MOL
REMARK 922        TOTAL FREE ENERGY PREDICTED BY IDOCK:   -6.54 KCAL/MOL
REMARK 923 INTER-LIGAND FREE ENERGY PREDICTED BY IDOCK:   -5.45 KCAL/MOL
REMARK 924 INTRA-LIGAND FREE ENERGY PREDICTED BY IDOCK:   -1.09 KCAL/MOL
REMARK 927      BINDING AFFINITY PREDICTED BY RF-SCORE:    0.00 PKD
ROOT
HETATM    1  C   UNL     1      -6.465   7.244  64.306  1.00  0.00    -0.040 C  
HETATM    2  C   UNL     1      -7.620   8.146  64.782  1.00  0.00    -0.101 C  
HETATM    3  C   UNL     1      -7.036   9.277  65.636  1.00  0.00    -0.082 C  
HETATM    4  C   UNL     1      -8.315   8.734  63.543  1.00  0.00    -0.147 C  
ENDROOT
BRANCH   2   5
HETATM    5  C   UNL     1      -8.623   7.289  65.571  1.00  0.00    -0.075 C  
HETATM    6  O   UNL     1      -8.443   6.101  65.822  1.00  0.00    -0.137 OA 
BRANCH   5   7
HETATM    7  O   UNL     1      -9.771   7.957  65.876  1.00  0.00     0.002 OA 
BRANCH   7   8
HETATM    8  C   UNL     1      -9.729   8.672  67.125  1.00  0.00    -0.190 C  
BRANCH   8   9
HETATM    9  O   UNL     1     -10.248   7.934  68.227  1.00  0.00    -0.193 OA 
HETATM   10  P   UNL     1      -9.290   7.892  69.543  1.00  0.00    -0.155 P  
HETATM   11  C   UNL     1      -9.172   9.614  70.087  1.00  0.00    -0.246 C  
HETATM   12  O   UNL     1      -7.987   7.195  69.319  1.00  0.00    -0.115 OA 
HETATM   13  O   UNL     1     -10.202   7.317  70.738  1.00  0.00    -0.197 OA 
BRANCH  13  14
HETATM   14  C   UNL     1     -10.526   5.964  70.879  1.00  0.00    -0.244 C  
BRANCH  14  15
HETATM   15  O   UNL     1      -9.853   5.428  72.043  1.00  0.00    -0.161 OA 
BRANCH  15  16
HETATM   16  C   UNL     1      -8.939   4.446  71.801  1.00  0.00    -0.124 C  
HETATM   17  O   UNL     1      -7.838   4.645  71.298  1.00  0.00    -0.082 OA 
BRANCH  16  18
HETATM   18  C   UNL     1      -9.450   3.051  72.221  1.00  0.00    -0.187 C  
HETATM   19  C   UNL     1     -10.678   3.207  73.141  1.00  0.00    -0.261 C  
HETATM   20  C   UNL     1      -8.362   2.296  72.995  1.00  0.00    -0.062 C  
HETATM   21  C   UNL     1      -9.877   2.234  70.993  1.00  0.00    -0.067 C  
ENDBRANCH  16  18
ENDBRANCH  15  16
ENDBRANCH  14  15
ENDBRANCH  13  14
BRANCH  11  22
HETATM   22  O   UNL     1     -10.528  10.010  70.307  1.00  0.00    -0.274 OA 
BRANCH  22  23
HETATM   23  C   UNL     1     -10.840  11.260  69.728  1.00  0.00    -0.026 C  
BRANCH  23  24
HETATM   24  C   UNL     1      -9.670  11.691  68.854  1.00  0.00    -0.013 C  
BRANCH  24  25
HETATM   25  N   UNL     1     -10.094  12.698  67.917  1.00  0.00    -0.216 NA 
HETATM   26  C   UNL     1      -9.411  13.844  67.644  1.00  0.00    -0.205 A  
HETATM   27  N   UNL     1      -8.167  14.171  68.032  1.00  0.00    -0.141 NA 
HETATM   28  H2  UNL     1     -11.549  16.933  66.508  1.00  0.00     0.000 HD 
HETATM   29  H1  UNL     1     -10.383  17.786  65.723  1.00  0.00     0.000 HD 
HETATM   30  C   UNL     1     -11.327  12.788  67.331  1.00  0.00    -0.313 A  
HETATM   31  N   UNL     1     -11.493  13.946  66.729  1.00  0.00    -0.336 NA 
HETATM   32  C   UNL     1     -10.307  14.628  66.942  1.00  0.00    -0.264 A  
HETATM   33  C   UNL     1      -9.884  15.923  66.613  1.00  0.00    -0.254 A  
HETATM   34  N   UNL     1     -10.692  16.843  65.963  1.00  0.00    -0.195 NA 
HETATM   35  N   UNL     1      -8.624  16.295  66.949  1.00  0.00    -0.195 NA 
HETATM   36  C   UNL     1      -7.851  15.416  67.625  1.00  0.00    -0.157 A  
ENDBRANCH  24  25
ENDBRANCH  23  24
ENDBRANCH  22  23
ENDBRANCH  11  22
ENDBRANCH   8   9
ENDBRANCH   7   8
ENDBRANCH   5   7
ENDBRANCH   2   5
TORSDOF 12
ENDMDL
MODEL      296
REMARK 921   NORMALIZED FREE ENERGY PREDICTED BY IDOCK:   -2.86 KCAL/MOL
REMARK 922        TOTAL FREE ENERGY PREDICTED BY IDOCK:   -6.46 KCAL/MOL
REMARK 923 INTER-LIGAND FREE ENERGY PREDICTED BY IDOCK:   -5.14 KCAL/MOL
REMARK 924 INTRA-LIGAND FREE ENERGY PREDICTED BY IDOCK:   -1.32 KCAL/MOL
REMARK 927      BINDING AFFINITY PREDICTED BY RF-SCORE:    0.00 PKD
ROOT
HETATM    1  C   UNL     1      -7.327  10.760  62.332  1.00  0.00    -0.119 C  
HETATM    2  C   UNL     1      -8.309   9.983  63.232  1.00  0.00    -0.168 C  
HETATM    3  C   UNL     1      -9.706  10.595  63.069  1.00  0.00    -0.362 C  
HETATM    4  C   UNL     1      -8.326   8.516  62.774  1.00  0.00    -0.154 C  
ENDROOT
BRANCH   2   5
HETATM    5  C   UNL     1      -7.814  10.060  64.685  1.00  0.00    -0.145 C  
HETATM    6  O   UNL     1      -6.627  10.030  64.995  1.00  0.00    -0.111 OA 
BRANCH   5   7
HETATM    7  O   UNL     1      -8.830  10.063  65.594  1.00  0.00    -0.148 OA 
BRANCH   7   8
HETATM    8  C   UNL     1      -8.946   8.848  66.358  1.00  0.00    -0.158 C  
BRANCH   8   9
HETATM    9  O   UNL     1      -8.313   8.907  67.632  1.00  0.00    -0.109 OA 
HETATM   10  P   UNL     1      -8.970   9.965  68.681  1.00  0.00    -0.139 P  
HETATM   11  C   UNL     1     -10.647   9.353  68.969  1.00  0.00    -0.213 C  
HETATM   12  O   UNL     1      -8.868  11.390  68.244  1.00  0.00    -0.155 OA 
HETATM   13  O   UNL     1      -8.331   9.620  70.118  1.00  0.00    -0.173 OA 
BRANCH  13  14
HETATM   14  C   UNL     1      -7.035   9.987  70.494  1.00  0.00    -0.089 C  
BRANCH  14  15
HETATM   15  O   UNL     1      -6.718   9.388  71.773  1.00  0.00    -0.301 OA 
BRANCH  15  16
HETATM   16  C   UNL     1      -6.529   8.037  71.765  1.00  0.00    -0.044 C  
HETATM   17  O   UNL     1      -5.756   7.459  71.009  1.00  0.00    -0.034 OA 
BRANCH  16  18
HETATM   18  C   UNL     1      -7.407   7.315  72.809  1.00  0.00    -0.079 C  
HETATM   19  C   UNL     1      -7.797   8.303  73.927  1.00  0.00    -0.245 C  
HETATM   20  C   UNL     1      -6.632   6.153  73.443  1.00  0.00    -0.074 C  
HETATM   21  C   UNL     1      -8.699   6.790  72.167  1.00  0.00    -0.132 C  
ENDBRANCH  16  18
ENDBRANCH  15  16
ENDBRANCH  14  15
ENDBRANCH  13  14
BRANCH  11  22
HETATM   22  O   UNL     1     -10.461   8.020  69.452  1.00  0.00    -0.219 OA 
BRANCH  22  23
HETATM   23  C   UNL     1     -11.004   7.040  68.593  1.00  0.00    -0.090 C  
BRANCH  23  24
HETATM   24  C   UNL     1     -10.883   5.682  69.271  1.00  0.00    -0.239 C  
BRANCH  24  25
HETATM   25  N   UNL     1      -9.809   4.927  68.682  1.00  0.00    -0.162 NA 
HETATM   26  C   UNL     1      -9.759   4.529  67.380  1.00  0.00    -0.178 A  
HETATM   27  N   UNL     1     -10.571   4.901  66.377  1.00  0.00    -0.284 NA 
HETATM   28  H2  UNL     1      -7.759   1.238  66.626  1.00  0.00     0.000 HD 
HETATM   29  H1  UNL     1      -7.431   1.488  65.034  1.00  0.00     0.000 HD 
HETATM   30  C   UNL     1      -8.798   4.298  69.358  1.00  0.00    -0.092 A  
HETATM   31  N   UNL     1      -8.124   3.484  68.573  1.00  0.00    -0.069 NA 
HETATM   32  C   UNL     1      -8.736   3.601  67.336  1.00  0.00    -0.115 A  
HETATM   33  C   UNL     1      -8.530   2.953  66.109  1.00  0.00    -0.105 A  
HETATM   34  N   UNL     1      -7.581   1.959  65.927  1.00  0.00    -0.069 NA 
HETATM   35  N   UNL     1      -9.297   3.315  65.052  1.00  0.00    -0.148 NA 
HETATM   36  C   UNL     1     -10.255   4.250  65.241  1.00  0.00    -0.217 A  
ENDBRANCH  24  25
ENDBRANCH  23  24
ENDBRANCH  22  23
ENDBRANCH  11  22
ENDBRANCH   8   9
ENDBRANCH   7   8
ENDBRANCH   5   7
ENDBRANCH   2   5
TORSDOF 12
ENDMDL
MODEL      297
REMARK 921   NORMALIZED FREE ENERGY PREDICTED BY IDOCK:   -2.84 KCAL/MOL
REMARK 922        TOTAL FREE ENERGY PREDICTED BY IDOCK:   -6.43 KCAL/MOL
REMARK 923 INTER-LIGAND FREE ENERGY PREDICTED BY IDOCK:   -5.19 KCAL/MOL
REMARK 924 INTRA-LIGAND FREE ENERGY PREDICTED BY IDOCK:   -1.24 KCAL/MOL
REMARK 927      BINDING AFFINITY PREDICTED BY RF-SCORE:    0.00 PKD
ROOT
HETATM    1  C   UNL     1      -7.819   6.660  63.440  1.00  0.00    -0.106 C  
HETATM    2  C   UNL     1      -6.349   6.956  63.793  1.00  0.00    -0.043 C  
HETATM    3  C   UNL     1      -6.006   6.229  65.099  1.00  0.00    -0.026 C  
HETATM    4  C   UNL     1      -5.463   6.427  62.655  1.00  0.00    -0.023 C  
ENDROOT
BRANCH   2   5
HETATM    5  C   UNL     1      -6.166   8.477  63.918  1.00  0.00    -0.072 C  
HETATM    6  O   UNL     1      -5.147   9.064  63.567  1.00  0.00    -0.060 OA 
BRANCH   5   7
HETATM    7  O   UNL     1      -7.208   9.089  64.549  1.00  0.00    -0.094 OA 
BRANCH   7   8
HETATM    8  C   UNL     1      -6.890   9.606  65.855  1.00  0.00    -0.089 C  
BRANCH   8   9
HETATM    9  O   UNL     1      -7.998  10.207  66.519  1.00  0.00    -0.114 OA 
HETATM   10  P   UNL     1      -9.079   9.161  67.142  1.00  0.00    -0.129 P  
HETATM   11  C   UNL     1      -8.163   8.240  68.401  1.00  0.00    -0.132 C  
HETATM   12  O   UNL     1      -9.778   8.331  66.115  1.00  0.00    -0.207 OA 
HETATM   13  O   UNL     1     -10.027  10.028  68.112  1.00  0.00    -0.147 OA 
BRANCH  13  14
HETATM   14  C   UNL     1     -11.044  10.869  67.648  1.00  0.00    -0.313 C  
BRANCH  14  15
HETATM   15  O   UNL     1     -10.574  11.593  66.486  1.00  0.00    -0.234 OA 
BRANCH  15  16
HETATM   16  C   UNL     1     -11.540  12.161  65.710  1.00  0.00    -0.355 C  
HETATM   17  O   UNL     1     -12.644  12.494  66.126  1.00  0.00    -0.397 OA 
BRANCH  16  18
HETATM   18  C   UNL     1     -11.090  12.329  64.242  1.00  0.00    -0.401 C  
HETATM   19  C   UNL     1     -10.455  11.015  63.743  1.00  0.00    -0.408 C  
HETATM   20  C   UNL     1     -10.042  13.443  64.131  1.00  0.00     0.217 C  
HETATM   21  C   UNL     1     -12.289  12.650  63.338  1.00  0.00    -0.553 C  
ENDBRANCH  16  18
ENDBRANCH  15  16
ENDBRANCH  14  15
ENDBRANCH  13  14
BRANCH  11  22
HETATM   22  O   UNL     1      -7.674   9.246  69.291  1.00  0.00    -0.077 OA 
BRANCH  22  23
HETATM   23  C   UNL     1      -6.272   9.199  69.461  1.00  0.00    -0.040 C  
BRANCH  23  24
HETATM   24  C   UNL     1      -5.913   7.888  70.147  1.00  0.00    -0.022 C  
BRANCH  24  25
HETATM   25  N   UNL     1      -6.625   7.768  71.392  1.00  0.00    -0.041 NA 
HETATM   26  C   UNL     1      -7.487   6.760  71.702  1.00  0.00    -0.087 A  
HETATM   27  N   UNL     1      -7.701   5.623  71.019  1.00  0.00    -0.101 NA 
HETATM   28  H2  UNL     1     -10.371   7.629  74.218  1.00  0.00     0.000 HD 
HETATM   29  H1  UNL     1     -10.714   6.115  74.759  1.00  0.00     0.000 HD 
HETATM   30  C   UNL     1      -6.735   8.732  72.357  1.00  0.00     0.021 A  
HETATM   31  N   UNL     1      -7.650   8.422  73.250  1.00  0.00    -0.318 NA 
HETATM   32  C   UNL     1      -8.148   7.199  72.834  1.00  0.00    -0.105 A  
HETATM   33  C   UNL     1      -9.177   6.378  73.317  1.00  0.00    -0.127 A  
HETATM   34  N   UNL     1      -9.966   6.713  74.407  1.00  0.00    -0.340 NA 
HETATM   35  N   UNL     1      -9.413   5.201  72.688  1.00  0.00    -0.140 NA 
HETATM   36  C   UNL     1      -8.676   4.895  71.596  1.00  0.00    -0.127 A  
ENDBRANCH  24  25
ENDBRANCH  23  24
ENDBRANCH  22  23
ENDBRANCH  11  22
ENDBRANCH   8   9
ENDBRANCH   7   8
ENDBRANCH   5   7
ENDBRANCH   2   5
TORSDOF 12
ENDMDL
MODEL      298
REMARK 921   NORMALIZED FREE ENERGY PREDICTED BY IDOCK:   -2.84 KCAL/MOL
REMARK 922        TOTAL FREE ENERGY PREDICTED BY IDOCK:   -6.43 KCAL/MOL
REMARK 923 INTER-LIGAND FREE ENERGY PREDICTED BY IDOCK:   -5.47 KCAL/MOL
REMARK 924 INTRA-LIGAND FREE ENERGY PREDICTED BY IDOCK:   -0.96 KCAL/MOL
REMARK 927      BINDING AFFINITY PREDICTED BY RF-SCORE:    0.00 PKD
ROOT
HETATM    1  C   UNL     1      -8.131   4.335  64.005  1.00  0.00    -0.093 C  
HETATM    2  C   UNL     1      -6.959   3.818  64.862  1.00  0.00    -0.053 C  
HETATM    3  C   UNL     1      -7.130   2.307  65.059  1.00  0.00    -0.053 C  
HETATM    4  C   UNL     1      -5.649   4.100  64.109  1.00  0.00    -0.014 C  
ENDROOT
BRANCH   2   5
HETATM    5  C   UNL     1      -6.953   4.574  66.200  1.00  0.00    -0.063 C  
HETATM    6  O   UNL     1      -6.116   5.425  66.489  1.00  0.00    -0.028 OA 
BRANCH   5   7
HETATM    7  O   UNL     1      -7.908   4.133  67.066  1.00  0.00    -0.094 OA 
BRANCH   7   8
HETATM    8  C   UNL     1      -9.055   4.997  67.176  1.00  0.00    -0.114 C  
BRANCH   8   9
HETATM    9  O   UNL     1      -8.724   6.371  67.358  1.00  0.00    -0.108 OA 
HETATM   10  P   UNL     1      -9.934   7.305  67.916  1.00  0.00    -0.178 P  
HETATM   11  C   UNL     1     -10.313   6.646  69.557  1.00  0.00    -0.202 C  
HETATM   12  O   UNL     1     -11.094   7.412  66.979  1.00  0.00    -0.268 OA 
HETATM   13  O   UNL     1      -9.255   8.696  68.359  1.00  0.00    -0.138 OA 
BRANCH  13  14
HETATM   14  C   UNL     1      -8.854   9.682  67.451  1.00  0.00    -0.128 C  
BRANCH  14  15
HETATM   15  O   UNL     1      -9.967  10.567  67.183  1.00  0.00    -0.180 OA 
BRANCH  15  16
HETATM   16  C   UNL     1      -9.702  11.901  67.282  1.00  0.00    -0.184 C  
HETATM   17  O   UNL     1      -8.590  12.362  67.512  1.00  0.00    -0.158 OA 
BRANCH  16  18
HETATM   18  C   UNL     1     -10.964  12.767  67.080  1.00  0.00    -0.295 C  
HETATM   19  C   UNL     1     -11.855  12.681  68.336  1.00  0.00    -0.347 C  
HETATM   20  C   UNL     1     -11.773  12.258  65.880  1.00  0.00    -0.451 C  
HETATM   21  C   UNL     1     -10.587  14.240  66.866  1.00  0.00    -0.273 C  
ENDBRANCH  16  18
ENDBRANCH  15  16
ENDBRANCH  14  15
ENDBRANCH  13  14
BRANCH  11  22
HETATM   22  O   UNL     1      -9.074   6.729  70.267  1.00  0.00    -0.151 OA 
BRANCH  22  23
HETATM   23  C   UNL     1      -9.205   7.329  71.539  1.00  0.00    -0.144 C  
BRANCH  23  24
HETATM   24  C   UNL     1      -8.383   6.526  72.537  1.00  0.00    -0.114 C  
BRANCH  24  25
HETATM   25  N   UNL     1      -9.211   5.546  73.189  1.00  0.00    -0.133 NA 
HETATM   26  C   UNL     1      -9.371   4.259  72.771  1.00  0.00    -0.120 A  
HETATM   27  N   UNL     1      -8.677   3.613  71.819  1.00  0.00    -0.092 NA 
HETATM   28  H2  UNL     1     -12.792   2.544  73.639  1.00  0.00     0.000 HD 
HETATM   29  H1  UNL     1     -12.328   0.970  73.549  1.00  0.00     0.000 HD 
HETATM   30  C   UNL     1     -10.132   5.791  74.172  1.00  0.00    -0.257 A  
HETATM   31  N   UNL     1     -10.904   4.746  74.383  1.00  0.00    -0.325 NA 
HETATM   32  C   UNL     1     -10.453   3.788  73.490  1.00  0.00    -0.179 A  
HETATM   33  C   UNL     1     -10.897   2.495  73.180  1.00  0.00    -0.148 A  
HETATM   34  N   UNL     1     -12.005   1.910  73.775  1.00  0.00    -0.126 NA 
HETATM   35  N   UNL     1     -10.213   1.783  72.252  1.00  0.00    -0.157 NA 
HETATM   36  C   UNL     1      -9.161   2.370  71.636  1.00  0.00    -0.101 A  
ENDBRANCH  24  25
ENDBRANCH  23  24
ENDBRANCH  22  23
ENDBRANCH  11  22
ENDBRANCH   8   9
ENDBRANCH   7   8
ENDBRANCH   5   7
ENDBRANCH   2   5
TORSDOF 12
ENDMDL
MODEL      299
REMARK 921   NORMALIZED FREE ENERGY PREDICTED BY IDOCK:   -2.79 KCAL/MOL
REMARK 922        TOTAL FREE ENERGY PREDICTED BY IDOCK:   -6.35 KCAL/MOL
REMARK 923 INTER-LIGAND FREE ENERGY PREDICTED BY IDOCK:   -6.65 KCAL/MOL
REMARK 924 INTRA-LIGAND FREE ENERGY PREDICTED BY IDOCK:    0.30 KCAL/MOL
REMARK 927      BINDING AFFINITY PREDICTED BY RF-SCORE:    0.00 PKD
ROOT
HETATM    1  C   UNL     1      -8.776   5.012  67.522  1.00  0.00    -0.103 C  
HETATM    2  C   UNL     1      -9.465   6.379  67.702  1.00  0.00    -0.120 C  
HETATM    3  C   UNL     1      -9.443   7.116  66.357  1.00  0.00    -0.177 C  
HETATM    4  C   UNL     1     -10.918   6.135  68.138  1.00  0.00    -0.398 C  
ENDROOT
BRANCH   2   5
HETATM    5  C   UNL     1      -8.727   7.164  68.798  1.00  0.00    -0.124 C  
HETATM    6  O   UNL     1      -9.286   7.622  69.790  1.00  0.00    -0.147 OA 
BRANCH   5   7
HETATM    7  O   UNL     1      -7.414   7.383  68.505  1.00  0.00    -0.099 OA 
BRANCH   7   8
HETATM    8  C   UNL     1      -7.164   8.597  67.773  1.00  0.00    -0.088 C  
BRANCH   8   9
HETATM    9  O   UNL     1      -6.894   9.723  68.603  1.00  0.00    -0.052 OA 
HETATM   10  P   UNL     1      -7.232  11.169  67.937  1.00  0.00    -0.098 P  
HETATM   11  C   UNL     1      -9.020  11.149  67.665  1.00  0.00    -0.140 C  
HETATM   12  O   UNL     1      -6.399  11.492  66.739  1.00  0.00    -0.135 OA 
HETATM   13  O   UNL     1      -7.177  12.237  69.141  1.00  0.00    -0.065 OA 
BRANCH  13  14
HETATM   14  C   UNL     1      -5.985  12.720  69.691  1.00  0.00    -0.121 C  
BRANCH  14  15
HETATM   15  O   UNL     1      -5.266  13.475  68.686  1.00  0.00    -0.071 OA 
BRANCH  15  16
HETATM   16  C   UNL     1      -5.759  14.715  68.410  1.00  0.00    -0.106 C  
HETATM   17  O   UNL     1      -5.873  15.170  67.277  1.00  0.00    -0.326 OA 
BRANCH  16  18
HETATM   18  C   UNL     1      -6.150  15.490  69.687  1.00  0.00    -0.150 C  
HETATM   19  C   UNL     1      -5.661  16.949  69.576  1.00  0.00    -0.187 C  
HETATM   20  C   UNL     1      -5.490  14.855  70.918  1.00  0.00    -0.134 C  
HETATM   21  C   UNL     1      -7.675  15.512  69.868  1.00  0.00     0.078 C  
ENDBRANCH  16  18
ENDBRANCH  15  16
ENDBRANCH  14  15
ENDBRANCH  13  14
BRANCH  11  22
HETATM   22  O   UNL     1      -9.574  10.907  68.961  1.00  0.00    -0.200 OA 
BRANCH  22  23
HETATM   23  C   UNL     1     -10.829  10.262  68.913  1.00  0.00    -0.228 C  
BRANCH  23  24
HETATM   24  C   UNL     1     -11.850  11.236  68.342  1.00  0.00    -0.261 C  
BRANCH  24  25
HETATM   25  N   UNL     1     -12.155  12.260  69.307  1.00  0.00    -0.221 NA 
HETATM   26  C   UNL     1     -11.861  13.582  69.159  1.00  0.00    -0.340 A  
HETATM   27  N   UNL     1     -11.417  14.206  68.055  1.00  0.00    -0.294 NA 
HETATM   28  H2  UNL     1     -11.247  15.622  72.455  1.00  0.00     0.000 HD 
HETATM   29  H1  UNL     1     -11.563  17.134  71.891  1.00  0.00     0.000 HD 
HETATM   30  C   UNL     1     -12.568  12.058  70.595  1.00  0.00    -0.168 A  
HETATM   31  N   UNL     1     -12.519  13.169  71.299  1.00  0.00    -0.297 NA 
HETATM   32  C   UNL     1     -12.050  14.126  70.415  1.00  0.00    -0.346 A  
HETATM   33  C   UNL     1     -11.721  15.480  70.568  1.00  0.00    -0.349 A  
HETATM   34  N   UNL     1     -11.802  16.148  71.780  1.00  0.00    -0.503 NA 
HETATM   35  N   UNL     1     -11.301  16.169  69.479  1.00  0.00    -0.332 NA 
HETATM   36  C   UNL     1     -11.176  15.507  68.306  1.00  0.00    -0.343 A  
ENDBRANCH  24  25
ENDBRANCH  23  24
ENDBRANCH  22  23
ENDBRANCH  11  22
ENDBRANCH   8   9
ENDBRANCH   7   8
ENDBRANCH   5   7
ENDBRANCH   2   5
TORSDOF 12
ENDMDL
MODEL      300
REMARK 921   NORMALIZED FREE ENERGY PREDICTED BY IDOCK:   -2.51 KCAL/MOL
REMARK 922        TOTAL FREE ENERGY PREDICTED BY IDOCK:   -5.87 KCAL/MOL
REMARK 923 INTER-LIGAND FREE ENERGY PREDICTED BY IDOCK:   -5.12 KCAL/MOL
REMARK 924 INTRA-LIGAND FREE ENERGY PREDICTED BY IDOCK:   -0.75 KCAL/MOL
REMARK 927      BINDING AFFINITY PREDICTED BY RF-SCORE:    0.00 PKD
ROOT
HETATM    1  C   UNL     1     -11.192  10.467  70.461  1.00  0.00    -0.395 C  
HETATM    2  C   UNL     1     -12.546  10.243  71.161  1.00  0.00    -0.501 C  
HETATM    3  C   UNL     1     -12.912  11.515  71.934  1.00  0.00    -0.453 C  
HETATM    4  C   UNL     1     -13.607   9.965  70.085  1.00  0.00     0.851 C  
ENDROOT
BRANCH   2   5
HETATM    5  C   UNL     1     -12.428   9.022  72.088  1.00  0.00    -0.380 C  
HETATM    6  O   UNL     1     -13.167   8.832  73.049  1.00  0.00    -0.292 OA 
BRANCH   5   7
HETATM    7  O   UNL     1     -11.358   8.231  71.793  1.00  0.00    -0.258 OA 
BRANCH   7   8
HETATM    8  C   UNL     1     -10.462   8.009  72.898  1.00  0.00    -0.332 C  
BRANCH   8   9
HETATM    9  O   UNL     1     -10.045   6.653  73.036  1.00  0.00    -0.170 OA 
HETATM   10  P   UNL     1     -10.900   5.576  72.164  1.00  0.00    -0.188 P  
HETATM   11  C   UNL     1     -10.601   6.033  70.439  1.00  0.00    -0.268 C  
HETATM   12  O   UNL     1     -12.335   5.477  72.567  1.00  0.00    -0.069 OA 
HETATM   13  O   UNL     1     -10.059   4.204  72.206  1.00  0.00    -0.170 OA 
BRANCH  13  14
HETATM   14  C   UNL     1     -10.030   3.350  73.313  1.00  0.00    -0.119 C  
BRANCH  14  15
HETATM   15  O   UNL     1      -8.724   2.734  73.410  1.00  0.00    -0.077 OA 
BRANCH  15  16
HETATM   16  C   UNL     1      -7.840   3.060  72.425  1.00  0.00    -0.058 C  
HETATM   17  O   UNL     1      -8.006   2.792  71.240  1.00  0.00    -0.049 OA 
BRANCH  16  18
HETATM   18  C   UNL     1      -6.598   3.797  72.971  1.00  0.00    -0.036 C  
HETATM   19  C   UNL     1      -6.334   3.355  74.425  1.00  0.00    -0.025 C  
HETATM   20  C   UNL     1      -6.832   5.312  72.963  1.00  0.00    -0.077 C  
HETATM   21  C   UNL     1      -5.352   3.458  72.138  1.00  0.00     0.000 C  
ENDBRANCH  16  18
ENDBRANCH  15  16
ENDBRANCH  14  15
ENDBRANCH  13  14
BRANCH  11  22
HETATM   22  O   UNL     1      -9.180   5.973  70.297  1.00  0.00    -0.152 OA 
BRANCH  22  23
HETATM   23  C   UNL     1      -8.614   7.198  69.881  1.00  0.00    -0.141 C  
BRANCH  23  24
HETATM   24  C   UNL     1      -8.337   7.117  68.386  1.00  0.00    -0.125 C  
BRANCH  24  25
HETATM   25  N   UNL     1      -9.029   8.173  67.694  1.00  0.00    -0.132 NA 
HETATM   26  C   UNL     1      -8.491   9.386  67.388  1.00  0.00    -0.125 A  
HETATM   27  N   UNL     1      -7.207   9.765  67.493  1.00  0.00    -0.089 NA 
HETATM   28  H2  UNL     1     -10.989  12.404  67.148  1.00  0.00     0.000 HD 
HETATM   29  H1  UNL     1     -10.098  13.408  66.199  1.00  0.00     0.000 HD 
HETATM   30  C   UNL     1     -10.373   8.227  67.440  1.00  0.00    -0.280 A  
HETATM   31  N   UNL     1     -10.739   9.421  67.025  1.00  0.00    -0.195 NA 
HETATM   32  C   UNL     1      -9.571  10.164  67.014  1.00  0.00    -0.171 A  
HETATM   33  C   UNL     1      -9.304  11.512  66.733  1.00  0.00    -0.181 A  
HETATM   34  N   UNL     1     -10.292  12.428  66.404  1.00  0.00    -0.231 NA 
HETATM   35  N   UNL     1      -8.020  11.941  66.789  1.00  0.00    -0.129 NA 
HETATM   36  C   UNL     1      -7.062  11.061  67.158  1.00  0.00    -0.104 A  
ENDBRANCH  24  25
ENDBRANCH  23  24
ENDBRANCH  22  23
ENDBRANCH  11  22
ENDBRANCH   8   9
ENDBRANCH   7   8
ENDBRANCH   5   7
ENDBRANCH   2   5
TORSDOF 12
ENDMDL
MODEL      301
REMARK 921   NORMALIZED FREE ENERGY PREDICTED BY IDOCK:   -2.42 KCAL/MOL
REMARK 922        TOTAL FREE ENERGY PREDICTED BY IDOCK:   -5.72 KCAL/MOL
REMARK 923 INTER-LIGAND FREE ENERGY PREDICTED BY IDOCK:   -5.68 KCAL/MOL
REMARK 924 INTRA-LIGAND FREE ENERGY PREDICTED BY IDOCK:   -0.03 KCAL/MOL
REMARK 927      BINDING AFFINITY PREDICTED BY RF-SCORE:    0.00 PKD
ROOT
HETATM    1  C   UNL     1      -5.743  10.681  65.745  1.00  0.00    -0.139 C  
HETATM    2  C   UNL     1      -6.161   9.389  65.017  1.00  0.00    -0.067 C  
HETATM    3  C   UNL     1      -5.280   9.225  63.772  1.00  0.00    -0.061 C  
HETATM    4  C   UNL     1      -5.940   8.204  65.970  1.00  0.00    -0.041 C  
ENDROOT
BRANCH   2   5
HETATM    5  C   UNL     1      -7.652   9.484  64.657  1.00  0.00    -0.113 C  
HETATM    6  O   UNL     1      -8.057   9.860  63.561  1.00  0.00    -0.141 OA 
BRANCH   5   7
HETATM    7  O   UNL     1      -8.473   9.206  65.708  1.00  0.00    -0.128 OA 
BRANCH   7   8
HETATM    8  C   UNL     1      -9.854   9.552  65.491  1.00  0.00    -0.234 C  
BRANCH   8   9
HETATM    9  O   UNL     1     -10.418  10.343  66.533  1.00  0.00    -0.236 OA 
HETATM   10  P   UNL     1      -9.339  11.124  67.468  1.00  0.00    -0.172 P  
HETATM   11  C   UNL     1      -8.499  12.272  66.350  1.00  0.00     0.102 C  
HETATM   12  O   UNL     1      -8.448  10.214  68.250  1.00  0.00    -0.112 OA 
HETATM   13  O   UNL     1     -10.185  12.191  68.327  1.00  0.00    -0.198 OA 
BRANCH  13  14
HETATM   14  C   UNL     1     -10.962  11.845  69.437  1.00  0.00    -0.095 C  
BRANCH  14  15
HETATM   15  O   UNL     1     -11.307  13.043  70.173  1.00  0.00    -0.018 OA 
BRANCH  15  16
HETATM   16  C   UNL     1     -12.378  12.938  71.010  1.00  0.00    -0.225 C  
HETATM   17  O   UNL     1     -13.077  11.935  71.104  1.00  0.00    -0.235 OA 
BRANCH  16  18
HETATM   18  C   UNL     1     -12.620  14.230  71.819  1.00  0.00    -0.418 C  
HETATM   19  C   UNL     1     -11.383  15.146  71.711  1.00  0.00    -0.391 C  
HETATM   20  C   UNL     1     -12.843  13.897  73.300  1.00  0.00     0.267 C  
HETATM   21  C   UNL     1     -13.830  15.000  71.270  1.00  0.00    -0.528 C  
ENDBRANCH  16  18
ENDBRANCH  15  16
ENDBRANCH  14  15
ENDBRANCH  13  14
BRANCH  11  22
HETATM   22  O   UNL     1      -9.552  13.069  65.803  1.00  0.00    -0.186 OA 
BRANCH  22  23
HETATM   23  C   UNL     1      -9.702  14.312  66.457  1.00  0.00    -0.291 C  
BRANCH  23  24
HETATM   24  C   UNL     1      -8.790  15.325  65.781  1.00  0.00     0.416 C  
BRANCH  24  25
HETATM   25  N   UNL     1      -8.009  16.027  66.765  1.00  0.00    -0.251 NA 
HETATM   26  C   UNL     1      -8.429  17.125  67.454  1.00  0.00    -0.191 A  
HETATM   27  N   UNL     1      -9.667  17.645  67.494  1.00  0.00    -0.274 NA 
HETATM   28  H2  UNL     1      -5.647  19.636  68.619  1.00  0.00     0.000 HD 
HETATM   29  H1  UNL     1      -6.451  20.366  69.853  1.00  0.00     0.000 HD 
HETATM   30  C   UNL     1      -6.672  15.861  67.005  1.00  0.00    -0.048 A  
HETATM   31  N   UNL     1      -6.196  16.814  67.777  1.00  0.00    -0.136 NA 
HETATM   32  C   UNL     1      -7.284  17.628  68.043  1.00  0.00    -0.216 A  
HETATM   33  C   UNL     1      -7.420  18.833  68.747  1.00  0.00    -0.306 A  
HETATM   34  N   UNL     1      -6.352  19.489  69.340  1.00  0.00    -0.305 NA 
HETATM   35  N   UNL     1      -8.653  19.385  68.850  1.00  0.00    -0.349 NA 
HETATM   36  C   UNL     1      -9.687  18.772  68.231  1.00  0.00    -0.362 A  
ENDBRANCH  24  25
ENDBRANCH  23  24
ENDBRANCH  22  23
ENDBRANCH  11  22
ENDBRANCH   8   9
ENDBRANCH   7   8
ENDBRANCH   5   7
ENDBRANCH   2   5
TORSDOF 12
ENDMDL
MODEL      302
REMARK 921   NORMALIZED FREE ENERGY PREDICTED BY IDOCK:   -2.42 KCAL/MOL
REMARK 922        TOTAL FREE ENERGY PREDICTED BY IDOCK:   -5.71 KCAL/MOL
REMARK 923 INTER-LIGAND FREE ENERGY PREDICTED BY IDOCK:   -5.63 KCAL/MOL
REMARK 924 INTRA-LIGAND FREE ENERGY PREDICTED BY IDOCK:   -0.08 KCAL/MOL
REMARK 927      BINDING AFFINITY PREDICTED BY RF-SCORE:    0.00 PKD
ROOT
HETATM    1  C   UNL     1      -7.465   3.640  67.395  1.00  0.00    -0.067 C  
HETATM    2  C   UNL     1      -6.640   4.876  67.802  1.00  0.00    -0.050 C  
HETATM    3  C   UNL     1      -7.161   5.387  69.151  1.00  0.00    -0.057 C  
HETATM    4  C   UNL     1      -5.169   4.453  67.938  1.00  0.00    -0.011 C  
ENDROOT
BRANCH   2   5
HETATM    5  C   UNL     1      -6.766   5.939  66.699  1.00  0.00    -0.057 C  
HETATM    6  O   UNL     1      -6.905   5.664  65.511  1.00  0.00    -0.053 OA 
BRANCH   5   7
HETATM    7  O   UNL     1      -6.606   7.211  67.163  1.00  0.00    -0.054 OA 
BRANCH   7   8
HETATM    8  C   UNL     1      -7.027   8.236  66.243  1.00  0.00    -0.066 C  
BRANCH   8   9
HETATM    9  O   UNL     1      -7.521   9.411  66.880  1.00  0.00    -0.090 OA 
HETATM   10  P   UNL     1      -8.876  10.032  66.227  1.00  0.00    -0.150 P  
HETATM   11  C   UNL     1     -10.134   8.753  66.463  1.00  0.00    -0.279 C  
HETATM   12  O   UNL     1      -8.703  10.518  64.824  1.00  0.00    -0.182 OA 
HETATM   13  O   UNL     1      -9.423  11.114  67.286  1.00  0.00    -0.163 OA 
BRANCH  13  14
HETATM   14  C   UNL     1      -8.866  12.387  67.446  1.00  0.00    -0.188 C  
BRANCH  14  15
HETATM   15  O   UNL     1      -9.927  13.358  67.607  1.00  0.00    -0.221 OA 
BRANCH  15  16
HETATM   16  C   UNL     1     -10.042  14.282  66.611  1.00  0.00    -0.273 C  
HETATM   17  O   UNL     1      -9.686  14.089  65.455  1.00  0.00    -0.214 OA 
BRANCH  16  18
HETATM   18  C   UNL     1     -10.664  15.605  67.107  1.00  0.00    -0.314 C  
HETATM   19  C   UNL     1      -9.681  16.766  66.851  1.00  0.00    -0.263 C  
HETATM   20  C   UNL     1     -10.940  15.532  68.614  1.00  0.00    -0.279 C  
HETATM   21  C   UNL     1     -11.967  15.912  66.353  1.00  0.00     1.083 C  
ENDBRANCH  16  18
ENDBRANCH  15  16
ENDBRANCH  14  15
ENDBRANCH  13  14
BRANCH  11  22
HETATM   22  O   UNL     1     -10.157   8.534  67.875  1.00  0.00    -0.186 OA 
BRANCH  22  23
HETATM   23  C   UNL     1      -9.894   7.193  68.231  1.00  0.00    -0.151 C  
BRANCH  23  24
HETATM   24  C   UNL     1     -10.621   6.889  69.534  1.00  0.00    -0.236 C  
BRANCH  24  25
HETATM   25  N   UNL     1     -10.928   8.111  70.229  1.00  0.00    -0.249 NA 
HETATM   26  C   UNL     1     -12.022   8.304  71.019  1.00  0.00    -0.241 A  
HETATM   27  N   UNL     1     -12.900   7.382  71.445  1.00  0.00    -0.370 NA 
HETATM   28  H2  UNL     1     -13.379  11.978  71.267  1.00  0.00     0.000 HD 
HETATM   29  H1  UNL     1     -14.189  11.864  72.693  1.00  0.00     0.000 HD 
HETATM   30  C   UNL     1     -10.322   9.323  70.039  1.00  0.00    -0.217 A  
HETATM   31  N   UNL     1     -10.986  10.294  70.628  1.00  0.00    -0.285 NA 
HETATM   32  C   UNL     1     -12.069   9.671  71.223  1.00  0.00    -0.371 A  
HETATM   33  C   UNL     1     -13.172  10.159  71.939  1.00  0.00    -0.452 A  
HETATM   34  N   UNL     1     -13.387  11.509  72.172  1.00  0.00    -0.374 NA 
HETATM   35  N   UNL     1     -14.072   9.269  72.424  1.00  0.00    -0.392 NA 
HETATM   36  C   UNL     1     -13.889   7.957  72.156  1.00  0.00    -0.155 A  
ENDBRANCH  24  25
ENDBRANCH  23  24
ENDBRANCH  22  23
ENDBRANCH  11  22
ENDBRANCH   8   9
ENDBRANCH   7   8
ENDBRANCH   5   7
ENDBRANCH   2   5
TORSDOF 12
ENDMDL
MODEL      303
REMARK 921   NORMALIZED FREE ENERGY PREDICTED BY IDOCK:   -2.41 KCAL/MOL
REMARK 922        TOTAL FREE ENERGY PREDICTED BY IDOCK:   -5.70 KCAL/MOL
REMARK 923 INTER-LIGAND FREE ENERGY PREDICTED BY IDOCK:   -4.89 KCAL/MOL
REMARK 924 INTRA-LIGAND FREE ENERGY PREDICTED BY IDOCK:   -0.82 KCAL/MOL
REMARK 927      BINDING AFFINITY PREDICTED BY RF-SCORE:    0.00 PKD
ROOT
HETATM    1  C   UNL     1     -10.321  12.455  62.967  1.00  0.00     0.369 C  
HETATM    2  C   UNL     1     -11.434  12.731  63.996  1.00  0.00    -0.476 C  
HETATM    3  C   UNL     1     -11.431  14.229  64.326  1.00  0.00    -0.257 C  
HETATM    4  C   UNL     1     -12.781  12.339  63.368  1.00  0.00    -0.461 C  
ENDROOT
BRANCH   2   5
HETATM    5  C   UNL     1     -11.181  11.868  65.242  1.00  0.00    -0.295 C  
HETATM    6  O   UNL     1     -11.994  11.746  66.153  1.00  0.00    -0.464 OA 
BRANCH   5   7
HETATM    7  O   UNL     1      -9.926  11.338  65.277  1.00  0.00    -0.227 OA 
BRANCH   7   8
HETATM    8  C   UNL     1      -9.888   9.918  65.516  1.00  0.00    -0.311 C  
BRANCH   8   9
HETATM    9  O   UNL     1      -9.125   9.549  66.661  1.00  0.00    -0.142 OA 
HETATM   10  P   UNL     1      -9.819   8.436  67.624  1.00  0.00    -0.203 P  
HETATM   11  C   UNL     1      -9.956   6.953  66.598  1.00  0.00    -0.143 C  
HETATM   12  O   UNL     1     -11.089   8.898  68.263  1.00  0.00     0.044 OA 
HETATM   13  O   UNL     1      -8.665   7.935  68.629  1.00  0.00    -0.128 OA 
BRANCH  13  14
HETATM   14  C   UNL     1      -8.227   8.677  69.730  1.00  0.00    -0.121 C  
BRANCH  14  15
HETATM   15  O   UNL     1      -8.115   7.806  70.881  1.00  0.00    -0.098 OA 
BRANCH  15  16
HETATM   16  C   UNL     1      -7.637   8.385  72.019  1.00  0.00    -0.117 C  
HETATM   17  O   UNL     1      -8.346   8.911  72.869  1.00  0.00    -0.372 OA 
BRANCH  16  18
HETATM   18  C   UNL     1      -6.097   8.313  72.113  1.00  0.00    -0.054 C  
HETATM   19  C   UNL     1      -5.473   8.956  70.857  1.00  0.00    -0.029 C  
HETATM   20  C   UNL     1      -5.636   6.852  72.185  1.00  0.00    -0.037 C  
HETATM   21  C   UNL     1      -5.588   9.081  73.342  1.00  0.00    -0.090 C  
ENDBRANCH  16  18
ENDBRANCH  15  16
ENDBRANCH  14  15
ENDBRANCH  13  14
BRANCH  11  22
HETATM   22  O   UNL     1      -8.614   6.681  66.187  1.00  0.00    -0.135 OA 
BRANCH  22  23
HETATM   23  C   UNL     1      -8.289   5.307  66.231  1.00  0.00    -0.114 C  
BRANCH  23  24
HETATM   24  C   UNL     1      -7.256   5.091  67.327  1.00  0.00    -0.077 C  
BRANCH  24  25
HETATM   25  N   UNL     1      -7.634   3.976  68.155  1.00  0.00    -0.066 NA 
HETATM   26  C   UNL     1      -8.509   4.042  69.197  1.00  0.00    -0.077 A  
HETATM   27  N   UNL     1      -9.306   5.068  69.537  1.00  0.00    -0.118 NA 
HETATM   28  H2  UNL     1      -7.971   1.460  72.104  1.00  0.00     0.000 HD 
HETATM   29  H1  UNL     1      -9.487   1.461  72.740  1.00  0.00     0.000 HD 
HETATM   30  C   UNL     1      -7.027   2.750  68.187  1.00  0.00    -0.048 A  
HETATM   31  N   UNL     1      -7.431   2.036  69.215  1.00  0.00    -0.043 NA 
HETATM   32  C   UNL     1      -8.341   2.847  69.872  1.00  0.00    -0.044 A  
HETATM   33  C   UNL     1      -9.067   2.691  71.061  1.00  0.00    -0.110 A  
HETATM   34  N   UNL     1      -8.958   1.574  71.876  1.00  0.00    -0.066 NA 
HETATM   35  N   UNL     1      -9.915   3.681  71.434  1.00  0.00    -0.144 NA 
HETATM   36  C   UNL     1      -9.986   4.792  70.666  1.00  0.00    -0.230 A  
ENDBRANCH  24  25
ENDBRANCH  23  24
ENDBRANCH  22  23
ENDBRANCH  11  22
ENDBRANCH   8   9
ENDBRANCH   7   8
ENDBRANCH   5   7
ENDBRANCH   2   5
TORSDOF 12
ENDMDL
MODEL      304
REMARK 921   NORMALIZED FREE ENERGY PREDICTED BY IDOCK:   -2.41 KCAL/MOL
REMARK 922        TOTAL FREE ENERGY PREDICTED BY IDOCK:   -5.70 KCAL/MOL
REMARK 923 INTER-LIGAND FREE ENERGY PREDICTED BY IDOCK:   -6.23 KCAL/MOL
REMARK 924 INTRA-LIGAND FREE ENERGY PREDICTED BY IDOCK:    0.52 KCAL/MOL
REMARK 927      BINDING AFFINITY PREDICTED BY RF-SCORE:    0.00 PKD
ROOT
HETATM    1  C   UNL     1     -11.788  14.758  64.726  1.00  0.00    -0.425 C  
HETATM    2  C   UNL     1     -11.068  14.429  66.048  1.00  0.00    -0.324 C  
HETATM    3  C   UNL     1     -10.166  15.611  66.419  1.00  0.00    -0.300 C  
HETATM    4  C   UNL     1     -12.131  14.223  67.139  1.00  0.00    -0.412 C  
ENDROOT
BRANCH   2   5
HETATM    5  C   UNL     1     -10.267  13.130  65.865  1.00  0.00    -0.291 C  
HETATM    6  O   UNL     1     -10.551  12.276  65.031  1.00  0.00    -0.269 OA 
BRANCH   5   7
HETATM    7  O   UNL     1      -9.274  12.982  66.787  1.00  0.00    -0.229 OA 
BRANCH   7   8
HETATM    8  C   UNL     1      -9.736  12.650  68.109  1.00  0.00    -0.219 C  
BRANCH   8   9
HETATM    9  O   UNL     1      -8.916  11.699  68.782  1.00  0.00    -0.122 OA 
HETATM   10  P   UNL     1      -7.712  11.069  67.886  1.00  0.00    -0.113 P  
HETATM   11  C   UNL     1      -6.646  12.474  67.484  1.00  0.00    -0.150 C  
HETATM   12  O   UNL     1      -8.186  10.263  66.720  1.00  0.00    -0.121 OA 
HETATM   13  O   UNL     1      -6.740  10.309  68.920  1.00  0.00    -0.055 OA 
BRANCH  13  14
HETATM   14  C   UNL     1      -7.033   9.062  69.481  1.00  0.00    -0.051 C  
BRANCH  14  15
HETATM   15  O   UNL     1      -7.601   8.201  68.465  1.00  0.00    -0.099 OA 
BRANCH  15  16
HETATM   16  C   UNL     1      -8.121   7.022  68.910  1.00  0.00    -0.121 C  
HETATM   17  O   UNL     1      -9.196   6.923  69.489  1.00  0.00    -0.148 OA 
BRANCH  16  18
HETATM   18  C   UNL     1      -7.196   5.822  68.610  1.00  0.00    -0.082 C  
HETATM   19  C   UNL     1      -7.063   4.945  69.872  1.00  0.00    -0.054 C  
HETATM   20  C   UNL     1      -5.798   6.313  68.216  1.00  0.00    -0.013 C  
HETATM   21  C   UNL     1      -7.778   4.951  67.487  1.00  0.00    -0.091 C  
ENDBRANCH  16  18
ENDBRANCH  15  16
ENDBRANCH  14  15
ENDBRANCH  13  14
BRANCH  11  22
HETATM   22  O   UNL     1      -6.271  13.010  68.756  1.00  0.00    -0.070 OA 
BRANCH  22  23
HETATM   23  C   UNL     1      -6.729  14.331  68.955  1.00  0.00    -0.106 C  
BRANCH  23  24
HETATM   24  C   UNL     1      -6.116  15.221  67.883  1.00  0.00    -0.153 C  
BRANCH  24  25
HETATM   25  N   UNL     1      -6.597  16.570  68.021  1.00  0.00    -0.132 NA 
HETATM   26  C   UNL     1      -6.436  17.553  67.092  1.00  0.00    -0.161 A  
HETATM   27  N   UNL     1      -5.982  17.428  65.834  1.00  0.00    -0.172 NA 
HETATM   28  H2  UNL     1      -6.283  21.235  68.442  1.00  0.00     0.000 HD 
HETATM   29  H1  UNL     1      -6.717  22.036  67.073  1.00  0.00     0.000 HD 
HETATM   30  C   UNL     1      -7.079  17.143  69.167  1.00  0.00    -0.213 A  
HETATM   31  N   UNL     1      -7.199  18.448  69.042  1.00  0.00    -0.265 NA 
HETATM   32  C   UNL     1      -6.773  18.719  67.754  1.00  0.00    -0.210 A  
HETATM   33  C   UNL     1      -6.602  19.915  67.042  1.00  0.00    -0.202 A  
HETATM   34  N   UNL     1      -6.841  21.166  67.591  1.00  0.00    -0.419 NA 
HETATM   35  N   UNL     1      -6.179  19.846  65.756  1.00  0.00    -0.187 NA 
HETATM   36  C   UNL     1      -5.900  18.631  65.234  1.00  0.00    -0.249 A  
ENDBRANCH  24  25
ENDBRANCH  23  24
ENDBRANCH  22  23
ENDBRANCH  11  22
ENDBRANCH   8   9
ENDBRANCH   7   8
ENDBRANCH   5   7
ENDBRANCH   2   5
TORSDOF 12
ENDMDL
MODEL      305
REMARK 921   NORMALIZED FREE ENERGY PREDICTED BY IDOCK:   -2.39 KCAL/MOL
REMARK 922        TOTAL FREE ENERGY PREDICTED BY IDOCK:   -5.66 KCAL/MOL
REMARK 923 INTER-LIGAND FREE ENERGY PREDICTED BY IDOCK:   -5.81 KCAL/MOL
REMARK 924 INTRA-LIGAND FREE ENERGY PREDICTED BY IDOCK:    0.15 KCAL/MOL
REMARK 927      BINDING AFFINITY PREDICTED BY RF-SCORE:    0.00 PKD
ROOT
HETATM    1  C   UNL     1      -5.415  13.265  68.743  1.00  0.00    -0.074 C  
HETATM    2  C   UNL     1      -6.144  11.909  68.676  1.00  0.00    -0.052 C  
HETATM    3  C   UNL     1      -5.814  11.115  69.946  1.00  0.00    -0.099 C  
HETATM    4  C   UNL     1      -7.656  12.176  68.608  1.00  0.00    -0.097 C  
ENDROOT
BRANCH   2   5
HETATM    5  C   UNL     1      -5.698  11.170  67.405  1.00  0.00    -0.052 C  
HETATM    6  O   UNL     1      -5.445  11.740  66.348  1.00  0.00    -0.294 OA 
BRANCH   5   7
HETATM    7  O   UNL     1      -5.710   9.814  67.544  1.00  0.00    -0.040 OA 
BRANCH   7   8
HETATM    8  C   UNL     1      -6.851   9.300  68.257  1.00  0.00    -0.064 C  
BRANCH   8   9
HETATM    9  O   UNL     1      -7.474   8.190  67.618  1.00  0.00    -0.091 OA 
HETATM   10  P   UNL     1      -7.952   6.997  68.618  1.00  0.00    -0.122 P  
HETATM   11  C   UNL     1      -9.208   7.753  69.677  1.00  0.00    -0.153 C  
HETATM   12  O   UNL     1      -6.826   6.321  69.332  1.00  0.00    -0.060 OA 
HETATM   13  O   UNL     1      -8.908   6.041  67.744  1.00  0.00    -0.109 OA 
BRANCH  13  14
HETATM   14  C   UNL     1      -8.429   5.121  66.805  1.00  0.00    -0.106 C  
BRANCH  14  15
HETATM   15  O   UNL     1      -8.978   5.436  65.503  1.00  0.00    -0.159 OA 
BRANCH  15  16
HETATM   16  C   UNL     1      -9.985   4.624  65.072  1.00  0.00    -0.020 C  
HETATM   17  O   UNL     1     -11.050   4.483  65.663  1.00  0.00    -0.121 OA 
BRANCH  16  18
HETATM   18  C   UNL     1      -9.630   3.894  63.759  1.00  0.00    -0.157 C  
HETATM   19  C   UNL     1      -8.759   4.812  62.877  1.00  0.00    -0.126 C  
HETATM   20  C   UNL     1     -10.905   3.546  62.981  1.00  0.00    -0.151 C  
HETATM   21  C   UNL     1      -8.830   2.614  64.046  1.00  0.00    -0.092 C  
ENDBRANCH  16  18
ENDBRANCH  15  16
ENDBRANCH  14  15
ENDBRANCH  13  14
BRANCH  11  22
HETATM   22  O   UNL     1     -10.194   8.242  68.764  1.00  0.00    -0.202 OA 
BRANCH  22  23
HETATM   23  C   UNL     1     -10.321   9.649  68.790  1.00  0.00    -0.213 C  
BRANCH  23  24
HETATM   24  C   UNL     1     -11.255  10.069  67.664  1.00  0.00    -0.024 C  
BRANCH  24  25
HETATM   25  N   UNL     1     -11.526  11.481  67.743  1.00  0.00    -0.406 NA 
HETATM   26  C   UNL     1     -11.378  12.360  66.713  1.00  0.00    -0.335 A  
HETATM   27  N   UNL     1     -11.143  12.080  65.421  1.00  0.00    -0.312 NA 
HETATM   28  H2  UNL     1     -10.531  16.068  67.681  1.00  0.00     0.000 HD 
HETATM   29  H1  UNL     1     -11.057  16.823  66.319  1.00  0.00     0.000 HD 
HETATM   30  C   UNL     1     -11.746  12.199  68.887  1.00  0.00    -0.327 A  
HETATM   31  N   UNL     1     -11.708  13.494  68.660  1.00  0.00    -0.332 NA 
HETATM   32  C   UNL     1     -11.451  13.608  67.304  1.00  0.00    -0.343 A  
HETATM   33  C   UNL     1     -11.233  14.712  66.468  1.00  0.00    -0.346 A  
HETATM   34  N   UNL     1     -11.216  16.020  66.927  1.00  0.00    -0.037 NA 
HETATM   35  N   UNL     1     -11.025  14.489  65.147  1.00  0.00    -0.355 NA 
HETATM   36  C   UNL     1     -10.993  13.212  64.706  1.00  0.00    -0.336 A  
ENDBRANCH  24  25
ENDBRANCH  23  24
ENDBRANCH  22  23
ENDBRANCH  11  22
ENDBRANCH   8   9
ENDBRANCH   7   8
ENDBRANCH   5   7
ENDBRANCH   2   5
TORSDOF 12
ENDMDL
MODEL      306
REMARK 921   NORMALIZED FREE ENERGY PREDICTED BY IDOCK:   -2.37 KCAL/MOL
REMARK 922        TOTAL FREE ENERGY PREDICTED BY IDOCK:   -5.63 KCAL/MOL
REMARK 923 INTER-LIGAND FREE ENERGY PREDICTED BY IDOCK:   -4.56 KCAL/MOL
REMARK 924 INTRA-LIGAND FREE ENERGY PREDICTED BY IDOCK:   -1.07 KCAL/MOL
REMARK 927      BINDING AFFINITY PREDICTED BY RF-SCORE:    0.00 PKD
ROOT
HETATM    1  C   UNL     1     -10.559  11.826  63.111  1.00  0.00    -0.341 C  
HETATM    2  C   UNL     1     -11.361  12.371  64.310  1.00  0.00    -0.420 C  
HETATM    3  C   UNL     1     -11.183  13.893  64.363  1.00  0.00    -0.341 C  
HETATM    4  C   UNL     1     -12.843  12.027  64.096  1.00  0.00    -0.283 C  
ENDROOT
BRANCH   2   5
HETATM    5  C   UNL     1     -10.858  11.689  65.592  1.00  0.00    -0.276 C  
HETATM    6  O   UNL     1     -11.575  11.469  66.563  1.00  0.00    -0.444 OA 
BRANCH   5   7
HETATM    7  O   UNL     1      -9.517  11.446  65.576  1.00  0.00    -0.223 OA 
BRANCH   7   8
HETATM    8  C   UNL     1      -9.146  10.133  66.036  1.00  0.00    -0.154 C  
BRANCH   8   9
HETATM    9  O   UNL     1      -8.168  10.143  67.073  1.00  0.00    -0.117 OA 
HETATM   10  P   UNL     1      -8.652   9.494  68.485  1.00  0.00    -0.121 P  
HETATM   11  C   UNL     1      -8.984   7.756  68.108  1.00  0.00    -0.127 C  
HETATM   12  O   UNL     1      -9.771  10.238  69.139  1.00  0.00    -0.195 OA 
HETATM   13  O   UNL     1      -7.319   9.305  69.367  1.00  0.00    -0.071 OA 
BRANCH  13  14
HETATM   14  C   UNL     1      -6.673  10.358  70.023  1.00  0.00    -0.145 C  
BRANCH  14  15
HETATM   15  O   UNL     1      -6.206  11.317  69.045  1.00  0.00    -0.049 OA 
BRANCH  15  16
HETATM   16  C   UNL     1      -5.883  12.550  69.531  1.00  0.00    -0.105 C  
HETATM   17  O   UNL     1      -5.421  12.745  70.649  1.00  0.00    -0.142 OA 
BRANCH  16  18
HETATM   18  C   UNL     1      -6.174  13.676  68.515  1.00  0.00    -0.091 C  
HETATM   19  C   UNL     1      -5.760  13.216  67.102  1.00  0.00     0.390 C  
HETATM   20  C   UNL     1      -5.367  14.932  68.867  1.00  0.00    -0.092 C  
HETATM   21  C   UNL     1      -7.672  14.011  68.486  1.00  0.00    -0.139 C  
ENDBRANCH  16  18
ENDBRANCH  15  16
ENDBRANCH  14  15
ENDBRANCH  13  14
BRANCH  11  22
HETATM   22  O   UNL     1      -7.750   7.265  67.580  1.00  0.00    -0.107 OA 
BRANCH  22  23
HETATM   23  C   UNL     1      -7.390   6.001  68.097  1.00  0.00    -0.085 C  
BRANCH  23  24
HETATM   24  C   UNL     1      -6.377   6.209  69.214  1.00  0.00    -0.041 C  
BRANCH  24  25
HETATM   25  N   UNL     1      -6.644   5.306  70.303  1.00  0.00    -0.034 NA 
HETATM   26  C   UNL     1      -7.711   5.397  71.145  1.00  0.00    -0.102 A  
HETATM   27  N   UNL     1      -8.785   6.195  71.027  1.00  0.00    -0.131 NA 
HETATM   28  H2  UNL     1      -7.204   3.998  74.777  1.00  0.00     0.000 HD 
HETATM   29  H1  UNL     1      -8.776   3.728  75.176  1.00  0.00     0.000 HD 
HETATM   30  C   UNL     1      -5.781   4.372  70.809  1.00  0.00    -0.013 A  
HETATM   31  N   UNL     1      -6.213   3.885  71.953  1.00  0.00    -0.013 NA 
HETATM   32  C   UNL     1      -7.410   4.540  72.187  1.00  0.00    -0.072 A  
HETATM   33  C   UNL     1      -8.315   4.512  73.257  1.00  0.00    -0.099 A  
HETATM   34  N   UNL     1      -8.118   3.748  74.397  1.00  0.00    -0.081 NA 
HETATM   35  N   UNL     1      -9.434   5.271  73.175  1.00  0.00    -0.142 NA 
HETATM   36  C   UNL     1      -9.605   6.054  72.086  1.00  0.00    -0.151 A  
ENDBRANCH  24  25
ENDBRANCH  23  24
ENDBRANCH  22  23
ENDBRANCH  11  22
ENDBRANCH   8   9
ENDBRANCH   7   8
ENDBRANCH   5   7
ENDBRANCH   2   5
TORSDOF 12
ENDMDL
MODEL      307
REMARK 921   NORMALIZED FREE ENERGY PREDICTED BY IDOCK:   -2.23 KCAL/MOL
REMARK 922        TOTAL FREE ENERGY PREDICTED BY IDOCK:   -5.39 KCAL/MOL
REMARK 923 INTER-LIGAND FREE ENERGY PREDICTED BY IDOCK:   -4.79 KCAL/MOL
REMARK 924 INTRA-LIGAND FREE ENERGY PREDICTED BY IDOCK:   -0.60 KCAL/MOL
REMARK 927      BINDING AFFINITY PREDICTED BY RF-SCORE:    0.00 PKD
ROOT
HETATM    1  C   UNL     1      -9.833  11.640  63.527  1.00  0.00    -0.391 C  
HETATM    2  C   UNL     1      -9.842  11.580  65.067  1.00  0.00    -0.294 C  
HETATM    3  C   UNL     1     -10.051  12.999  65.608  1.00  0.00    -0.276 C  
HETATM    4  C   UNL     1     -11.005  10.678  65.508  1.00  0.00     0.128 C  
ENDROOT
BRANCH   2   5
HETATM    5  C   UNL     1      -8.514  10.973  65.546  1.00  0.00    -0.069 C  
HETATM    6  O   UNL     1      -7.867  11.425  66.486  1.00  0.00    -0.153 OA 
BRANCH   5   7
HETATM    7  O   UNL     1      -8.082   9.948  64.759  1.00  0.00    -0.136 OA 
BRANCH   7   8
HETATM    8  C   UNL     1      -8.405   8.637  65.260  1.00  0.00    -0.168 C  
BRANCH   8   9
HETATM    9  O   UNL     1      -7.779   8.327  66.502  1.00  0.00    -0.090 OA 
HETATM   10  P   UNL     1      -8.780   8.257  67.783  1.00  0.00    -0.133 P  
HETATM   11  C   UNL     1      -9.906   6.889  67.419  1.00  0.00    -0.144 C  
HETATM   12  O   UNL     1      -9.433   9.561  68.110  1.00  0.00    -0.133 OA 
HETATM   13  O   UNL     1      -7.936   7.573  68.970  1.00  0.00    -0.117 OA 
BRANCH  13  14
HETATM   14  C   UNL     1      -6.963   8.249  69.713  1.00  0.00    -0.048 C  
BRANCH  14  15
HETATM   15  O   UNL     1      -6.813   7.609  71.003  1.00  0.00    -0.048 OA 
BRANCH  15  16
HETATM   16  C   UNL     1      -7.460   8.209  72.042  1.00  0.00    -0.097 C  
HETATM   17  O   UNL     1      -8.563   8.735  71.950  1.00  0.00    -0.286 OA 
BRANCH  16  18
HETATM   18  C   UNL     1      -6.640   8.162  73.350  1.00  0.00    -0.121 C  
HETATM   19  C   UNL     1      -5.818   6.857  73.397  1.00  0.00    -0.054 C  
HETATM   20  C   UNL     1      -7.575   8.185  74.565  1.00  0.00    -0.272 C  
HETATM   21  C   UNL     1      -5.661   9.342  73.424  1.00  0.00     0.046 C  
ENDBRANCH  16  18
ENDBRANCH  15  16
ENDBRANCH  14  15
ENDBRANCH  13  14
BRANCH  11  22
HETATM   22  O   UNL     1      -9.046   5.762  67.230  1.00  0.00    -0.113 OA 
BRANCH  22  23
HETATM   23  C   UNL     1      -9.560   4.574  67.793  1.00  0.00    -0.160 C  
BRANCH  23  24
HETATM   24  C   UNL     1      -8.773   4.261  69.059  1.00  0.00    -0.086 C  
BRANCH  24  25
HETATM   25  N   UNL     1      -9.361   4.932  70.188  1.00  0.00    -0.142 NA 
HETATM   26  C   UNL     1      -8.927   4.818  71.474  1.00  0.00    -0.134 A  
HETATM   27  N   UNL     1      -7.800   4.233  71.912  1.00  0.00    -0.082 NA 
HETATM   28  H2  UNL     1     -11.624   5.296  74.285  1.00  0.00     0.000 HD 
HETATM   29  H1  UNL     1     -10.634   5.701  75.533  1.00  0.00     0.000 HD 
HETATM   30  C   UNL     1     -10.558   5.595  70.201  1.00  0.00    -0.309 A  
HETATM   31  N   UNL     1     -10.942   5.878  71.427  1.00  0.00    -0.272 NA 
HETATM   32  C   UNL     1      -9.939   5.372  72.236  1.00  0.00    -0.177 A  
HETATM   33  C   UNL     1      -9.787   5.297  73.628  1.00  0.00    -0.161 A  
HETATM   34  N   UNL     1     -10.744   5.755  74.521  1.00  0.00    -0.111 NA 
HETATM   35  N   UNL     1      -8.652   4.748  74.125  1.00  0.00    -0.108 NA 
HETATM   36  C   UNL     1      -7.739   4.258  73.257  1.00  0.00    -0.082 A  
ENDBRANCH  24  25
ENDBRANCH  23  24
ENDBRANCH  22  23
ENDBRANCH  11  22
ENDBRANCH   8   9
ENDBRANCH   7   8
ENDBRANCH   5   7
ENDBRANCH   2   5
TORSDOF 12
ENDMDL
MODEL      308
REMARK 921   NORMALIZED FREE ENERGY PREDICTED BY IDOCK:   -2.21 KCAL/MOL
REMARK 922        TOTAL FREE ENERGY PREDICTED BY IDOCK:   -5.36 KCAL/MOL
REMARK 923 INTER-LIGAND FREE ENERGY PREDICTED BY IDOCK:   -5.51 KCAL/MOL
REMARK 924 INTRA-LIGAND FREE ENERGY PREDICTED BY IDOCK:    0.15 KCAL/MOL
REMARK 927      BINDING AFFINITY PREDICTED BY RF-SCORE:    0.00 PKD
ROOT
HETATM    1  C   UNL     1     -11.443  16.506  71.023  1.00  0.00    -0.079 C  
HETATM    2  C   UNL     1     -10.950  16.228  69.589  1.00  0.00    -0.346 C  
HETATM    3  C   UNL     1     -12.137  15.736  68.753  1.00  0.00    -0.087 C  
HETATM    4  C   UNL     1     -10.408  17.540  69.002  1.00  0.00    -0.303 C  
ENDROOT
BRANCH   2   5
HETATM    5  C   UNL     1      -9.820  15.188  69.648  1.00  0.00    -0.151 C  
HETATM    6  O   UNL     1      -8.650  15.451  69.386  1.00  0.00    -0.242 OA 
BRANCH   5   7
HETATM    7  O   UNL     1     -10.266  13.930  69.922  1.00  0.00     0.526 OA 
BRANCH   7   8
HETATM    8  C   UNL     1     -10.617  13.158  68.758  1.00  0.00    -0.201 C  
BRANCH   8   9
HETATM    9  O   UNL     1      -9.578  12.293  68.308  1.00  0.00    -0.211 OA 
HETATM   10  P   UNL     1      -9.789  10.719  68.662  1.00  0.00    -0.193 P  
HETATM   11  C   UNL     1     -11.284  10.236  67.765  1.00  0.00    -0.190 C  
HETATM   12  O   UNL     1      -9.791  10.424  70.127  1.00  0.00    -0.059 OA 
HETATM   13  O   UNL     1      -8.705   9.916  67.783  1.00  0.00    -0.128 OA 
BRANCH  13  14
HETATM   14  C   UNL     1      -7.346   9.852  68.107  1.00  0.00    -0.080 C  
BRANCH  14  15
HETATM   15  O   UNL     1      -6.890   8.482  67.992  1.00  0.00    -0.067 OA 
BRANCH  15  16
HETATM   16  C   UNL     1      -7.782   7.604  67.453  1.00  0.00    -0.117 C  
HETATM   17  O   UNL     1      -8.916   7.429  67.883  1.00  0.00    -0.132 OA 
BRANCH  16  18
HETATM   18  C   UNL     1      -7.198   6.843  66.242  1.00  0.00    -0.071 C  
HETATM   19  C   UNL     1      -5.951   6.050  66.684  1.00  0.00    -0.022 C  
HETATM   20  C   UNL     1      -6.777   7.830  65.146  1.00  0.00    -0.051 C  
HETATM   21  C   UNL     1      -8.220   5.845  65.679  1.00  0.00    -0.134 C  
ENDBRANCH  16  18
ENDBRANCH  15  16
ENDBRANCH  14  15
ENDBRANCH  13  14
BRANCH  11  22
HETATM   22  O   UNL     1     -10.993  10.541  66.399  1.00  0.00    -0.101 OA 
BRANCH  22  23
HETATM   23  C   UNL     1     -11.428  11.829  66.016  1.00  0.00    -0.215 C  
BRANCH  23  24
HETATM   24  C   UNL     1     -10.474  12.365  64.957  1.00  0.00    -0.294 C  
BRANCH  24  25
HETATM   25  N   UNL     1     -10.770  13.744  64.673  1.00  0.00    -0.408 NA 
HETATM   26  C   UNL     1     -10.059  14.806  65.145  1.00  0.00    -0.323 A  
HETATM   27  N   UNL     1      -8.879  14.784  65.787  1.00  0.00     0.441 NA 
HETATM   28  H2  UNL     1     -12.031  18.165  65.627  1.00  0.00     0.000 HD 
HETATM   29  H1  UNL     1     -10.772  19.220  65.569  1.00  0.00     0.000 HD 
HETATM   30  C   UNL     1     -11.914  14.223  64.093  1.00  0.00    -0.373 A  
HETATM   31  N   UNL     1     -11.999  15.532  64.200  1.00  0.00    -0.489 NA 
HETATM   32  C   UNL     1     -10.854  15.906  64.882  1.00  0.00    -0.400 A  
HETATM   33  C   UNL     1     -10.392  17.141  65.358  1.00  0.00    -0.018 A  
HETATM   34  N   UNL     1     -11.108  18.321  65.223  1.00  0.00    -0.269 NA 
HETATM   35  N   UNL     1      -9.190  17.183  65.983  1.00  0.00    -0.508 NA 
HETATM   36  C   UNL     1      -8.514  16.026  66.158  1.00  0.00    -0.212 A  
ENDBRANCH  24  25
ENDBRANCH  23  24
ENDBRANCH  22  23
ENDBRANCH  11  22
ENDBRANCH   8   9
ENDBRANCH   7   8
ENDBRANCH   5   7
ENDBRANCH   2   5
TORSDOF 12
ENDMDL
MODEL      309
REMARK 921   NORMALIZED FREE ENERGY PREDICTED BY IDOCK:   -2.17 KCAL/MOL
REMARK 922        TOTAL FREE ENERGY PREDICTED BY IDOCK:   -5.29 KCAL/MOL
REMARK 923 INTER-LIGAND FREE ENERGY PREDICTED BY IDOCK:   -4.39 KCAL/MOL
REMARK 924 INTRA-LIGAND FREE ENERGY PREDICTED BY IDOCK:   -0.90 KCAL/MOL
REMARK 927      BINDING AFFINITY PREDICTED BY RF-SCORE:    0.00 PKD
ROOT
HETATM    1  C   UNL     1     -11.419   6.777  70.461  1.00  0.00    -0.413 C  
HETATM    2  C   UNL     1     -11.434   7.754  71.652  1.00  0.00    -0.299 C  
HETATM    3  C   UNL     1     -11.023   9.143  71.148  1.00  0.00    -0.390 C  
HETATM    4  C   UNL     1     -12.863   7.807  72.216  1.00  0.00    -0.105 C  
ENDROOT
BRANCH   2   5
HETATM    5  C   UNL     1     -10.477   7.230  72.734  1.00  0.00    -0.260 C  
HETATM    6  O   UNL     1     -10.618   7.467  73.930  1.00  0.00    -0.307 OA 
BRANCH   5   7
HETATM    7  O   UNL     1      -9.405   6.564  72.220  1.00  0.00    -0.140 OA 
BRANCH   7   8
HETATM    8  C   UNL     1      -8.240   7.384  72.012  1.00  0.00    -0.102 C  
BRANCH   8   9
HETATM    9  O   UNL     1      -7.975   7.668  70.641  1.00  0.00    -0.096 OA 
HETATM   10  P   UNL     1      -6.496   7.231  70.119  1.00  0.00    -0.043 P  
HETATM   11  C   UNL     1      -6.455   5.431  70.288  1.00  0.00    -0.034 C  
HETATM   12  O   UNL     1      -5.379   7.968  70.784  1.00  0.00    -0.026 OA 
HETATM   13  O   UNL     1      -6.546   7.327  68.512  1.00  0.00    -0.042 OA 
BRANCH  13  14
HETATM   14  C   UNL     1      -6.485   8.535  67.810  1.00  0.00    -0.061 C  
BRANCH  14  15
HETATM   15  O   UNL     1      -7.203   8.399  66.560  1.00  0.00    -0.075 OA 
BRANCH  15  16
HETATM   16  C   UNL     1      -6.443   8.091  65.470  1.00  0.00    -0.045 C  
HETATM   17  O   UNL     1      -5.265   7.760  65.529  1.00  0.00    -0.028 OA 
BRANCH  16  18
HETATM   18  C   UNL     1      -7.234   8.215  64.150  1.00  0.00    -0.086 C  
HETATM   19  C   UNL     1      -7.571   6.808  63.615  1.00  0.00    -0.097 C  
HETATM   20  C   UNL     1      -6.393   8.943  63.093  1.00  0.00    -0.090 C  
HETATM   21  C   UNL     1      -8.554   8.967  64.372  1.00  0.00    -0.174 C  
ENDBRANCH  16  18
ENDBRANCH  15  16
ENDBRANCH  14  15
ENDBRANCH  13  14
BRANCH  11  22
HETATM   22  O   UNL     1      -7.561   4.976  69.503  1.00  0.00    -0.056 OA 
BRANCH  22  23
HETATM   23  C   UNL     1      -7.177   4.512  68.225  1.00  0.00    -0.064 C  
BRANCH  23  24
HETATM   24  C   UNL     1      -7.755   3.117  68.026  1.00  0.00    -0.059 C  
BRANCH  24  25
HETATM   25  N   UNL     1      -7.968   2.863  66.625  1.00  0.00    -0.076 NA 
HETATM   26  C   UNL     1      -8.979   3.394  65.882  1.00  0.00    -0.145 A  
HETATM   27  N   UNL     1      -9.836   4.366  66.237  1.00  0.00    -0.213 NA 
HETATM   28  H2  UNL     1     -10.222   1.262  62.831  1.00  0.00     0.000 HD 
HETATM   29  H1  UNL     1     -10.898   2.459  61.931  1.00  0.00     0.000 HD 
HETATM   30  C   UNL     1      -7.354   1.896  65.877  1.00  0.00    -0.061 A  
HETATM   31  N   UNL     1      -7.938   1.745  64.707  1.00  0.00    -0.069 NA 
HETATM   32  C   UNL     1      -8.976   2.661  64.711  1.00  0.00    -0.124 A  
HETATM   33  C   UNL     1      -9.995   2.944  63.791  1.00  0.00    -0.160 A  
HETATM   34  N   UNL     1     -10.157   2.253  62.600  1.00  0.00    -0.092 NA 
HETATM   35  N   UNL     1     -10.867   3.941  64.081  1.00  0.00    -0.249 NA 
HETATM   36  C   UNL     1     -10.741   4.584  65.264  1.00  0.00    -0.110 A  
ENDBRANCH  24  25
ENDBRANCH  23  24
ENDBRANCH  22  23
ENDBRANCH  11  22
ENDBRANCH   8   9
ENDBRANCH   7   8
ENDBRANCH   5   7
ENDBRANCH   2   5
TORSDOF 12
ENDMDL
MODEL      310
REMARK 921   NORMALIZED FREE ENERGY PREDICTED BY IDOCK:   -2.13 KCAL/MOL
REMARK 922        TOTAL FREE ENERGY PREDICTED BY IDOCK:   -5.22 KCAL/MOL
REMARK 923 INTER-LIGAND FREE ENERGY PREDICTED BY IDOCK:   -4.60 KCAL/MOL
REMARK 924 INTRA-LIGAND FREE ENERGY PREDICTED BY IDOCK:   -0.62 KCAL/MOL
REMARK 927      BINDING AFFINITY PREDICTED BY RF-SCORE:    0.00 PKD
ROOT
HETATM    1  C   UNL     1     -11.096  10.493  70.435  1.00  0.00    -0.321 C  
HETATM    2  C   UNL     1     -12.483  10.324  71.085  1.00  0.00    -0.495 C  
HETATM    3  C   UNL     1     -12.829  11.615  71.836  1.00  0.00    -0.354 C  
HETATM    4  C   UNL     1     -13.512  10.077  69.971  1.00  0.00     0.873 C  
ENDROOT
BRANCH   2   5
HETATM    5  C   UNL     1     -12.444   9.107  72.024  1.00  0.00    -0.382 C  
HETATM    6  O   UNL     1     -13.195   8.975  72.985  1.00  0.00    -0.306 OA 
BRANCH   5   7
HETATM    7  O   UNL     1     -11.428   8.245  71.738  1.00  0.00    -0.262 OA 
BRANCH   7   8
HETATM    8  C   UNL     1     -10.486   8.061  72.811  1.00  0.00    -0.345 C  
BRANCH   8   9
HETATM    9  O   UNL     1     -10.071   6.710  72.986  1.00  0.00    -0.170 OA 
HETATM   10  P   UNL     1     -11.019   5.598  72.267  1.00  0.00    -0.234 P  
HETATM   11  C   UNL     1     -10.889   5.951  70.497  1.00  0.00    -0.296 C  
HETATM   12  O   UNL     1     -12.408   5.544  72.814  1.00  0.00    -0.071 OA 
HETATM   13  O   UNL     1     -10.191   4.218  72.304  1.00  0.00    -0.181 OA 
BRANCH  13  14
HETATM   14  C   UNL     1     -10.061   3.428  73.451  1.00  0.00    -0.122 C  
BRANCH  14  15
HETATM   15  O   UNL     1      -8.758   3.650  74.041  1.00  0.00    -0.088 OA 
BRANCH  15  16
HETATM   16  C   UNL     1      -7.697   3.558  73.189  1.00  0.00    -0.066 C  
HETATM   17  O   UNL     1      -7.627   2.752  72.268  1.00  0.00    -0.050 OA 
BRANCH  16  18
HETATM   18  C   UNL     1      -6.587   4.577  73.522  1.00  0.00    -0.057 C  
HETATM   19  C   UNL     1      -5.504   3.898  74.386  1.00  0.00    -0.004 C  
HETATM   20  C   UNL     1      -7.166   5.755  74.316  1.00  0.00    -0.085 C  
HETATM   21  C   UNL     1      -5.917   5.093  72.240  1.00  0.00    -0.025 C  
ENDBRANCH  16  18
ENDBRANCH  15  16
ENDBRANCH  14  15
ENDBRANCH  13  14
BRANCH  11  22
HETATM   22  O   UNL     1      -9.489   5.861  70.219  1.00  0.00    -0.157 OA 
BRANCH  22  23
HETATM   23  C   UNL     1      -9.002   6.957  69.472  1.00  0.00    -0.143 C  
BRANCH  23  24
HETATM   24  C   UNL     1      -7.735   6.522  68.749  1.00  0.00    -0.109 C  
BRANCH  24  25
HETATM   25  N   UNL     1      -8.011   6.299  67.354  1.00  0.00    -0.108 NA 
HETATM   26  C   UNL     1      -8.454   5.125  66.826  1.00  0.00    -0.106 A  
HETATM   27  N   UNL     1      -8.886   4.038  67.486  1.00  0.00    -0.109 NA 
HETATM   28  H2  UNL     1      -7.451   4.386  63.104  1.00  0.00     0.000 HD 
HETATM   29  H1  UNL     1      -8.636   3.312  62.720  1.00  0.00     0.000 HD 
HETATM   30  C   UNL     1      -7.665   7.127  66.320  1.00  0.00    -0.100 A  
HETATM   31  N   UNL     1      -7.823   6.537  65.154  1.00  0.00    -0.105 NA 
HETATM   32  C   UNL     1      -8.291   5.271  65.461  1.00  0.00    -0.130 A  
HETATM   33  C   UNL     1      -8.589   4.151  64.671  1.00  0.00    -0.120 A  
HETATM   34  N   UNL     1      -8.419   4.127  63.295  1.00  0.00    -0.095 NA 
HETATM   35  N   UNL     1      -9.062   3.038  65.282  1.00  0.00    -0.146 NA 
HETATM   36  C   UNL     1      -9.183   3.044  66.628  1.00  0.00    -0.133 A  
ENDBRANCH  24  25
ENDBRANCH  23  24
ENDBRANCH  22  23
ENDBRANCH  11  22
ENDBRANCH   8   9
ENDBRANCH   7   8
ENDBRANCH   5   7
ENDBRANCH   2   5
TORSDOF 12
ENDMDL
MODEL      311
REMARK 921   NORMALIZED FREE ENERGY PREDICTED BY IDOCK:   -2.07 KCAL/MOL
REMARK 922        TOTAL FREE ENERGY PREDICTED BY IDOCK:   -5.12 KCAL/MOL
REMARK 923 INTER-LIGAND FREE ENERGY PREDICTED BY IDOCK:   -4.10 KCAL/MOL
REMARK 924 INTRA-LIGAND FREE ENERGY PREDICTED BY IDOCK:   -1.02 KCAL/MOL
REMARK 927      BINDING AFFINITY PREDICTED BY RF-SCORE:    0.00 PKD
ROOT
HETATM    1  C   UNL     1     -10.975  13.939  70.909  1.00  0.00     1.399 C  
HETATM    2  C   UNL     1     -12.241  13.140  70.543  1.00  0.00    -0.405 C  
HETATM    3  C   UNL     1     -12.794  12.491  71.818  1.00  0.00    -0.347 C  
HETATM    4  C   UNL     1     -13.277  14.117  69.965  1.00  0.00     0.563 C  
ENDROOT
BRANCH   2   5
HETATM    5  C   UNL     1     -11.875  12.094  69.479  1.00  0.00    -0.321 C  
HETATM    6  O   UNL     1     -12.361  12.081  68.352  1.00  0.00    -0.270 OA 
BRANCH   5   7
HETATM    7  O   UNL     1     -11.036  11.128  69.947  1.00  0.00    -0.213 OA 
BRANCH   7   8
HETATM    8  C   UNL     1     -10.011  10.730  69.017  1.00  0.00    -0.199 C  
BRANCH   8   9
HETATM    9  O   UNL     1      -9.299  11.823  68.444  1.00  0.00    -0.191 OA 
HETATM   10  P   UNL     1      -7.702  11.579  68.247  1.00  0.00    -0.136 P  
HETATM   11  C   UNL     1      -7.581  10.213  67.068  1.00  0.00    -0.092 C  
HETATM   12  O   UNL     1      -6.957  11.393  69.530  1.00  0.00    -0.117 OA 
HETATM   13  O   UNL     1      -7.184  12.772  67.298  1.00  0.00    -0.145 OA 
BRANCH  13  14
HETATM   14  C   UNL     1      -6.973  14.079  67.747  1.00  0.00    -0.177 C  
BRANCH  14  15
HETATM   15  O   UNL     1      -7.712  15.000  66.909  1.00  0.00    -0.152 OA 
BRANCH  15  16
HETATM   16  C   UNL     1      -7.437  16.322  67.094  1.00  0.00    -0.203 C  
HETATM   17  O   UNL     1      -6.304  16.789  67.114  1.00  0.00    -0.153 OA 
BRANCH  16  18
HETATM   18  C   UNL     1      -8.715  17.167  67.286  1.00  0.00    -0.213 C  
HETATM   19  C   UNL     1      -9.629  16.490  68.328  1.00  0.00    -0.223 C  
HETATM   20  C   UNL     1      -9.487  17.272  65.965  1.00  0.00    -0.143 C  
HETATM   21  C   UNL     1      -8.369  18.572  67.800  1.00  0.00    -0.273 C  
ENDBRANCH  16  18
ENDBRANCH  15  16
ENDBRANCH  14  15
ENDBRANCH  13  14
BRANCH  11  22
HETATM   22  O   UNL     1      -8.295  10.674  65.917  1.00  0.00    -0.153 OA 
BRANCH  22  23
HETATM   23  C   UNL     1      -9.322   9.792  65.515  1.00  0.00    -0.240 C  
BRANCH  23  24
HETATM   24  C   UNL     1      -8.829   8.363  65.697  1.00  0.00    -0.156 C  
BRANCH  24  25
HETATM   25  N   UNL     1      -9.503   7.743  66.808  1.00  0.00    -0.184 NA 
HETATM   26  C   UNL     1      -8.883   7.226  67.905  1.00  0.00    -0.128 A  
HETATM   27  N   UNL     1      -7.591   7.349  68.252  1.00  0.00    -0.112 NA 
HETATM   28  H2  UNL     1     -10.706   4.261  69.718  1.00  0.00     0.000 HD 
HETATM   29  H1  UNL     1     -10.015   4.397  71.204  1.00  0.00     0.000 HD 
HETATM   30  C   UNL     1     -10.818   7.368  66.847  1.00  0.00    -0.153 A  
HETATM   31  N   UNL     1     -11.073   6.604  67.888  1.00  0.00    -0.254 NA 
HETATM   32  C   UNL     1      -9.859   6.486  68.544  1.00  0.00    -0.138 A  
HETATM   33  C   UNL     1      -9.457   5.759  69.673  1.00  0.00    -0.140 A  
HETATM   34  N   UNL     1     -10.308   4.926  70.382  1.00  0.00    -0.223 NA 
HETATM   35  N   UNL     1      -8.172   5.873  70.090  1.00  0.00    -0.115 NA 
HETATM   36  C   UNL     1      -7.328   6.647  69.371  1.00  0.00    -0.092 A  
ENDBRANCH  24  25
ENDBRANCH  23  24
ENDBRANCH  22  23
ENDBRANCH  11  22
ENDBRANCH   8   9
ENDBRANCH   7   8
ENDBRANCH   5   7
ENDBRANCH   2   5
TORSDOF 12
ENDMDL
MODEL      312
REMARK 921   NORMALIZED FREE ENERGY PREDICTED BY IDOCK:   -1.91 KCAL/MOL
REMARK 922        TOTAL FREE ENERGY PREDICTED BY IDOCK:   -4.85 KCAL/MOL
REMARK 923 INTER-LIGAND FREE ENERGY PREDICTED BY IDOCK:   -2.87 KCAL/MOL
REMARK 924 INTRA-LIGAND FREE ENERGY PREDICTED BY IDOCK:   -1.98 KCAL/MOL
REMARK 927      BINDING AFFINITY PREDICTED BY RF-SCORE:    0.00 PKD
ROOT
HETATM    1  C   UNL     1     -11.286  13.514  71.150  1.00  0.00     1.890 C  
HETATM    2  C   UNL     1     -12.550  12.783  70.656  1.00  0.00    -0.248 C  
HETATM    3  C   UNL     1     -13.409  12.420  71.873  1.00  0.00    -0.450 C  
HETATM    4  C   UNL     1     -13.329  13.734  69.734  1.00  0.00     1.506 C  
ENDROOT
BRANCH   2   5
HETATM    5  C   UNL     1     -12.123  11.537  69.863  1.00  0.00    -0.316 C  
HETATM    6  O   UNL     1     -12.602  11.235  68.774  1.00  0.00    -0.312 OA 
BRANCH   5   7
HETATM    7  O   UNL     1     -11.234  10.754  70.538  1.00  0.00    -0.282 OA 
BRANCH   7   8
HETATM    8  C   UNL     1     -10.031  10.455  69.805  1.00  0.00    -0.124 C  
BRANCH   8   9
HETATM    9  O   UNL     1      -9.661  11.466  68.872  1.00  0.00    -0.170 OA 
HETATM   10  P   UNL     1      -8.077  11.516  68.500  1.00  0.00    -0.100 P  
HETATM   11  C   UNL     1      -7.736   9.929  67.701  1.00  0.00    -0.091 C  
HETATM   12  O   UNL     1      -7.196  11.858  69.658  1.00  0.00     0.102 OA 
HETATM   13  O   UNL     1      -7.952  12.473  67.212  1.00  0.00    -0.171 OA 
BRANCH  13  14
HETATM   14  C   UNL     1      -8.025  13.868  67.278  1.00  0.00    -0.129 C  
BRANCH  14  15
HETATM   15  O   UNL     1      -8.999  14.344  66.319  1.00  0.00    -0.161 OA 
BRANCH  15  16
HETATM   16  C   UNL     1     -10.296  14.339  66.739  1.00  0.00    -0.274 C  
HETATM   17  O   UNL     1     -10.664  14.762  67.829  1.00  0.00    -0.260 OA 
BRANCH  16  18
HETATM   18  C   UNL     1     -11.251  13.732  65.689  1.00  0.00    -0.306 C  
HETATM   19  C   UNL     1     -11.037  14.431  64.331  1.00  0.00    -0.203 C  
HETATM   20  C   UNL     1     -12.711  13.941  66.113  1.00  0.00    -0.336 C  
HETATM   21  C   UNL     1     -10.974  12.233  65.500  1.00  0.00    -0.337 C  
ENDBRANCH  16  18
ENDBRANCH  15  16
ENDBRANCH  14  15
ENDBRANCH  13  14
BRANCH  11  22
HETATM   22  O   UNL     1      -8.642   9.887  66.595  1.00  0.00    -0.124 OA 
BRANCH  22  23
HETATM   23  C   UNL     1      -9.637   8.895  66.733  1.00  0.00    -0.202 C  
BRANCH  23  24
HETATM   24  C   UNL     1      -8.975   7.614  67.224  1.00  0.00    -0.127 C  
BRANCH  24  25
HETATM   25  N   UNL     1      -9.732   7.049  68.310  1.00  0.00    -0.134 NA 
HETATM   26  C   UNL     1      -9.248   6.828  69.564  1.00  0.00    -0.147 A  
HETATM   27  N   UNL     1      -8.079   7.245  70.079  1.00  0.00    -0.127 NA 
HETATM   28  H2  UNL     1     -10.866   3.872  71.575  1.00  0.00     0.000 HD 
HETATM   29  H1  UNL     1     -10.491   4.355  73.101  1.00  0.00     0.000 HD 
HETATM   30  C   UNL     1     -10.953   6.440  68.213  1.00  0.00    -0.312 A  
HETATM   31  N   UNL     1     -11.267   5.804  69.322  1.00  0.00    -0.199 NA 
HETATM   32  C   UNL     1     -10.192   6.018  70.167  1.00  0.00    -0.208 A  
HETATM   33  C   UNL     1      -9.890   5.556  71.456  1.00  0.00    -0.171 A  
HETATM   34  N   UNL     1     -10.710   4.691  72.163  1.00  0.00    -0.103 NA 
HETATM   35  N   UNL     1      -8.740   5.974  72.038  1.00  0.00    -0.136 NA 
HETATM   36  C   UNL     1      -7.915   6.780  71.332  1.00  0.00    -0.109 A  
ENDBRANCH  24  25
ENDBRANCH  23  24
ENDBRANCH  22  23
ENDBRANCH  11  22
ENDBRANCH   8   9
ENDBRANCH   7   8
ENDBRANCH   5   7
ENDBRANCH   2   5
TORSDOF 12
ENDMDL
MODEL      313
REMARK 921   NORMALIZED FREE ENERGY PREDICTED BY IDOCK:   -1.68 KCAL/MOL
REMARK 922        TOTAL FREE ENERGY PREDICTED BY IDOCK:   -4.46 KCAL/MOL
REMARK 923 INTER-LIGAND FREE ENERGY PREDICTED BY IDOCK:   -6.75 KCAL/MOL
REMARK 924 INTRA-LIGAND FREE ENERGY PREDICTED BY IDOCK:    2.29 KCAL/MOL
REMARK 927      BINDING AFFINITY PREDICTED BY RF-SCORE:    0.00 PKD
ROOT
HETATM    1  C   UNL     1      -9.922  19.654  68.382  1.00  0.00    -0.543 C  
HETATM    2  C   UNL     1      -9.839  18.943  67.018  1.00  0.00    -0.368 C  
HETATM    3  C   UNL     1     -10.668  19.737  66.002  1.00  0.00    -0.493 C  
HETATM    4  C   UNL     1      -8.366  18.912  66.578  1.00  0.00    -0.310 C  
ENDROOT
BRANCH   2   5
HETATM    5  C   UNL     1     -10.354  17.503  67.178  1.00  0.00    -0.330 C  
HETATM    6  O   UNL     1     -10.795  16.838  66.246  1.00  0.00    -0.161 OA 
BRANCH   5   7
HETATM    7  O   UNL     1     -10.363  17.082  68.474  1.00  0.00    -0.313 OA 
BRANCH   7   8
HETATM    8  C   UNL     1     -11.603  16.482  68.895  1.00  0.00    -0.037 C  
BRANCH   8   9
HETATM    9  O   UNL     1     -11.835  15.192  68.337  1.00  0.00    -0.328 OA 
HETATM   10  P   UNL     1     -10.785  14.039  68.803  1.00  0.00    -0.231 P  
HETATM   11  C   UNL     1     -11.032  13.879  70.588  1.00  0.00     0.993 C  
HETATM   12  O   UNL     1      -9.378  14.291  68.366  1.00  0.00    -0.199 OA 
HETATM   13  O   UNL     1     -11.428  12.638  68.339  1.00  0.00    -0.263 OA 
BRANCH  13  14
HETATM   14  C   UNL     1     -11.409  12.181  67.017  1.00  0.00    -0.337 C  
BRANCH  14  15
HETATM   15  O   UNL     1     -11.719  13.279  66.126  1.00  0.00    -0.340 OA 
BRANCH  15  16
HETATM   16  C   UNL     1     -11.192  13.192  64.871  1.00  0.00    -0.310 C  
HETATM   17  O   UNL     1     -11.444  13.980  63.967  1.00  0.00    -0.267 OA 
BRANCH  16  18
HETATM   18  C   UNL     1     -10.249  11.979  64.713  1.00  0.00    -0.311 C  
HETATM   19  C   UNL     1     -10.127  11.611  63.220  1.00  0.00    -0.454 C  
HETATM   20  C   UNL     1     -10.812  10.766  65.464  1.00  0.00    -0.061 C  
HETATM   21  C   UNL     1      -8.843  12.309  65.237  1.00  0.00     0.752 C  
ENDBRANCH  16  18
ENDBRANCH  15  16
ENDBRANCH  14  15
ENDBRANCH  13  14
BRANCH  11  22
HETATM   22  O   UNL     1     -12.420  13.562  70.727  1.00  0.00    -0.351 OA 
BRANCH  22  23
HETATM   23  C   UNL     1     -12.773  13.195  72.044  1.00  0.00    -0.083 C  
BRANCH  23  24
HETATM   24  C   UNL     1     -13.587  11.910  71.984  1.00  0.00    -0.090 C  
BRANCH  24  25
HETATM   25  N   UNL     1     -12.770  10.826  71.505  1.00  0.00    -0.421 NA 
HETATM   26  C   UNL     1     -13.160   9.522  71.452  1.00  0.00    -0.370 A  
HETATM   27  N   UNL     1     -14.392   9.024  71.648  1.00  0.00    -0.227 NA 
HETATM   28  H2  UNL     1     -10.323   6.829  71.775  1.00  0.00     0.000 HD 
HETATM   29  H1  UNL     1     -11.082   5.560  71.056  1.00  0.00     0.000 HD 
HETATM   30  C   UNL     1     -11.427  10.879  71.247  1.00  0.00     0.640 A  
HETATM   31  N   UNL     1     -10.920   9.678  71.071  1.00  0.00    -0.341 NA 
HETATM   32  C   UNL     1     -11.993   8.816  71.224  1.00  0.00    -0.301 A  
HETATM   33  C   UNL     1     -12.097   7.418  71.218  1.00  0.00    -0.328 A  
HETATM   34  N   UNL     1     -11.006   6.577  71.061  1.00  0.00    -0.252 NA 
HETATM   35  N   UNL     1     -13.323   6.862  71.376  1.00  0.00    -0.260 NA 
HETATM   36  C   UNL     1     -14.381   7.679  71.578  1.00  0.00    -0.452 A  
ENDBRANCH  24  25
ENDBRANCH  23  24
ENDBRANCH  22  23
ENDBRANCH  11  22
ENDBRANCH   8   9
ENDBRANCH   7   8
ENDBRANCH   5   7
ENDBRANCH   2   5
TORSDOF 12
ENDMDL
MODEL      314
REMARK 921   NORMALIZED FREE ENERGY PREDICTED BY IDOCK:   -1.66 KCAL/MOL
REMARK 922        TOTAL FREE ENERGY PREDICTED BY IDOCK:   -4.43 KCAL/MOL
REMARK 923 INTER-LIGAND FREE ENERGY PREDICTED BY IDOCK:   -3.97 KCAL/MOL
REMARK 924 INTRA-LIGAND FREE ENERGY PREDICTED BY IDOCK:   -0.46 KCAL/MOL
REMARK 927      BINDING AFFINITY PREDICTED BY RF-SCORE:    0.00 PKD
ROOT
HETATM    1  C   UNL     1      -7.959   3.565  72.397  1.00  0.00    -0.068 C  
HETATM    2  C   UNL     1      -8.905   3.231  71.228  1.00  0.00    -0.140 C  
HETATM    3  C   UNL     1      -8.327   2.038  70.458  1.00  0.00    -0.072 C  
HETATM    4  C   UNL     1     -10.279   2.860  71.809  1.00  0.00     0.010 C  
ENDROOT
BRANCH   2   5
HETATM    5  C   UNL     1      -9.047   4.475  70.336  1.00  0.00    -0.111 C  
HETATM    6  O   UNL     1      -9.121   4.421  69.112  1.00  0.00    -0.106 OA 
BRANCH   5   7
HETATM    7  O   UNL     1      -8.982   5.643  71.035  1.00  0.00    -0.138 OA 
BRANCH   7   8
HETATM    8  C   UNL     1      -7.962   6.551  70.578  1.00  0.00    -0.112 C  
BRANCH   8   9
HETATM    9  O   UNL     1      -8.038   6.848  69.187  1.00  0.00    -0.117 OA 
HETATM   10  P   UNL     1      -8.828   8.222  68.817  1.00  0.00    -0.136 P  
HETATM   11  C   UNL     1      -7.846   9.541  69.570  1.00  0.00    -0.103 C  
HETATM   12  O   UNL     1     -10.276   8.204  69.185  1.00  0.00    -0.205 OA 
HETATM   13  O   UNL     1      -8.498   8.521  67.270  1.00  0.00    -0.121 OA 
BRANCH  13  14
HETATM   14  C   UNL     1      -9.099   7.839  66.207  1.00  0.00    -0.178 C  
BRANCH  14  15
HETATM   15  O   UNL     1      -8.918   6.414  66.388  1.00  0.00    -0.144 OA 
BRANCH  15  16
HETATM   16  C   UNL     1      -7.786   5.886  65.843  1.00  0.00    -0.095 C  
HETATM   17  O   UNL     1      -6.704   6.461  65.820  1.00  0.00    -0.046 OA 
BRANCH  16  18
HETATM   18  C   UNL     1      -8.022   4.482  65.246  1.00  0.00    -0.098 C  
HETATM   19  C   UNL     1      -9.535   4.245  65.066  1.00  0.00    -0.171 C  
HETATM   20  C   UNL     1      -7.475   3.403  66.189  1.00  0.00    -0.077 C  
HETATM   21  C   UNL     1      -7.354   4.355  63.868  1.00  0.00    -0.055 C  
ENDBRANCH  16  18
ENDBRANCH  15  16
ENDBRANCH  14  15
ENDBRANCH  13  14
BRANCH  11  22
HETATM   22  O   UNL     1      -6.545   9.387  68.995  1.00  0.00    -0.046 OA 
BRANCH  22  23
HETATM   23  C   UNL     1      -6.131  10.516  68.254  1.00  0.00    -0.047 C  
BRANCH  23  24
HETATM   24  C   UNL     1      -6.394  11.762  69.088  1.00  0.00    -0.086 C  
BRANCH  24  25
HETATM   25  N   UNL     1      -7.294  12.645  68.393  1.00  0.00    -0.111 NA 
HETATM   26  C   UNL     1      -7.091  13.980  68.212  1.00  0.00    -0.110 A  
HETATM   27  N   UNL     1      -5.975  14.683  68.468  1.00  0.00    -0.087 NA 
HETATM   28  H2  UNL     1     -10.301  16.216  67.898  1.00  0.00     0.000 HD 
HETATM   29  H1  UNL     1      -9.650  17.499  67.102  1.00  0.00     0.000 HD 
HETATM   30  C   UNL     1      -8.575  12.354  68.009  1.00  0.00    -0.180 A  
HETATM   31  N   UNL     1      -9.224  13.434  67.629  1.00  0.00    -0.202 NA 
HETATM   32  C   UNL     1      -8.311  14.464  67.778  1.00  0.00    -0.169 A  
HETATM   33  C   UNL     1      -8.407  15.852  67.604  1.00  0.00    -0.152 A  
HETATM   34  N   UNL     1      -9.580  16.490  67.230  1.00  0.00    -0.239 NA 
HETATM   35  N   UNL     1      -7.301  16.607  67.813  1.00  0.00    -0.144 NA 
HETATM   36  C   UNL     1      -6.169  15.993  68.224  1.00  0.00    -0.113 A  
ENDBRANCH  24  25
ENDBRANCH  23  24
ENDBRANCH  22  23
ENDBRANCH  11  22
ENDBRANCH   8   9
ENDBRANCH   7   8
ENDBRANCH   5   7
ENDBRANCH   2   5
TORSDOF 12
ENDMDL
MODEL      315
REMARK 921   NORMALIZED FREE ENERGY PREDICTED BY IDOCK:   -1.61 KCAL/MOL
REMARK 922        TOTAL FREE ENERGY PREDICTED BY IDOCK:   -4.33 KCAL/MOL
REMARK 923 INTER-LIGAND FREE ENERGY PREDICTED BY IDOCK:   -5.83 KCAL/MOL
REMARK 924 INTRA-LIGAND FREE ENERGY PREDICTED BY IDOCK:    1.50 KCAL/MOL
REMARK 927      BINDING AFFINITY PREDICTED BY RF-SCORE:    0.00 PKD
ROOT
HETATM    1  C   UNL     1      -9.184  19.482  68.267  1.00  0.00    -0.412 C  
HETATM    2  C   UNL     1      -9.736  19.225  66.852  1.00  0.00    -0.406 C  
HETATM    3  C   UNL     1     -10.995  20.079  66.658  1.00  0.00    -0.053 C  
HETATM    4  C   UNL     1      -8.664  19.640  65.832  1.00  0.00    -0.135 C  
ENDROOT
BRANCH   2   5
HETATM    5  C   UNL     1     -10.031  17.724  66.701  1.00  0.00    -0.338 C  
HETATM    6  O   UNL     1     -10.227  17.182  65.618  1.00  0.00    -0.564 OA 
BRANCH   5   7
HETATM    7  O   UNL     1     -10.152  17.082  67.897  1.00  0.00    -0.282 OA 
BRANCH   7   8
HETATM    8  C   UNL     1     -11.097  15.996  67.895  1.00  0.00    -0.307 C  
BRANCH   8   9
HETATM    9  O   UNL     1     -10.652  14.849  67.176  1.00  0.00    -0.275 OA 
HETATM   10  P   UNL     1      -9.408  14.048  67.856  1.00  0.00    -0.222 P  
HETATM   11  C   UNL     1     -10.050  13.446  69.436  1.00  0.00     0.573 C  
HETATM   12  O   UNL     1      -8.146  14.845  67.932  1.00  0.00    -0.127 OA 
HETATM   13  O   UNL     1      -9.308  12.642  67.078  1.00  0.00    -0.205 OA 
BRANCH  13  14
HETATM   14  C   UNL     1      -8.755  12.504  65.801  1.00  0.00     0.657 C  
BRANCH  14  15
HETATM   15  O   UNL     1      -9.253  13.561  64.946  1.00  0.00     0.717 OA 
BRANCH  15  16
HETATM   16  C   UNL     1     -10.512  13.384  64.456  1.00  0.00    -0.413 C  
HETATM   17  O   UNL     1     -11.384  14.245  64.481  1.00  0.00    -0.369 OA 
BRANCH  16  18
HETATM   18  C   UNL     1     -10.722  11.969  63.872  1.00  0.00    -0.450 C  
HETATM   19  C   UNL     1     -11.977  11.961  62.976  1.00  0.00    -0.082 C  
HETATM   20  C   UNL     1     -10.931  10.953  65.002  1.00  0.00    -0.035 C  
HETATM   21  C   UNL     1      -9.521  11.551  63.011  1.00  0.00    -0.346 C  
ENDBRANCH  16  18
ENDBRANCH  15  16
ENDBRANCH  14  15
ENDBRANCH  13  14
BRANCH  11  22
HETATM   22  O   UNL     1     -11.189  12.658  69.079  1.00  0.00    -0.256 OA 
BRANCH  22  23
HETATM   23  C   UNL     1     -11.761  11.983  70.181  1.00  0.00    -0.233 C  
BRANCH  23  24
HETATM   24  C   UNL     1     -12.030  10.541  69.775  1.00  0.00    -0.238 C  
BRANCH  24  25
HETATM   25  N   UNL     1     -10.831   9.755  69.906  1.00  0.00    -0.255 NA 
HETATM   26  C   UNL     1     -10.768   8.518  70.474  1.00  0.00    -0.221 A  
HETATM   27  N   UNL     1     -11.792   7.731  70.842  1.00  0.00    -0.273 NA 
HETATM   28  H2  UNL     1      -7.362   7.530  72.154  1.00  0.00     0.000 HD 
HETATM   29  H1  UNL     1      -7.511   5.894  72.109  1.00  0.00     0.000 HD 
HETATM   30  C   UNL     1      -9.551  10.195  69.702  1.00  0.00    -0.210 A  
HETATM   31  N   UNL     1      -8.665   9.328  70.144  1.00  0.00    -0.183 NA 
HETATM   32  C   UNL     1      -9.418   8.284  70.655  1.00  0.00    -0.164 A  
HETATM   33  C   UNL     1      -9.071   7.099  71.320  1.00  0.00    -0.151 A  
HETATM   34  N   UNL     1      -7.763   6.756  71.626  1.00  0.00    -0.095 NA 
HETATM   35  N   UNL     1     -10.063   6.249  71.683  1.00  0.00    -0.187 NA 
HETATM   36  C   UNL     1     -11.342   6.605  71.428  1.00  0.00    -0.289 A  
ENDBRANCH  24  25
ENDBRANCH  23  24
ENDBRANCH  22  23
ENDBRANCH  11  22
ENDBRANCH   8   9
ENDBRANCH   7   8
ENDBRANCH   5   7
ENDBRANCH   2   5
TORSDOF 12
ENDMDL
MODEL      316
REMARK 921   NORMALIZED FREE ENERGY PREDICTED BY IDOCK:   -1.53 KCAL/MOL
REMARK 922        TOTAL FREE ENERGY PREDICTED BY IDOCK:   -4.21 KCAL/MOL
REMARK 923 INTER-LIGAND FREE ENERGY PREDICTED BY IDOCK:   -2.97 KCAL/MOL
REMARK 924 INTRA-LIGAND FREE ENERGY PREDICTED BY IDOCK:   -1.24 KCAL/MOL
REMARK 927      BINDING AFFINITY PREDICTED BY RF-SCORE:    0.00 PKD
ROOT
HETATM    1  C   UNL     1     -11.272  13.490  71.231  1.00  0.00     2.172 C  
HETATM    2  C   UNL     1     -12.623  12.848  70.859  1.00  0.00    -0.355 C  
HETATM    3  C   UNL     1     -13.522  12.851  72.101  1.00  0.00    -0.619 C  
HETATM    4  C   UNL     1     -13.267  13.691  69.747  1.00  0.00     1.224 C  
ENDROOT
BRANCH   2   5
HETATM    5  C   UNL     1     -12.367  11.425  70.339  1.00  0.00    -0.319 C  
HETATM    6  O   UNL     1     -12.814  11.007  69.275  1.00  0.00    -0.173 OA 
BRANCH   5   7
HETATM    7  O   UNL     1     -11.681  10.648  71.224  1.00  0.00    -0.261 OA 
BRANCH   7   8
HETATM    8  C   UNL     1     -10.555   9.953  70.655  1.00  0.00    -0.271 C  
BRANCH   8   9
HETATM    9  O   UNL     1      -9.882  10.688  69.637  1.00  0.00    -0.158 OA 
HETATM   10  P   UNL     1      -8.344  10.231  69.358  1.00  0.00    -0.099 P  
HETATM   11  C   UNL     1      -8.465   8.526  68.768  1.00  0.00    -0.123 C  
HETATM   12  O   UNL     1      -7.430  10.450  70.520  1.00  0.00    -0.188 OA 
HETATM   13  O   UNL     1      -7.913  10.941  67.979  1.00  0.00    -0.104 OA 
BRANCH  13  14
HETATM   14  C   UNL     1      -7.575  12.294  67.880  1.00  0.00    -0.127 C  
BRANCH  14  15
HETATM   15  O   UNL     1      -8.228  12.868  66.723  1.00  0.00    -0.063 OA 
BRANCH  15  16
HETATM   16  C   UNL     1      -9.521  13.261  66.905  1.00  0.00    -0.249 C  
HETATM   17  O   UNL     1      -9.910  13.907  67.871  1.00  0.00    -0.216 OA 
BRANCH  16  18
HETATM   18  C   UNL     1     -10.444  12.790  65.761  1.00  0.00    -0.294 C  
HETATM   19  C   UNL     1     -10.777  13.983  64.841  1.00  0.00    -0.432 C  
HETATM   20  C   UNL     1     -11.758  12.240  66.329  1.00  0.00    -0.431 C  
HETATM   21  C   UNL     1      -9.754  11.713  64.910  1.00  0.00    -0.232 C  
ENDBRANCH  16  18
ENDBRANCH  15  16
ENDBRANCH  14  15
ENDBRANCH  13  14
BRANCH  11  22
HETATM   22  O   UNL     1      -9.316   8.607  67.622  1.00  0.00    -0.136 OA 
BRANCH  22  23
HETATM   23  C   UNL     1     -10.646   8.215  67.892  1.00  0.00    -0.147 C  
BRANCH  23  24
HETATM   24  C   UNL     1     -10.931   6.924  67.137  1.00  0.00    -0.357 C  
BRANCH  24  25
HETATM   25  N   UNL     1     -10.272   5.817  67.779  1.00  0.00    -0.173 NA 
HETATM   26  C   UNL     1      -9.338   5.019  67.190  1.00  0.00    -0.125 A  
HETATM   27  N   UNL     1      -8.727   5.204  66.008  1.00  0.00    -0.126 NA 
HETATM   28  H2  UNL     1      -9.107   1.327  68.500  1.00  0.00     0.000 HD 
HETATM   29  H1  UNL     1      -7.570   0.978  68.034  1.00  0.00     0.000 HD 
HETATM   30  C   UNL     1     -10.626   5.248  68.972  1.00  0.00    -0.079 A  
HETATM   31  N   UNL     1     -10.002   4.106  69.168  1.00  0.00    -0.039 NA 
HETATM   32  C   UNL     1      -9.211   3.939  68.043  1.00  0.00    -0.163 A  
HETATM   33  C   UNL     1      -8.366   2.903  67.621  1.00  0.00    -0.082 A  
HETATM   34  N   UNL     1      -8.185   1.731  68.341  1.00  0.00    -0.056 NA 
HETATM   35  N   UNL     1      -7.697   3.052  66.452  1.00  0.00    -0.076 NA 
HETATM   36  C   UNL     1      -7.910   4.172  65.726  1.00  0.00    -0.090 A  
ENDBRANCH  24  25
ENDBRANCH  23  24
ENDBRANCH  22  23
ENDBRANCH  11  22
ENDBRANCH   8   9
ENDBRANCH   7   8
ENDBRANCH   5   7
ENDBRANCH   2   5
TORSDOF 12
ENDMDL
MODEL      317
REMARK 921   NORMALIZED FREE ENERGY PREDICTED BY IDOCK:   -1.36 KCAL/MOL
REMARK 922        TOTAL FREE ENERGY PREDICTED BY IDOCK:   -3.91 KCAL/MOL
REMARK 923 INTER-LIGAND FREE ENERGY PREDICTED BY IDOCK:   -4.47 KCAL/MOL
REMARK 924 INTRA-LIGAND FREE ENERGY PREDICTED BY IDOCK:    0.56 KCAL/MOL
REMARK 927      BINDING AFFINITY PREDICTED BY RF-SCORE:    0.00 PKD
ROOT
HETATM    1  C   UNL     1      -9.875   2.166  71.913  1.00  0.00    -0.221 C  
HETATM    2  C   UNL     1      -9.863   3.707  71.877  1.00  0.00    -0.241 C  
HETATM    3  C   UNL     1     -10.755   4.227  73.010  1.00  0.00    -0.272 C  
HETATM    4  C   UNL     1      -8.418   4.184  72.090  1.00  0.00    -0.110 C  
ENDROOT
BRANCH   2   5
HETATM    5  C   UNL     1     -10.357   4.173  70.498  1.00  0.00     0.369 C  
HETATM    6  O   UNL     1     -10.043   3.620  69.448  1.00  0.00     0.170 OA 
BRANCH   5   7
HETATM    7  O   UNL     1     -11.094   5.318  70.554  1.00  0.00    -0.059 OA 
BRANCH   7   8
HETATM    8  C   UNL     1     -10.311   6.526  70.607  1.00  0.00    -0.201 C  
BRANCH   8   9
HETATM    9  O   UNL     1     -10.662   7.480  69.609  1.00  0.00    -0.238 OA 
HETATM   10  P   UNL     1     -10.126   8.993  69.882  1.00  0.00    -0.226 P  
HETATM   11  C   UNL     1      -8.322   8.860  69.855  1.00  0.00    -0.128 C  
HETATM   12  O   UNL     1     -10.709   9.628  71.102  1.00  0.00    -0.329 OA 
HETATM   13  O   UNL     1     -10.335   9.794  68.501  1.00  0.00    -0.186 OA 
BRANCH  13  14
HETATM   14  C   UNL     1     -11.577  10.266  68.064  1.00  0.00     0.189 C  
BRANCH  14  15
HETATM   15  O   UNL     1     -11.490  11.691  67.824  1.00  0.00    -0.284 OA 
BRANCH  15  16
HETATM   16  C   UNL     1     -11.441  12.478  68.936  1.00  0.00    -0.307 C  
HETATM   17  O   UNL     1     -11.771  12.103  70.055  1.00  0.00    -0.308 OA 
BRANCH  16  18
HETATM   18  C   UNL     1     -10.933  13.903  68.625  1.00  0.00    -0.281 C  
HETATM   19  C   UNL     1     -10.962  14.140  67.101  1.00  0.00    -0.304 C  
HETATM   20  C   UNL     1      -9.488  14.070  69.110  1.00  0.00     0.223 C  
HETATM   21  C   UNL     1     -11.830  14.959  69.286  1.00  0.00    -0.350 C  
ENDBRANCH  16  18
ENDBRANCH  15  16
ENDBRANCH  14  15
ENDBRANCH  13  14
BRANCH  11  22
HETATM   22  O   UNL     1      -8.026   8.309  68.569  1.00  0.00    -0.118 OA 
BRANCH  22  23
HETATM   23  C   UNL     1      -7.008   9.012  67.888  1.00  0.00    -0.078 C  
BRANCH  23  24
HETATM   24  C   UNL     1      -5.730   8.927  68.711  1.00  0.00    -0.041 C  
BRANCH  24  25
HETATM   25  N   UNL     1      -5.746   9.915  69.757  1.00  0.00    -0.037 NA 
HETATM   26  C   UNL     1      -5.887  11.256  69.560  1.00  0.00    -0.064 A  
HETATM   27  N   UNL     1      -6.212  11.889  68.421  1.00  0.00    -0.050 NA 
HETATM   28  H2  UNL     1      -4.214  13.605  72.223  1.00  0.00     0.000 HD 
HETATM   29  H1  UNL     1      -5.115  14.959  71.982  1.00  0.00     0.000 HD 
HETATM   30  C   UNL     1      -5.401   9.712  71.066  1.00  0.00    -0.051 A  
HETATM   31  N   UNL     1      -5.271  10.849  71.715  1.00  0.00    -0.298 NA 
HETATM   32  C   UNL     1      -5.547  11.826  70.773  1.00  0.00    -0.115 A  
HETATM   33  C   UNL     1      -5.516  13.227  70.820  1.00  0.00    -0.174 A  
HETATM   34  N   UNL     1      -5.137  13.940  71.948  1.00  0.00    -0.160 NA 
HETATM   35  N   UNL     1      -5.870  13.918  69.709  1.00  0.00    -0.109 NA 
HETATM   36  C   UNL     1      -6.193  13.224  68.595  1.00  0.00    -0.084 A  
ENDBRANCH  24  25
ENDBRANCH  23  24
ENDBRANCH  22  23
ENDBRANCH  11  22
ENDBRANCH   8   9
ENDBRANCH   7   8
ENDBRANCH   5   7
ENDBRANCH   2   5
TORSDOF 12
ENDMDL
MODEL      318
REMARK 921   NORMALIZED FREE ENERGY PREDICTED BY IDOCK:   -1.19 KCAL/MOL
REMARK 922        TOTAL FREE ENERGY PREDICTED BY IDOCK:   -3.62 KCAL/MOL
REMARK 923 INTER-LIGAND FREE ENERGY PREDICTED BY IDOCK:   -5.74 KCAL/MOL
REMARK 924 INTRA-LIGAND FREE ENERGY PREDICTED BY IDOCK:    2.12 KCAL/MOL
REMARK 927      BINDING AFFINITY PREDICTED BY RF-SCORE:    0.00 PKD
ROOT
HETATM    1  C   UNL     1      -9.081  12.500  68.077  1.00  0.00    -0.200 C  
HETATM    2  C   UNL     1     -10.369  12.328  67.248  1.00  0.00    -0.228 C  
HETATM    3  C   UNL     1     -11.561  12.256  68.209  1.00  0.00    -0.385 C  
HETATM    4  C   UNL     1     -10.517  13.549  66.326  1.00  0.00    -0.290 C  
ENDROOT
BRANCH   2   5
HETATM    5  C   UNL     1     -10.242  11.056  66.395  1.00  0.00    -0.236 C  
HETATM    6  O   UNL     1     -10.609  10.990  65.225  1.00  0.00    -0.268 OA 
BRANCH   5   7
HETATM    7  O   UNL     1      -9.774   9.987  67.098  1.00  0.00    -0.163 OA 
BRANCH   7   8
HETATM    8  C   UNL     1      -9.750   8.753  66.356  1.00  0.00    -0.265 C  
BRANCH   8   9
HETATM    9  O   UNL     1      -8.999   7.719  66.986  1.00  0.00    -0.123 OA 
HETATM   10  P   UNL     1      -7.404   7.730  66.664  1.00  0.00    -0.091 P  
HETATM   11  C   UNL     1      -6.802   9.292  67.350  1.00  0.00    -0.077 C  
HETATM   12  O   UNL     1      -7.076   7.487  65.227  1.00  0.00    -0.060 OA 
HETATM   13  O   UNL     1      -6.730   6.721  67.722  1.00  0.00    -0.062 OA 
BRANCH  13  14
HETATM   14  C   UNL     1      -6.788   5.328  67.604  1.00  0.00    -0.060 C  
BRANCH  14  15
HETATM   15  O   UNL     1      -6.905   4.970  66.206  1.00  0.00    -0.058 OA 
BRANCH  15  16
HETATM   16  C   UNL     1      -7.031   3.638  65.944  1.00  0.00    -0.062 C  
HETATM   17  O   UNL     1      -6.151   2.812  66.158  1.00  0.00    -0.023 OA 
BRANCH  16  18
HETATM   18  C   UNL     1      -8.405   3.287  65.335  1.00  0.00    -0.099 C  
HETATM   19  C   UNL     1      -9.256   4.568  65.207  1.00  0.00    -0.156 C  
HETATM   20  C   UNL     1      -9.153   2.301  66.241  1.00  0.00    -0.068 C  
HETATM   21  C   UNL     1      -8.243   2.684  63.932  1.00  0.00    -0.082 C  
ENDBRANCH  16  18
ENDBRANCH  15  16
ENDBRANCH  14  15
ENDBRANCH  13  14
BRANCH  11  22
HETATM   22  O   UNL     1      -7.166   9.237  68.731  1.00  0.00    -0.072 OA 
BRANCH  22  23
HETATM   23  C   UNL     1      -8.564   9.230  68.935  1.00  0.00    -0.130 C  
BRANCH  23  24
HETATM   24  C   UNL     1      -8.834   9.331  70.429  1.00  0.00    -0.234 C  
BRANCH  24  25
HETATM   25  N   UNL     1      -9.172   8.037  70.962  1.00  0.00    -0.146 NA 
HETATM   26  C   UNL     1     -10.438   7.613  71.232  1.00  0.00    -0.206 A  
HETATM   27  N   UNL     1     -11.594   8.212  70.898  1.00  0.00    -0.281 NA 
HETATM   28  H2  UNL     1     -10.829   4.973  74.109  1.00  0.00     0.000 HD 
HETATM   29  H1  UNL     1     -12.274   4.321  73.674  1.00  0.00     0.000 HD 
HETATM   30  C   UNL     1      -8.298   7.127  71.491  1.00  0.00    -0.111 A  
HETATM   31  N   UNL     1      -8.928   6.160  72.122  1.00  0.00    -0.142 NA 
HETATM   32  C   UNL     1     -10.271   6.469  71.989  1.00  0.00    -0.193 A  
HETATM   33  C   UNL     1     -11.438   5.872  72.489  1.00  0.00    -0.298 A  
HETATM   34  N   UNL     1     -11.426   4.756  73.311  1.00  0.00    -0.330 NA 
HETATM   35  N   UNL     1     -12.634   6.414  72.154  1.00  0.00    -0.187 NA 
HETATM   36  C   UNL     1     -12.645   7.530  71.391  1.00  0.00    -0.351 A  
ENDBRANCH  24  25
ENDBRANCH  23  24
ENDBRANCH  22  23
ENDBRANCH  11  22
ENDBRANCH   8   9
ENDBRANCH   7   8
ENDBRANCH   5   7
ENDBRANCH   2   5
TORSDOF 12
ENDMDL
MODEL      319
REMARK 921   NORMALIZED FREE ENERGY PREDICTED BY IDOCK:   -1.13 KCAL/MOL
REMARK 922        TOTAL FREE ENERGY PREDICTED BY IDOCK:   -3.53 KCAL/MOL
REMARK 923 INTER-LIGAND FREE ENERGY PREDICTED BY IDOCK:   -3.81 KCAL/MOL
REMARK 924 INTRA-LIGAND FREE ENERGY PREDICTED BY IDOCK:    0.29 KCAL/MOL
REMARK 927      BINDING AFFINITY PREDICTED BY RF-SCORE:    0.00 PKD
ROOT
HETATM    1  C   UNL     1      -5.915  12.904  68.866  1.00  0.00    -0.079 C  
HETATM    2  C   UNL     1      -6.617  11.543  68.695  1.00  0.00    -0.064 C  
HETATM    3  C   UNL     1      -6.547  10.787  70.027  1.00  0.00    -0.159 C  
HETATM    4  C   UNL     1      -8.084  11.800  68.317  1.00  0.00    -0.154 C  
ENDROOT
BRANCH   2   5
HETATM    5  C   UNL     1      -5.925  10.770  67.560  1.00  0.00    -0.044 C  
HETATM    6  O   UNL     1      -5.666  11.266  66.467  1.00  0.00    -0.119 OA 
BRANCH   5   7
HETATM    7  O   UNL     1      -5.722   9.456  67.857  1.00  0.00    -0.041 OA 
BRANCH   7   8
HETATM    8  C   UNL     1      -6.781   8.848  68.620  1.00  0.00    -0.059 C  
BRANCH   8   9
HETATM    9  O   UNL     1      -7.083   7.514  68.223  1.00  0.00    -0.079 OA 
HETATM   10  P   UNL     1      -7.355   6.474  69.445  1.00  0.00    -0.096 P  
HETATM   11  C   UNL     1      -8.831   7.109  70.277  1.00  0.00    -0.148 C  
HETATM   12  O   UNL     1      -6.166   6.249  70.322  1.00  0.00    -0.032 OA 
HETATM   13  O   UNL     1      -7.997   5.159  68.775  1.00  0.00    -0.081 OA 
BRANCH  13  14
HETATM   14  C   UNL     1      -7.248   4.207  68.075  1.00  0.00    -0.060 C  
BRANCH  14  15
HETATM   15  O   UNL     1      -7.404   4.426  66.653  1.00  0.00    -0.078 OA 
BRANCH  15  16
HETATM   16  C   UNL     1      -8.474   3.813  66.071  1.00  0.00    -0.110 C  
HETATM   17  O   UNL     1      -9.638   4.007  66.404  1.00  0.00    -0.185 OA 
BRANCH  16  18
HETATM   18  C   UNL     1      -8.054   2.836  64.952  1.00  0.00    -0.086 C  
HETATM   19  C   UNL     1      -7.235   3.594  63.886  1.00  0.00    -0.051 C  
HETATM   20  C   UNL     1      -9.294   2.241  64.272  1.00  0.00    -0.131 C  
HETATM   21  C   UNL     1      -7.176   1.708  65.512  1.00  0.00    -0.052 C  
ENDBRANCH  16  18
ENDBRANCH  15  16
ENDBRANCH  14  15
ENDBRANCH  13  14
BRANCH  11  22
HETATM   22  O   UNL     1      -9.826   7.150  69.251  1.00  0.00    -0.158 OA 
BRANCH  22  23
HETATM   23  C   UNL     1      -9.971   8.431  68.672  1.00  0.00    -0.184 C  
BRANCH  23  24
HETATM   24  C   UNL     1     -10.773   8.290  67.385  1.00  0.00    -0.166 C  
BRANCH  24  25
HETATM   25  N   UNL     1     -10.135   9.019  66.320  1.00  0.00    -0.286 NA 
HETATM   26  C   UNL     1      -9.158   8.522  65.512  1.00  0.00    -0.091 A  
HETATM   27  N   UNL     1      -8.736   7.250  65.421  1.00  0.00    -0.036 NA 
HETATM   28  H2  UNL     1      -6.604  11.116  64.046  1.00  0.00     0.000 HD 
HETATM   29  H1  UNL     1      -6.082  10.263  62.741  1.00  0.00     0.000 HD 
HETATM   30  C   UNL     1     -10.231  10.365  66.093  1.00  0.00    -0.223 A  
HETATM   31  N   UNL     1      -9.341  10.771  65.212  1.00  0.00    -0.199 NA 
HETATM   32  C   UNL     1      -8.645   9.628  64.861  1.00  0.00    -0.170 A  
HETATM   33  C   UNL     1      -7.542   9.406  64.023  1.00  0.00    -0.115 A  
HETATM   34  N   UNL     1      -6.884  10.424  63.351  1.00  0.00    -0.084 NA 
HETATM   35  N   UNL     1      -7.097   8.136  63.866  1.00  0.00    -0.081 NA 
HETATM   36  C   UNL     1      -7.707   7.148  64.559  1.00  0.00    -0.113 A  
ENDBRANCH  24  25
ENDBRANCH  23  24
ENDBRANCH  22  23
ENDBRANCH  11  22
ENDBRANCH   8   9
ENDBRANCH   7   8
ENDBRANCH   5   7
ENDBRANCH   2   5
TORSDOF 12
ENDMDL
MODEL      320
REMARK 921   NORMALIZED FREE ENERGY PREDICTED BY IDOCK:   -0.98 KCAL/MOL
REMARK 922        TOTAL FREE ENERGY PREDICTED BY IDOCK:   -3.26 KCAL/MOL
REMARK 923 INTER-LIGAND FREE ENERGY PREDICTED BY IDOCK:   -2.36 KCAL/MOL
REMARK 924 INTRA-LIGAND FREE ENERGY PREDICTED BY IDOCK:   -0.90 KCAL/MOL
REMARK 927      BINDING AFFINITY PREDICTED BY RF-SCORE:    0.00 PKD
ROOT
HETATM    1  C   UNL     1     -10.731   4.602  69.271  1.00  0.00     0.917 C  
HETATM    2  C   UNL     1      -9.480   3.767  69.607  1.00  0.00    -0.258 C  
HETATM    3  C   UNL     1      -9.386   3.621  71.130  1.00  0.00    -0.218 C  
HETATM    4  C   UNL     1      -9.636   2.383  68.959  1.00  0.00    -0.049 C  
ENDROOT
BRANCH   2   5
HETATM    5  C   UNL     1      -8.245   4.470  69.020  1.00  0.00    -0.080 C  
HETATM    6  O   UNL     1      -7.497   5.181  69.684  1.00  0.00    -0.059 OA 
BRANCH   5   7
HETATM    7  O   UNL     1      -8.127   4.303  67.673  1.00  0.00    -0.094 OA 
BRANCH   7   8
HETATM    8  C   UNL     1      -6.796   4.514  67.163  1.00  0.00    -0.055 C  
BRANCH   8   9
HETATM    9  O   UNL     1      -6.734   5.449  66.090  1.00  0.00    -0.054 OA 
HETATM   10  P   UNL     1      -7.957   5.352  65.019  1.00  0.00    -0.122 P  
HETATM   11  C   UNL     1      -9.441   5.760  65.970  1.00  0.00    -0.086 C  
HETATM   12  O   UNL     1      -8.004   4.059  64.271  1.00  0.00    -0.084 OA 
HETATM   13  O   UNL     1      -7.866   6.685  64.120  1.00  0.00    -0.108 OA 
BRANCH  13  14
HETATM   14  C   UNL     1      -6.928   6.863  63.098  1.00  0.00    -0.053 C  
BRANCH  14  15
HETATM   15  O   UNL     1      -5.750   7.510  63.635  1.00  0.00    -0.043 OA 
BRANCH  15  16
HETATM   16  C   UNL     1      -5.980   8.523  64.518  1.00  0.00    -0.065 C  
HETATM   17  O   UNL     1      -5.993   8.381  65.735  1.00  0.00    -0.046 OA 
BRANCH  16  18
HETATM   18  C   UNL     1      -6.234   9.872  63.811  1.00  0.00    -0.125 C  
HETATM   19  C   UNL     1      -5.475  10.993  64.549  1.00  0.00     0.287 C  
HETATM   20  C   UNL     1      -7.730  10.210  63.831  1.00  0.00    -0.140 C  
HETATM   21  C   UNL     1      -5.729   9.832  62.361  1.00  0.00    -0.090 C  
ENDBRANCH  16  18
ENDBRANCH  15  16
ENDBRANCH  14  15
ENDBRANCH  13  14
BRANCH  11  22
HETATM   22  O   UNL     1      -9.173   7.058  66.506  1.00  0.00    -0.157 OA 
BRANCH  22  23
HETATM   23  C   UNL     1     -10.339   7.838  66.673  1.00  0.00    -0.192 C  
BRANCH  23  24
HETATM   24  C   UNL     1      -9.967   9.104  67.433  1.00  0.00    -0.206 C  
BRANCH  24  25
HETATM   25  N   UNL     1      -9.881   8.829  68.844  1.00  0.00    -0.173 NA 
HETATM   26  C   UNL     1      -8.720   8.707  69.544  1.00  0.00    -0.139 A  
HETATM   27  N   UNL     1      -7.475   8.990  69.126  1.00  0.00    -0.071 NA 
HETATM   28  H2  UNL     1      -8.809   6.372  72.698  1.00  0.00     0.000 HD 
HETATM   29  H1  UNL     1      -7.528   6.993  73.521  1.00  0.00     0.000 HD 
HETATM   30  C   UNL     1     -10.909   8.426  69.652  1.00  0.00    -0.148 A  
HETATM   31  N   UNL     1     -10.472   8.011  70.822  1.00  0.00    -0.204 NA 
HETATM   32  C   UNL     1      -9.096   8.158  70.756  1.00  0.00    -0.146 A  
HETATM   33  C   UNL     1      -8.063   7.836  71.647  1.00  0.00    -0.105 A  
HETATM   34  N   UNL     1      -8.281   7.227  72.873  1.00  0.00    -0.104 NA 
HETATM   35  N   UNL     1      -6.789   8.133  71.291  1.00  0.00    -0.050 NA 
HETATM   36  C   UNL     1      -6.570   8.683  70.075  1.00  0.00    -0.038 A  
ENDBRANCH  24  25
ENDBRANCH  23  24
ENDBRANCH  22  23
ENDBRANCH  11  22
ENDBRANCH   8   9
ENDBRANCH   7   8
ENDBRANCH   5   7
ENDBRANCH   2   5
TORSDOF 12
ENDMDL
MODEL      321
REMARK 921   NORMALIZED FREE ENERGY PREDICTED BY IDOCK:   -0.51 KCAL/MOL
REMARK 922        TOTAL FREE ENERGY PREDICTED BY IDOCK:   -2.46 KCAL/MOL
REMARK 923 INTER-LIGAND FREE ENERGY PREDICTED BY IDOCK:   -3.24 KCAL/MOL
REMARK 924 INTRA-LIGAND FREE ENERGY PREDICTED BY IDOCK:    0.79 KCAL/MOL
REMARK 927      BINDING AFFINITY PREDICTED BY RF-SCORE:    0.00 PKD
ROOT
HETATM    1  C   UNL     1     -10.256   3.585  67.559  1.00  0.00     0.970 C  
HETATM    2  C   UNL     1      -9.006   2.726  67.834  1.00  0.00    -0.200 C  
HETATM    3  C   UNL     1      -9.131   2.118  69.236  1.00  0.00    -0.178 C  
HETATM    4  C   UNL     1      -8.949   1.606  66.783  1.00  0.00    -0.117 C  
ENDROOT
BRANCH   2   5
HETATM    5  C   UNL     1      -7.758   3.614  67.702  1.00  0.00    -0.074 C  
HETATM    6  O   UNL     1      -7.263   4.223  68.646  1.00  0.00    -0.054 OA 
BRANCH   5   7
HETATM    7  O   UNL     1      -7.321   3.733  66.417  1.00  0.00    -0.070 OA 
BRANCH   7   8
HETATM    8  C   UNL     1      -6.064   4.422  66.279  1.00  0.00    -0.031 C  
BRANCH   8   9
HETATM    9  O   UNL     1      -6.084   5.462  65.305  1.00  0.00    -0.025 OA 
HETATM   10  P   UNL     1      -7.329   5.403  64.258  1.00  0.00    -0.064 P  
HETATM   11  C   UNL     1      -8.806   5.626  65.278  1.00  0.00    -0.076 C  
HETATM   12  O   UNL     1      -7.325   4.192  63.383  1.00  0.00    -0.049 OA 
HETATM   13  O   UNL     1      -7.338   6.823  63.498  1.00  0.00    -0.060 OA 
BRANCH  13  14
HETATM   14  C   UNL     1      -6.440   7.157  62.479  1.00  0.00    -0.053 C  
BRANCH  14  15
HETATM   15  O   UNL     1      -5.278   7.798  63.055  1.00  0.00    -0.047 OA 
BRANCH  15  16
HETATM   16  C   UNL     1      -5.498   8.512  64.196  1.00  0.00    -0.059 C  
HETATM   17  O   UNL     1      -5.390   8.048  65.325  1.00  0.00    -0.028 OA 
BRANCH  16  18
HETATM   18  C   UNL     1      -5.909   9.971  63.905  1.00  0.00    -0.129 C  
HETATM   19  C   UNL     1      -5.568  10.856  65.122  1.00  0.00    -0.011 C  
HETATM   20  C   UNL     1      -7.420  10.059  63.655  1.00  0.00    -0.137 C  
HETATM   21  C   UNL     1      -5.148  10.522  62.690  1.00  0.00    -0.133 C  
ENDBRANCH  16  18
ENDBRANCH  15  16
ENDBRANCH  14  15
ENDBRANCH  13  14
BRANCH  11  22
HETATM   22  O   UNL     1      -8.596   6.877  65.938  1.00  0.00    -0.143 OA 
BRANCH  22  23
HETATM   23  C   UNL     1      -9.658   7.788  65.746  1.00  0.00     0.334 C  
BRANCH  23  24
HETATM   24  C   UNL     1      -9.941   8.484  67.070  1.00  0.00    -0.250 C  
BRANCH  24  25
HETATM   25  N   UNL     1     -10.276   9.866  66.845  1.00  0.00    -0.230 NA 
HETATM   26  C   UNL     1     -10.770  10.712  67.791  1.00  0.00    -0.257 A  
HETATM   27  N   UNL     1     -10.866  10.499  69.114  1.00  0.00    -0.220 NA 
HETATM   28  H2  UNL     1     -13.072  13.622  66.513  1.00  0.00     0.000 HD 
HETATM   29  H1  UNL     1     -12.900  14.666  67.771  1.00  0.00     0.000 HD 
HETATM   30  C   UNL     1     -10.374  10.485  65.628  1.00  0.00    -0.204 A  
HETATM   31  N   UNL     1     -10.942  11.668  65.731  1.00  0.00    -0.292 NA 
HETATM   32  C   UNL     1     -11.219  11.809  67.080  1.00  0.00    -0.316 A  
HETATM   33  C   UNL     1     -11.871  12.809  67.816  1.00  0.00    -0.332 A  
HETATM   34  N   UNL     1     -12.426  13.939  67.235  1.00  0.00    -0.148 NA 
HETATM   35  N   UNL     1     -11.965  12.662  69.161  1.00  0.00    -0.276 NA 
HETATM   36  C   UNL     1     -11.467  11.539  69.723  1.00  0.00    -0.286 A  
ENDBRANCH  24  25
ENDBRANCH  23  24
ENDBRANCH  22  23
ENDBRANCH  11  22
ENDBRANCH   8   9
ENDBRANCH   7   8
ENDBRANCH   5   7
ENDBRANCH   2   5
TORSDOF 12
ENDMDL
MODEL      322
REMARK 921   NORMALIZED FREE ENERGY PREDICTED BY IDOCK:   -0.39 KCAL/MOL
REMARK 922        TOTAL FREE ENERGY PREDICTED BY IDOCK:   -2.25 KCAL/MOL
REMARK 923 INTER-LIGAND FREE ENERGY PREDICTED BY IDOCK:   -3.56 KCAL/MOL
REMARK 924 INTRA-LIGAND FREE ENERGY PREDICTED BY IDOCK:    1.31 KCAL/MOL
REMARK 927      BINDING AFFINITY PREDICTED BY RF-SCORE:    0.00 PKD
ROOT
HETATM    1  C   UNL     1      -5.135   5.025  68.431  1.00  0.00     0.000 C  
HETATM    2  C   UNL     1      -6.458   4.292  68.725  1.00  0.00    -0.037 C  
HETATM    3  C   UNL     1      -7.090   3.872  67.392  1.00  0.00    -0.063 C  
HETATM    4  C   UNL     1      -6.144   3.047  69.568  1.00  0.00    -0.024 C  
ENDROOT
BRANCH   2   5
HETATM    5  C   UNL     1      -7.376   5.231  69.524  1.00  0.00    -0.061 C  
HETATM    6  O   UNL     1      -7.446   5.222  70.750  1.00  0.00    -0.071 OA 
BRANCH   5   7
HETATM    7  O   UNL     1      -8.174   6.001  68.730  1.00  0.00    -0.103 OA 
BRANCH   7   8
HETATM    8  C   UNL     1      -7.527   7.171  68.196  1.00  0.00    -0.099 C  
BRANCH   8   9
HETATM    9  O   UNL     1      -8.433   8.141  67.677  1.00  0.00    -0.129 OA 
HETATM   10  P   UNL     1      -9.968   7.628  67.504  1.00  0.00    -0.220 P  
HETATM   11  C   UNL     1     -10.525   7.251  69.183  1.00  0.00    -0.215 C  
HETATM   12  O   UNL     1     -10.128   6.525  66.508  1.00  0.00    -0.158 OA 
HETATM   13  O   UNL     1     -10.851   8.949  67.241  1.00  0.00    -0.216 OA 
BRANCH  13  14
HETATM   14  C   UNL     1     -10.890   9.619  66.014  1.00  0.00     0.600 C  
BRANCH  14  15
HETATM   15  O   UNL     1      -9.785   9.177  65.191  1.00  0.00    -0.089 OA 
BRANCH  15  16
HETATM   16  C   UNL     1      -8.932  10.154  64.769  1.00  0.00    -0.203 C  
HETATM   17  O   UNL     1      -9.229  11.341  64.706  1.00  0.00    -0.185 OA 
BRANCH  16  18
HETATM   18  C   UNL     1      -7.550   9.594  64.368  1.00  0.00    -0.128 C  
HETATM   19  C   UNL     1      -7.007  10.381  63.157  1.00  0.00    -0.065 C  
HETATM   20  C   UNL     1      -7.670   8.118  63.968  1.00  0.00    -0.137 C  
HETATM   21  C   UNL     1      -6.546   9.741  65.520  1.00  0.00    -0.085 C  
ENDBRANCH  16  18
ENDBRANCH  15  16
ENDBRANCH  14  15
ENDBRANCH  13  14
BRANCH  11  22
HETATM   22  O   UNL     1     -10.347   8.476  69.899  1.00  0.00    -0.200 OA 
BRANCH  22  23
HETATM   23  C   UNL     1     -11.558   9.011  70.390  1.00  0.00    -0.117 C  
BRANCH  23  24
HETATM   24  C   UNL     1     -11.825  10.330  69.679  1.00  0.00    -0.111 C  
BRANCH  24  25
HETATM   25  N   UNL     1     -10.584  10.994  69.379  1.00  0.00    -0.207 NA 
HETATM   26  C   UNL     1     -10.446  12.031  68.507  1.00  0.00    -0.229 A  
HETATM   27  N   UNL     1     -11.420  12.741  67.914  1.00  0.00    -0.295 NA 
HETATM   28  H2  UNL     1      -6.966  12.373  66.725  1.00  0.00     0.000 HD 
HETATM   29  H1  UNL     1      -7.028  13.969  66.332  1.00  0.00     0.000 HD 
HETATM   30  C   UNL     1      -9.333  10.564  69.729  1.00  0.00     0.124 A  
HETATM   31  N   UNL     1      -8.395  11.239  69.100  1.00  0.00    -0.002 NA 
HETATM   32  C   UNL     1      -9.082  12.144  68.310  1.00  0.00    -0.191 A  
HETATM   33  C   UNL     1      -8.662  13.092  67.366  1.00  0.00    -0.206 A  
HETATM   34  N   UNL     1      -7.333  13.279  67.018  1.00  0.00     0.120 NA 
HETATM   35  N   UNL     1      -9.601  13.861  66.762  1.00  0.00    -0.273 NA 
HETATM   36  C   UNL     1     -10.901  13.648  67.065  1.00  0.00    -0.286 A  
ENDBRANCH  24  25
ENDBRANCH  23  24
ENDBRANCH  22  23
ENDBRANCH  11  22
ENDBRANCH   8   9
ENDBRANCH   7   8
ENDBRANCH   5   7
ENDBRANCH   2   5
TORSDOF 12
ENDMDL
MODEL      323
REMARK 921   NORMALIZED FREE ENERGY PREDICTED BY IDOCK:    0.48 KCAL/MOL
REMARK 922        TOTAL FREE ENERGY PREDICTED BY IDOCK:   -0.78 KCAL/MOL
REMARK 923 INTER-LIGAND FREE ENERGY PREDICTED BY IDOCK:   -4.74 KCAL/MOL
REMARK 924 INTRA-LIGAND FREE ENERGY PREDICTED BY IDOCK:    3.96 KCAL/MOL
REMARK 927      BINDING AFFINITY PREDICTED BY RF-SCORE:    0.00 PKD
ROOT
HETATM    1  C   UNL     1      -6.774   5.584  68.891  1.00  0.00    -0.053 C  
HETATM    2  C   UNL     1      -7.360   6.920  68.394  1.00  0.00    -0.093 C  
HETATM    3  C   UNL     1      -6.253   7.700  67.675  1.00  0.00    -0.049 C  
HETATM    4  C   UNL     1      -8.501   6.611  67.412  1.00  0.00    -0.120 C  
ENDROOT
BRANCH   2   5
HETATM    5  C   UNL     1      -7.918   7.693  69.599  1.00  0.00    -0.124 C  
HETATM    6  O   UNL     1      -8.459   7.148  70.557  1.00  0.00    -0.135 OA 
BRANCH   5   7
HETATM    7  O   UNL     1      -7.841   9.045  69.448  1.00  0.00    -0.089 OA 
BRANCH   7   8
HETATM    8  C   UNL     1      -9.092   9.679  69.123  1.00  0.00    -0.154 C  
BRANCH   8   9
HETATM    9  O   UNL     1      -8.947  10.977  68.552  1.00  0.00    -0.151 OA 
HETATM   10  P   UNL     1      -7.411  11.452  68.299  1.00  0.00    -0.116 P  
HETATM   11  C   UNL     1      -6.757  10.281  67.085  1.00  0.00    -0.078 C  
HETATM   12  O   UNL     1      -6.610  11.599  69.552  1.00  0.00    -0.110 OA 
HETATM   13  O   UNL     1      -7.499  12.757  67.360  1.00  0.00    -0.150 OA 
BRANCH  13  14
HETATM   14  C   UNL     1      -7.859  14.024  67.832  1.00  0.00    -0.160 C  
BRANCH  14  15
HETATM   15  O   UNL     1      -6.807  14.968  67.519  1.00  0.00    -0.171 OA 
BRANCH  15  16
HETATM   16  C   UNL     1      -6.044  15.377  68.573  1.00  0.00    -0.093 C  
HETATM   17  O   UNL     1      -5.161  14.698  69.083  1.00  0.00    -0.086 OA 
BRANCH  16  18
HETATM   18  C   UNL     1      -6.425  16.792  69.059  1.00  0.00    -0.195 C  
HETATM   19  C   UNL     1      -6.056  16.943  70.549  1.00  0.00     0.384 C  
HETATM   20  C   UNL     1      -7.935  17.017  68.912  1.00  0.00    -0.217 C  
HETATM   21  C   UNL     1      -5.660  17.865  68.270  1.00  0.00    -0.159 C  
ENDBRANCH  16  18
ENDBRANCH  15  16
ENDBRANCH  14  15
ENDBRANCH  13  14
BRANCH  11  22
HETATM   22  O   UNL     1      -7.644  10.394  65.969  1.00  0.00    -0.125 OA 
BRANCH  22  23
HETATM   23  C   UNL     1      -8.988  10.116  66.302  1.00  0.00    -0.148 C  
BRANCH  23  24
HETATM   24  C   UNL     1      -9.863  10.469  65.106  1.00  0.00    -0.297 C  
BRANCH  24  25
HETATM   25  N   UNL     1     -10.350  11.817  65.228  1.00  0.00    -0.262 NA 
HETATM   26  C   UNL     1     -11.334  12.362  64.459  1.00  0.00    -0.328 A  
HETATM   27  N   UNL     1     -12.146  11.730  63.595  1.00  0.00    -0.441 NA 
HETATM   28  H2  UNL     1     -11.167  16.241  63.884  1.00  0.00     0.000 HD 
HETATM   29  H1  UNL     1     -12.744  16.520  63.513  1.00  0.00     0.000 HD 
HETATM   30  C   UNL     1      -9.771  12.824  65.953  1.00  0.00    -0.198 A  
HETATM   31  N   UNL     1     -10.300  13.994  65.664  1.00  0.00    -0.315 NA 
HETATM   32  C   UNL     1     -11.262  13.720  64.708  1.00  0.00    -0.366 A  
HETATM   33  C   UNL     1     -12.119  14.540  63.960  1.00  0.00    -0.240 A  
HETATM   34  N   UNL     1     -12.120  15.923  64.057  1.00  0.00    -0.710 NA 
HETATM   35  N   UNL     1     -12.985  13.953  63.099  1.00  0.00     0.135 NA 
HETATM   36  C   UNL     1     -12.952  12.608  62.968  1.00  0.00     0.673 A  
ENDBRANCH  24  25
ENDBRANCH  23  24
ENDBRANCH  22  23
ENDBRANCH  11  22
ENDBRANCH   8   9
ENDBRANCH   7   8
ENDBRANCH   5   7
ENDBRANCH   2   5
TORSDOF 12
ENDMDL
MODEL      324
REMARK 921   NORMALIZED FREE ENERGY PREDICTED BY IDOCK:    0.76 KCAL/MOL
REMARK 922        TOTAL FREE ENERGY PREDICTED BY IDOCK:   -0.30 KCAL/MOL
REMARK 923 INTER-LIGAND FREE ENERGY PREDICTED BY IDOCK:   -3.01 KCAL/MOL
REMARK 924 INTRA-LIGAND FREE ENERGY PREDICTED BY IDOCK:    2.71 KCAL/MOL
REMARK 927      BINDING AFFINITY PREDICTED BY RF-SCORE:    0.00 PKD
ROOT
HETATM    1  C   UNL     1      -6.723   5.489  68.977  1.00  0.00    -0.053 C  
HETATM    2  C   UNL     1      -7.154   6.776  68.247  1.00  0.00    -0.086 C  
HETATM    3  C   UNL     1      -5.940   7.345  67.504  1.00  0.00    -0.038 C  
HETATM    4  C   UNL     1      -8.258   6.415  67.242  1.00  0.00    -0.113 C  
ENDROOT
BRANCH   2   5
HETATM    5  C   UNL     1      -7.710   7.768  69.282  1.00  0.00    -0.100 C  
HETATM    6  O   UNL     1      -8.241   7.418  70.332  1.00  0.00    -0.117 OA 
BRANCH   5   7
HETATM    7  O   UNL     1      -7.642   9.064  68.868  1.00  0.00    -0.080 OA 
BRANCH   7   8
HETATM    8  C   UNL     1      -8.885   9.595  68.373  1.00  0.00    -0.123 C  
BRANCH   8   9
HETATM    9  O   UNL     1      -8.740  10.811  67.644  1.00  0.00    -0.125 OA 
HETATM   10  P   UNL     1      -7.244  11.452  67.661  1.00  0.00    -0.112 P  
HETATM   11  C   UNL     1      -6.203  10.228  66.831  1.00  0.00    -0.068 C  
HETATM   12  O   UNL     1      -6.785  11.877  69.019  1.00  0.00    -0.086 OA 
HETATM   13  O   UNL     1      -7.237  12.593  66.525  1.00  0.00     0.435 OA 
BRANCH  13  14
HETATM   14  C   UNL     1      -7.825  13.851  66.692  1.00  0.00     0.783 C  
BRANCH  14  15
HETATM   15  O   UNL     1      -8.304  13.980  68.052  1.00  0.00    -0.142 OA 
BRANCH  15  16
HETATM   16  C   UNL     1      -9.657  14.054  68.200  1.00  0.00    -0.220 C  
HETATM   17  O   UNL     1     -10.383  13.078  68.350  1.00  0.00    -0.244 OA 
BRANCH  16  18
HETATM   18  C   UNL     1     -10.176  15.507  68.147  1.00  0.00    -0.227 C  
HETATM   19  C   UNL     1     -11.665  15.539  68.548  1.00  0.00    -0.351 C  
HETATM   20  C   UNL     1     -10.049  16.066  66.724  1.00  0.00    -0.272 C  
HETATM   21  C   UNL     1      -9.401  16.400  69.127  1.00  0.00    -0.224 C  
ENDBRANCH  16  18
ENDBRANCH  15  16
ENDBRANCH  14  15
ENDBRANCH  13  14
BRANCH  11  22
HETATM   22  O   UNL     1      -6.804  10.065  65.544  1.00  0.00    -0.105 OA 
BRANCH  22  23
HETATM   23  C   UNL     1      -8.146   9.628  65.612  1.00  0.00    -0.117 C  
BRANCH  23  24
HETATM   24  C   UNL     1      -8.694   9.537  64.195  1.00  0.00    -0.215 C  
BRANCH  24  25
HETATM   25  N   UNL     1      -9.281  10.792  63.806  1.00  0.00    -0.228 NA 
HETATM   26  C   UNL     1     -10.371  11.358  64.395  1.00  0.00    -0.320 A  
HETATM   27  N   UNL     1     -10.985  10.974  65.526  1.00  0.00    -0.089 NA 
HETATM   28  H2  UNL     1     -12.591  13.666  62.126  1.00  0.00     0.000 HD 
HETATM   29  H1  UNL     1     -13.318  14.564  63.295  1.00  0.00     0.000 HD 
HETATM   30  C   UNL     1      -8.997  11.499  62.669  1.00  0.00     0.012 A  
HETATM   31  N   UNL     1      -9.869  12.464  62.469  1.00  0.00     1.136 NA 
HETATM   32  C   UNL     1     -10.752  12.368  63.532  1.00  0.00    -0.430 A  
HETATM   33  C   UNL     1     -11.926  13.062  63.857  1.00  0.00    -0.485 A  
HETATM   34  N   UNL     1     -12.464  14.059  63.058  1.00  0.00    -0.444 NA 
HETATM   35  N   UNL     1     -12.568  12.740  65.007  1.00  0.00    -0.640 NA 
HETATM   36  C   UNL     1     -12.071  11.735  65.763  1.00  0.00     0.477 A  
ENDBRANCH  24  25
ENDBRANCH  23  24
ENDBRANCH  22  23
ENDBRANCH  11  22
ENDBRANCH   8   9
ENDBRANCH   7   8
ENDBRANCH   5   7
ENDBRANCH   2   5
TORSDOF 12
ENDMDL
MODEL      325
REMARK 921   NORMALIZED FREE ENERGY PREDICTED BY IDOCK:    1.81 KCAL/MOL
REMARK 922        TOTAL FREE ENERGY PREDICTED BY IDOCK:    1.48 KCAL/MOL
REMARK 923 INTER-LIGAND FREE ENERGY PREDICTED BY IDOCK:   -4.68 KCAL/MOL
REMARK 924 INTRA-LIGAND FREE ENERGY PREDICTED BY IDOCK:    6.17 KCAL/MOL
REMARK 927      BINDING AFFINITY PREDICTED BY RF-SCORE:    0.00 PKD
ROOT
HETATM    1  C   UNL     1     -11.072   9.200  72.792  1.00  0.00     1.133 C  
HETATM    2  C   UNL     1     -11.970   9.550  71.589  1.00  0.00    -0.474 C  
HETATM    3  C   UNL     1     -13.262   8.731  71.691  1.00  0.00    -0.399 C  
HETATM    4  C   UNL     1     -12.298  11.050  71.652  1.00  0.00    -0.206 C  
ENDROOT
BRANCH   2   5
HETATM    5  C   UNL     1     -11.200   9.250  70.293  1.00  0.00    -0.231 C  
HETATM    6  O   UNL     1     -10.417  10.041  69.776  1.00  0.00    -0.222 OA 
BRANCH   5   7
HETATM    7  O   UNL     1     -11.551   8.060  69.728  1.00  0.00     0.132 OA 
BRANCH   7   8
HETATM    8  C   UNL     1     -10.683   6.963  70.067  1.00  0.00    -0.243 C  
BRANCH   8   9
HETATM    9  O   UNL     1      -9.576   6.813  69.182  1.00  0.00    -0.141 OA 
HETATM   10  P   UNL     1      -9.951   6.283  67.690  1.00  0.00    -0.165 P  
HETATM   11  C   UNL     1     -10.999   7.578  66.986  1.00  0.00    -0.035 C  
HETATM   12  O   UNL     1     -10.525   4.903  67.666  1.00  0.00    -0.081 OA 
HETATM   13  O   UNL     1      -8.635   6.515  66.792  1.00  0.00    -0.113 OA 
BRANCH  13  14
HETATM   14  C   UNL     1      -7.507   5.690  66.848  1.00  0.00    -0.088 C  
BRANCH  14  15
HETATM   15  O   UNL     1      -6.352   6.425  66.378  1.00  0.00    -0.039 OA 
BRANCH  15  16
HETATM   16  C   UNL     1      -6.201   6.491  65.025  1.00  0.00    -0.038 C  
HETATM   17  O   UNL     1      -5.163   6.829  64.468  1.00  0.00    -0.025 OA 
BRANCH  16  18
HETATM   18  C   UNL     1      -7.490   6.100  64.270  1.00  0.00    -0.080 C  
HETATM   19  C   UNL     1      -7.129   5.243  63.040  1.00  0.00    -0.042 C  
HETATM   20  C   UNL     1      -8.223   7.356  63.783  1.00  0.00     0.070 C  
HETATM   21  C   UNL     1      -8.419   5.272  65.169  1.00  0.00    -0.149 C  
ENDBRANCH  16  18
ENDBRANCH  15  16
ENDBRANCH  14  15
ENDBRANCH  13  14
BRANCH  11  22
HETATM   22  O   UNL     1     -10.196   8.759  67.052  1.00  0.00    -0.234 OA 
BRANCH  22  23
HETATM   23  C   UNL     1      -9.802   9.231  65.780  1.00  0.00    -0.231 C  
BRANCH  23  24
HETATM   24  C   UNL     1     -10.745  10.353  65.369  1.00  0.00     0.122 C  
BRANCH  24  25
HETATM   25  N   UNL     1     -10.304  11.604  65.928  1.00  0.00    -0.239 NA 
HETATM   26  C   UNL     1     -10.646  12.833  65.451  1.00  0.00    -0.287 A  
HETATM   27  N   UNL     1     -11.572  13.126  64.523  1.00  0.00    -0.346 NA 
HETATM   28  H2  UNL     1      -8.054  15.723  66.029  1.00  0.00     0.000 HD 
HETATM   29  H1  UNL     1      -9.067  17.012  65.910  1.00  0.00     0.000 HD 
HETATM   30  C   UNL     1      -9.313  11.769  66.857  1.00  0.00    -0.192 A  
HETATM   31  N   UNL     1      -8.968  13.033  66.978  1.00  0.00    -0.222 NA 
HETATM   32  C   UNL     1      -9.779  13.707  66.081  1.00  0.00    -0.255 A  
HETATM   33  C   UNL     1      -9.855  15.052  65.693  1.00  0.00    -0.345 A  
HETATM   34  N   UNL     1      -9.012  16.034  66.192  1.00  0.00    -0.342 NA 
HETATM   35  N   UNL     1     -10.795  15.411  64.785  1.00  0.00    -0.411 NA 
HETATM   36  C   UNL     1     -11.586  14.447  64.262  1.00  0.00    -0.262 A  
ENDBRANCH  24  25
ENDBRANCH  23  24
ENDBRANCH  22  23
ENDBRANCH  11  22
ENDBRANCH   8   9
ENDBRANCH   7   8
ENDBRANCH   5   7
ENDBRANCH   2   5
TORSDOF 12
ENDMDL
MODEL      326
REMARK 921   NORMALIZED FREE ENERGY PREDICTED BY IDOCK:    2.15 KCAL/MOL
REMARK 922        TOTAL FREE ENERGY PREDICTED BY IDOCK:    2.06 KCAL/MOL
REMARK 923 INTER-LIGAND FREE ENERGY PREDICTED BY IDOCK:   -0.24 KCAL/MOL
REMARK 924 INTRA-LIGAND FREE ENERGY PREDICTED BY IDOCK:    2.30 KCAL/MOL
REMARK 927      BINDING AFFINITY PREDICTED BY RF-SCORE:    0.00 PKD
ROOT
HETATM    1  C   UNL     1      -8.664   9.772  66.287  1.00  0.00    -0.152 C  
HETATM    2  C   UNL     1      -9.756   9.733  65.200  1.00  0.00    -0.338 C  
HETATM    3  C   UNL     1      -9.541   8.483  64.339  1.00  0.00     1.655 C  
HETATM    4  C   UNL     1     -11.125   9.660  65.892  1.00  0.00     1.394 C  
ENDROOT
BRANCH   2   5
HETATM    5  C   UNL     1      -9.672  11.023  64.369  1.00  0.00    -0.280 C  
HETATM    6  O   UNL     1     -10.040  11.097  63.200  1.00  0.00    -0.336 OA 
BRANCH   5   7
HETATM    7  O   UNL     1      -9.056  12.044  65.029  1.00  0.00     0.159 OA 
BRANCH   7   8
HETATM    8  C   UNL     1      -9.662  12.387  66.290  1.00  0.00    -0.246 C  
BRANCH   8   9
HETATM    9  O   UNL     1      -9.775  13.790  66.510  1.00  0.00    -0.277 OA 
HETATM   10  P   UNL     1     -10.048  14.227  68.054  1.00  0.00    -0.236 P  
HETATM   11  C   UNL     1      -8.580  13.681  68.959  1.00  0.00     0.316 C  
HETATM   12  O   UNL     1     -11.356  13.747  68.595  1.00  0.00    -0.252 OA 
HETATM   13  O   UNL     1      -9.800  15.816  68.116  1.00  0.00    -0.208 OA 
BRANCH  13  14
HETATM   14  C   UNL     1     -10.717  16.760  67.642  1.00  0.00    -0.305 C  
BRANCH  14  15
HETATM   15  O   UNL     1     -11.098  16.419  66.288  1.00  0.00    -0.030 OA 
BRANCH  15  16
HETATM   16  C   UNL     1     -10.935  17.404  65.360  1.00  0.00     0.137 C  
HETATM   17  O   UNL     1     -11.084  17.240  64.154  1.00  0.00    -0.558 OA 
BRANCH  16  18
HETATM   18  C   UNL     1     -10.530  18.750  65.997  1.00  0.00    -0.483 C  
HETATM   19  C   UNL     1     -10.790  19.894  64.996  1.00  0.00     0.569 C  
HETATM   20  C   UNL     1      -9.036  18.746  66.346  1.00  0.00    -0.305 C  
HETATM   21  C   UNL     1     -11.358  19.028  67.260  1.00  0.00     0.334 C  
ENDBRANCH  16  18
ENDBRANCH  15  16
ENDBRANCH  14  15
ENDBRANCH  13  14
BRANCH  11  22
HETATM   22  O   UNL     1      -7.493  14.338  68.301  1.00  0.00    -0.106 OA 
BRANCH  22  23
HETATM   23  C   UNL     1      -6.413  14.620  69.166  1.00  0.00    -0.110 C  
BRANCH  23  24
HETATM   24  C   UNL     1      -5.157  13.978  68.592  1.00  0.00    -0.090 C  
BRANCH  24  25
HETATM   25  N   UNL     1      -5.349  12.560  68.438  1.00  0.00    -0.053 NA 
HETATM   26  C   UNL     1      -5.465  11.673  69.465  1.00  0.00    -0.061 A  
HETATM   27  N   UNL     1      -5.607  11.946  70.773  1.00  0.00    -0.264 NA 
HETATM   28  H2  UNL     1      -4.263   8.004  68.761  1.00  0.00     0.000 HD 
HETATM   29  H1  UNL     1      -5.123   7.219  69.922  1.00  0.00     0.000 HD 
HETATM   30  C   UNL     1      -5.220  11.849  67.276  1.00  0.00    -0.109 A  
HETATM   31  N   UNL     1      -5.205  10.553  67.500  1.00  0.00    -0.040 NA 
HETATM   32  C   UNL     1      -5.331  10.431  68.874  1.00  0.00    -0.041 A  
HETATM   33  C   UNL     1      -5.318   9.325  69.735  1.00  0.00    -0.033 A  
HETATM   34  N   UNL     1      -5.132   8.023  69.295  1.00  0.00    -0.025 NA 
HETATM   35  N   UNL     1      -5.492   9.538  71.062  1.00  0.00    -0.049 NA 
HETATM   36  C   UNL     1      -5.625  10.811  71.498  1.00  0.00     0.188 A  
ENDBRANCH  24  25
ENDBRANCH  23  24
ENDBRANCH  22  23
ENDBRANCH  11  22
ENDBRANCH   8   9
ENDBRANCH   7   8
ENDBRANCH   5   7
ENDBRANCH   2   5
TORSDOF 12
ENDMDL
MODEL      327
REMARK 921   NORMALIZED FREE ENERGY PREDICTED BY IDOCK:    2.53 KCAL/MOL
REMARK 922        TOTAL FREE ENERGY PREDICTED BY IDOCK:    2.71 KCAL/MOL
REMARK 923 INTER-LIGAND FREE ENERGY PREDICTED BY IDOCK:   -0.69 KCAL/MOL
REMARK 924 INTRA-LIGAND FREE ENERGY PREDICTED BY IDOCK:    3.40 KCAL/MOL
REMARK 927      BINDING AFFINITY PREDICTED BY RF-SCORE:    0.00 PKD
ROOT
HETATM    1  C   UNL     1      -9.576   4.288  70.204  1.00  0.00    -0.269 C  
HETATM    2  C   UNL     1      -9.727   5.821  70.215  1.00  0.00    -0.223 C  
HETATM    3  C   UNL     1     -10.735   6.203  71.305  1.00  0.00    -0.310 C  
HETATM    4  C   UNL     1      -8.356   6.439  70.535  1.00  0.00    -0.129 C  
ENDROOT
BRANCH   2   5
HETATM    5  C   UNL     1     -10.184   6.284  68.823  1.00  0.00    -0.178 C  
HETATM    6  O   UNL     1     -10.075   5.593  67.814  1.00  0.00    -0.146 OA 
BRANCH   5   7
HETATM    7  O   UNL     1     -10.628   7.572  68.808  1.00  0.00    -0.206 OA 
BRANCH   7   8
HETATM    8  C   UNL     1      -9.695   8.528  69.348  1.00  0.00    -0.177 C  
BRANCH   8   9
HETATM    9  O   UNL     1      -9.263   9.504  68.404  1.00  0.00    -0.130 OA 
HETATM   10  P   UNL     1      -8.975  10.982  69.023  1.00  0.00     0.100 P  
HETATM   11  C   UNL     1      -7.604  10.743  70.179  1.00  0.00     0.521 C  
HETATM   12  O   UNL     1     -10.188  11.647  69.589  1.00  0.00     0.259 OA 
HETATM   13  O   UNL     1      -8.193  11.799  67.878  1.00  0.00    -0.132 OA 
BRANCH  13  14
HETATM   14  C   UNL     1      -8.821  12.345  66.754  1.00  0.00    -0.189 C  
BRANCH  14  15
HETATM   15  O   UNL     1      -8.147  11.887  65.558  1.00  0.00     0.611 OA 
BRANCH  15  16
HETATM   16  C   UNL     1      -8.955  11.535  64.518  1.00  0.00     0.280 C  
HETATM   17  O   UNL     1      -9.542  12.341  63.805  1.00  0.00    -0.141 OA 
BRANCH  16  18
HETATM   18  C   UNL     1      -9.058  10.005  64.346  1.00  0.00    -0.289 C  
HETATM   19  C   UNL     1     -10.101   9.443  65.335  1.00  0.00     0.151 C  
HETATM   20  C   UNL     1      -7.707   9.343  64.645  1.00  0.00    -0.117 C  
HETATM   21  C   UNL     1      -9.511   9.644  62.924  1.00  0.00     0.153 C  
ENDBRANCH  16  18
ENDBRANCH  15  16
ENDBRANCH  14  15
ENDBRANCH  13  14
BRANCH  11  22
HETATM   22  O   UNL     1      -6.561  10.180  69.380  1.00  0.00    -0.046 OA 
BRANCH  22  23
HETATM   23  C   UNL     1      -6.338  10.891  68.180  1.00  0.00    -0.057 C  
BRANCH  23  24
HETATM   24  C   UNL     1      -5.168  11.841  68.394  1.00  0.00    -0.042 C  
BRANCH  24  25
HETATM   25  N   UNL     1      -5.554  12.917  69.268  1.00  0.00    -0.073 NA 
HETATM   26  C   UNL     1      -6.189  14.055  68.870  1.00  0.00    -0.089 A  
HETATM   27  N   UNL     1      -6.730  14.315  67.668  1.00  0.00    -0.178 NA 
HETATM   28  H2  UNL     1      -5.523  17.277  71.008  1.00  0.00     0.000 HD 
HETATM   29  H1  UNL     1      -6.868  18.137  70.614  1.00  0.00     0.000 HD 
HETATM   30  C   UNL     1      -5.157  13.085  70.567  1.00  0.00    -0.106 A  
HETATM   31  N   UNL     1      -5.465  14.283  71.017  1.00  0.00    -0.156 NA 
HETATM   32  C   UNL     1      -6.089  14.910  69.951  1.00  0.00    -0.140 A  
HETATM   33  C   UNL     1      -6.587  16.208  69.772  1.00  0.00    -0.137 A  
HETATM   34  N   UNL     1      -6.504  17.193  70.744  1.00  0.00     1.248 NA 
HETATM   35  N   UNL     1      -7.176  16.515  68.591  1.00  0.00    -0.175 NA 
HETATM   36  C   UNL     1      -7.215  15.571  67.624  1.00  0.00    -0.179 A  
ENDBRANCH  24  25
ENDBRANCH  23  24
ENDBRANCH  22  23
ENDBRANCH  11  22
ENDBRANCH   8   9
ENDBRANCH   7   8
ENDBRANCH   5   7
ENDBRANCH   2   5
TORSDOF 12
ENDMDL
MODEL      328
REMARK 921   NORMALIZED FREE ENERGY PREDICTED BY IDOCK:    3.79 KCAL/MOL
REMARK 922        TOTAL FREE ENERGY PREDICTED BY IDOCK:    4.86 KCAL/MOL
REMARK 923 INTER-LIGAND FREE ENERGY PREDICTED BY IDOCK:    5.57 KCAL/MOL
REMARK 924 INTRA-LIGAND FREE ENERGY PREDICTED BY IDOCK:   -0.71 KCAL/MOL
REMARK 927      BINDING AFFINITY PREDICTED BY RF-SCORE:    0.00 PKD
ROOT
HETATM    1  C   UNL     1      -5.127  11.872  65.782  1.00  0.00     1.053 C  
HETATM    2  C   UNL     1      -5.861  10.977  64.765  1.00  0.00     0.386 C  
HETATM    3  C   UNL     1      -5.141  11.082  63.415  1.00  0.00    -0.040 C  
HETATM    4  C   UNL     1      -5.809   9.527  65.271  1.00  0.00    -0.064 C  
ENDROOT
BRANCH   2   5
HETATM    5  C   UNL     1      -7.325  11.434  64.671  1.00  0.00     1.558 C  
HETATM    6  O   UNL     1      -7.668  12.495  64.158  1.00  0.00     4.533 OA 
BRANCH   5   7
HETATM    7  O   UNL     1      -8.189  10.590  65.302  1.00  0.00    -0.161 OA 
BRANCH   7   8
HETATM    8  C   UNL     1      -9.572  10.978  65.211  1.00  0.00    -0.227 C  
BRANCH   8   9
HETATM    9  O   UNL     1     -10.048  11.681  66.356  1.00  0.00    -0.205 OA 
HETATM   10  P   UNL     1     -10.622  10.740  67.554  1.00  0.00    -0.275 P  
HETATM   11  C   UNL     1      -9.201   9.765  68.103  1.00  0.00    -0.128 C  
HETATM   12  O   UNL     1     -11.837   9.955  67.175  1.00  0.00     0.978 OA 
HETATM   13  O   UNL     1     -10.775  11.699  68.838  1.00  0.00    -0.208 OA 
BRANCH  13  14
HETATM   14  C   UNL     1     -11.820  12.614  68.997  1.00  0.00    -0.294 C  
BRANCH  14  15
HETATM   15  O   UNL     1     -11.542  13.466  70.134  1.00  0.00    -0.220 OA 
BRANCH  15  16
HETATM   16  C   UNL     1     -12.380  14.529  70.298  1.00  0.00    -0.349 C  
HETATM   17  O   UNL     1     -12.994  15.064  69.382  1.00  0.00     0.256 OA 
BRANCH  16  18
HETATM   18  C   UNL     1     -12.461  14.992  71.769  1.00  0.00    -0.407 C  
HETATM   19  C   UNL     1     -11.932  13.875  72.691  1.00  0.00     0.850 C  
HETATM   20  C   UNL     1     -13.916  15.286  72.155  1.00  0.00    -0.650 C  
HETATM   21  C   UNL     1     -11.599  16.243  71.995  1.00  0.00    -0.427 C  
ENDBRANCH  16  18
ENDBRANCH  15  16
ENDBRANCH  14  15
ENDBRANCH  13  14
BRANCH  11  22
HETATM   22  O   UNL     1      -8.226  10.741  68.480  1.00  0.00    -0.121 OA 
BRANCH  22  23
HETATM   23  C   UNL     1      -7.890  10.684  69.851  1.00  0.00     0.163 C  
BRANCH  23  24
HETATM   24  C   UNL     1      -6.392  10.922  69.990  1.00  0.00    -0.142 C  
BRANCH  24  25
HETATM   25  N   UNL     1      -5.845  10.064  71.008  1.00  0.00    -0.134 NA 
HETATM   26  C   UNL     1      -5.928   8.704  71.007  1.00  0.00    -0.038 A  
HETATM   27  N   UNL     1      -6.352   7.907  70.012  1.00  0.00    -0.033 NA 
HETATM   28  H2  UNL     1      -5.928   6.946  74.516  1.00  0.00     0.000 HD 
HETATM   29  H1  UNL     1      -5.414   5.452  74.061  1.00  0.00     0.000 HD 
HETATM   30  C   UNL     1      -5.368  10.460  72.227  1.00  0.00     0.225 A  
HETATM   31  N   UNL     1      -5.176   9.434  73.029  1.00  0.00    -0.112 NA 
HETATM   32  C   UNL     1      -5.550   8.330  72.283  1.00  0.00    -0.041 A  
HETATM   33  C   UNL     1      -5.638   6.964  72.587  1.00  0.00    -0.038 A  
HETATM   34  N   UNL     1      -5.350   6.445  73.840  1.00  0.00    -0.041 NA 
HETATM   35  N   UNL     1      -6.026   6.109  71.609  1.00  0.00    -0.034 NA 
HETATM   36  C   UNL     1      -6.354   6.618  70.401  1.00  0.00    -0.043 A  
ENDBRANCH  24  25
ENDBRANCH  23  24
ENDBRANCH  22  23
ENDBRANCH  11  22
ENDBRANCH   8   9
ENDBRANCH   7   8
ENDBRANCH   5   7
ENDBRANCH   2   5
TORSDOF 12
ENDMDL
MODEL      329
REMARK 921   NORMALIZED FREE ENERGY PREDICTED BY IDOCK:    3.80 KCAL/MOL
REMARK 922        TOTAL FREE ENERGY PREDICTED BY IDOCK:    4.87 KCAL/MOL
REMARK 923 INTER-LIGAND FREE ENERGY PREDICTED BY IDOCK:   -3.80 KCAL/MOL
REMARK 924 INTRA-LIGAND FREE ENERGY PREDICTED BY IDOCK:    8.67 KCAL/MOL
REMARK 927      BINDING AFFINITY PREDICTED BY RF-SCORE:    0.00 PKD
ROOT
HETATM    1  C   UNL     1     -11.074   9.198  72.790  1.00  0.00     1.133 C  
HETATM    2  C   UNL     1     -11.983   9.546  71.595  1.00  0.00    -0.474 C  
HETATM    3  C   UNL     1     -13.254   8.693  71.685  1.00  0.00    -0.381 C  
HETATM    4  C   UNL     1     -12.348  11.036  71.684  1.00  0.00    -0.206 C  
ENDROOT
BRANCH   2   5
HETATM    5  C   UNL     1     -11.208   9.287  70.293  1.00  0.00    -0.231 C  
HETATM    6  O   UNL     1     -10.455  10.111  69.782  1.00  0.00    -0.232 OA 
BRANCH   5   7
HETATM    7  O   UNL     1     -11.521   8.092  69.716  1.00  0.00     0.035 OA 
BRANCH   7   8
HETATM    8  C   UNL     1     -10.601   7.027  70.020  1.00  0.00    -0.230 C  
BRANCH   8   9
HETATM    9  O   UNL     1      -9.499   6.945  69.120  1.00  0.00    -0.143 OA 
HETATM   10  P   UNL     1      -9.868   6.416  67.625  1.00  0.00    -0.141 P  
HETATM   11  C   UNL     1     -10.989   7.667  66.953  1.00  0.00     0.144 C  
HETATM   12  O   UNL     1     -10.373   5.010  67.589  1.00  0.00    -0.146 OA 
HETATM   13  O   UNL     1      -8.577   6.726  66.714  1.00  0.00    -0.114 OA 
BRANCH  13  14
HETATM   14  C   UNL     1      -7.409   5.957  66.744  1.00  0.00    -0.079 C  
BRANCH  14  15
HETATM   15  O   UNL     1      -7.174   5.496  68.096  1.00  0.00    -0.069 OA 
BRANCH  15  16
HETATM   16  C   UNL     1      -6.541   6.376  68.922  1.00  0.00    -0.048 C  
HETATM   17  O   UNL     1      -6.044   6.068  69.999  1.00  0.00    -0.024 OA 
BRANCH  16  18
HETATM   18  C   UNL     1      -6.529   7.811  68.352  1.00  0.00    -0.053 C  
HETATM   19  C   UNL     1      -5.155   8.461  68.620  1.00  0.00    -0.029 C  
HETATM   20  C   UNL     1      -7.605   8.664  69.035  1.00  0.00    -0.090 C  
HETATM   21  C   UNL     1      -6.760   7.798  66.834  1.00  0.00    -0.067 C  
ENDBRANCH  16  18
ENDBRANCH  15  16
ENDBRANCH  14  15
ENDBRANCH  13  14
BRANCH  11  22
HETATM   22  O   UNL     1     -10.245   8.886  67.025  1.00  0.00    -0.231 OA 
BRANCH  22  23
HETATM   23  C   UNL     1      -9.888   9.391  65.755  1.00  0.00    -0.275 C  
BRANCH  23  24
HETATM   24  C   UNL     1     -10.906  10.452  65.356  1.00  0.00     0.283 C  
BRANCH  24  25
HETATM   25  N   UNL     1     -11.034  11.435  66.400  1.00  0.00    -0.282 NA 
HETATM   26  C   UNL     1     -10.490  12.683  66.365  1.00  0.00    -0.249 A  
HETATM   27  N   UNL     1      -9.907  13.296  65.322  1.00  0.00    -0.142 NA 
HETATM   28  H2  UNL     1      -9.582  14.298  69.825  1.00  0.00     0.000 HD 
HETATM   29  H1  UNL     1      -9.589  15.882  69.386  1.00  0.00     0.000 HD 
HETATM   30  C   UNL     1     -11.511  11.214  67.663  1.00  0.00    -0.250 A  
HETATM   31  N   UNL     1     -11.268  12.235  68.457  1.00  0.00    -0.249 NA 
HETATM   32  C   UNL     1     -10.604  13.151  67.661  1.00  0.00    -0.228 A  
HETATM   33  C   UNL     1     -10.026  14.401  67.928  1.00  0.00    -0.228 A  
HETATM   34  N   UNL     1     -10.009  14.973  69.191  1.00  0.00    -0.235 NA 
HETATM   35  N   UNL     1      -9.455  15.080  66.904  1.00  0.00    -0.227 NA 
HETATM   36  C   UNL     1      -9.428  14.502  65.682  1.00  0.00    -0.036 A  
ENDBRANCH  24  25
ENDBRANCH  23  24
ENDBRANCH  22  23
ENDBRANCH  11  22
ENDBRANCH   8   9
ENDBRANCH   7   8
ENDBRANCH   5   7
ENDBRANCH   2   5
TORSDOF 12
ENDMDL
MODEL      330
REMARK 921   NORMALIZED FREE ENERGY PREDICTED BY IDOCK:    5.35 KCAL/MOL
REMARK 922        TOTAL FREE ENERGY PREDICTED BY IDOCK:    7.51 KCAL/MOL
REMARK 923 INTER-LIGAND FREE ENERGY PREDICTED BY IDOCK:    0.89 KCAL/MOL
REMARK 924 INTRA-LIGAND FREE ENERGY PREDICTED BY IDOCK:    6.62 KCAL/MOL
REMARK 927      BINDING AFFINITY PREDICTED BY RF-SCORE:    0.00 PKD
ROOT
HETATM    1  C   UNL     1      -7.134   7.087  68.906  1.00  0.00    -0.085 C  
HETATM    2  C   UNL     1      -7.728   8.489  68.664  1.00  0.00    -0.103 C  
HETATM    3  C   UNL     1      -7.250   8.990  67.296  1.00  0.00    -0.083 C  
HETATM    4  C   UNL     1      -9.260   8.372  68.670  1.00  0.00    -0.143 C  
ENDROOT
BRANCH   2   5
HETATM    5  C   UNL     1      -7.282   9.418  69.804  1.00  0.00    -0.076 C  
HETATM    6  O   UNL     1      -7.168   9.048  70.969  1.00  0.00    -0.091 OA 
BRANCH   5   7
HETATM    7  O   UNL     1      -7.124  10.712  69.406  1.00  0.00    -0.092 OA 
BRANCH   7   8
HETATM    8  C   UNL     1      -8.356  11.446  69.270  1.00  0.00     0.259 C  
BRANCH   8   9
HETATM    9  O   UNL     1      -8.180  12.859  69.221  1.00  0.00     0.454 OA 
HETATM   10  P   UNL     1      -6.702  13.386  69.654  1.00  0.00     0.234 P  
HETATM   11  C   UNL     1      -5.579  12.685  68.421  1.00  0.00    -0.060 C  
HETATM   12  O   UNL     1      -6.354  13.103  71.080  1.00  0.00     0.048 OA 
HETATM   13  O   UNL     1      -6.632  14.930  69.204  1.00  0.00    -0.103 OA 
BRANCH  13  14
HETATM   14  C   UNL     1      -7.254  15.967  69.905  1.00  0.00     0.205 C  
BRANCH  14  15
HETATM   15  O   UNL     1      -8.527  15.505  70.415  1.00  0.00     0.613 OA 
BRANCH  15  16
HETATM   16  C   UNL     1      -9.524  15.376  69.494  1.00  0.00    -0.249 C  
HETATM   17  O   UNL     1      -9.519  14.546  68.591  1.00  0.00    -0.204 OA 
BRANCH  16  18
HETATM   18  C   UNL     1     -10.658  16.401  69.708  1.00  0.00    -0.288 C  
HETATM   19  C   UNL     1     -11.423  16.061  71.004  1.00  0.00    -0.460 C  
HETATM   20  C   UNL     1     -11.648  16.353  68.538  1.00  0.00    -0.100 C  
HETATM   21  C   UNL     1     -10.091  17.821  69.851  1.00  0.00     0.660 C  
ENDBRANCH  16  18
ENDBRANCH  15  16
ENDBRANCH  14  15
ENDBRANCH  13  14
BRANCH  11  22
HETATM   22  O   UNL     1      -6.079  13.167  67.171  1.00  0.00    -0.301 OA 
BRANCH  22  23
HETATM   23  C   UNL     1      -7.373  13.725  67.272  1.00  0.00     0.002 C  
BRANCH  23  24
HETATM   24  C   UNL     1      -7.669  14.489  65.989  1.00  0.00     3.013 C  
BRANCH  24  25
HETATM   25  N   UNL     1      -8.199  15.792  66.297  1.00  0.00    -0.171 NA 
HETATM   26  C   UNL     1      -9.332  16.320  65.756  1.00  0.00    -0.159 A  
HETATM   27  N   UNL     1     -10.250  15.694  65.001  1.00  0.00    -0.437 NA 
HETATM   28  H2  UNL     1      -9.479  20.231  65.463  1.00  0.00     0.000 HD 
HETATM   29  H1  UNL     1     -11.109  20.428  65.394  1.00  0.00     0.000 HD 
HETATM   30  C   UNL     1      -7.555  16.783  66.986  1.00  0.00    -0.200 A  
HETATM   31  N   UNL     1      -8.188  17.933  66.886  1.00  0.00    -0.229 NA 
HETATM   32  C   UNL     1      -9.290  17.660  66.093  1.00  0.00    -0.136 A  
HETATM   33  C   UNL     1     -10.309  18.469  65.571  1.00  0.00     0.161 A  
HETATM   34  N   UNL     1     -10.368  19.840  65.774  1.00  0.00    -0.469 NA 
HETATM   35  N   UNL     1     -11.282  17.884  64.831  1.00  0.00    -0.411 NA 
HETATM   36  C   UNL     1     -11.201  16.556  64.593  1.00  0.00    -0.115 A  
ENDBRANCH  24  25
ENDBRANCH  23  24
ENDBRANCH  22  23
ENDBRANCH  11  22
ENDBRANCH   8   9
ENDBRANCH   7   8
ENDBRANCH   5   7
ENDBRANCH   2   5
TORSDOF 12
ENDMDL
MODEL      331
REMARK 921   NORMALIZED FREE ENERGY PREDICTED BY IDOCK:    7.44 KCAL/MOL
REMARK 922        TOTAL FREE ENERGY PREDICTED BY IDOCK:   11.07 KCAL/MOL
REMARK 923 INTER-LIGAND FREE ENERGY PREDICTED BY IDOCK:   -3.58 KCAL/MOL
REMARK 924 INTRA-LIGAND FREE ENERGY PREDICTED BY IDOCK:   14.64 KCAL/MOL
REMARK 927      BINDING AFFINITY PREDICTED BY RF-SCORE:    0.00 PKD
ROOT
HETATM    1  C   UNL     1      -5.752   9.401  63.755  1.00  0.00    -0.080 C  
HETATM    2  C   UNL     1      -6.983  10.317  63.899  1.00  0.00    -0.055 C  
HETATM    3  C   UNL     1      -6.657  11.413  64.920  1.00  0.00     1.523 C  
HETATM    4  C   UNL     1      -7.275  10.951  62.530  1.00  0.00     0.004 C  
ENDROOT
BRANCH   2   5
HETATM    5  C   UNL     1      -8.185   9.465  64.335  1.00  0.00    -0.147 C  
HETATM    6  O   UNL     1      -8.129   8.631  65.233  1.00  0.00    -0.119 OA 
BRANCH   5   7
HETATM    7  O   UNL     1      -9.287   9.661  63.557  1.00  0.00    -0.206 OA 
BRANCH   7   8
HETATM    8  C   UNL     1     -10.315  10.460  64.173  1.00  0.00     0.074 C  
BRANCH   8   9
HETATM    9  O   UNL     1     -10.756   9.957  65.431  1.00  0.00     0.203 OA 
HETATM   10  P   UNL     1      -9.582   9.348  66.381  1.00  0.00    -0.264 P  
HETATM   11  C   UNL     1      -8.499  10.751  66.740  1.00  0.00    -0.134 C  
HETATM   12  O   UNL     1      -8.909   8.141  65.811  1.00  0.00    -0.156 OA 
HETATM   13  O   UNL     1     -10.241   9.165  67.839  1.00  0.00    -0.192 OA 
BRANCH  13  14
HETATM   14  C   UNL     1     -11.109   8.119  68.167  1.00  0.00     0.392 C  
BRANCH  14  15
HETATM   15  O   UNL     1     -11.600   8.308  69.515  1.00  0.00     0.316 OA 
BRANCH  15  16
HETATM   16  C   UNL     1     -12.241   9.488  69.753  1.00  0.00     0.620 C  
HETATM   17  O   UNL     1     -12.463  10.332  68.891  1.00  0.00     0.118 OA 
BRANCH  16  18
HETATM   18  C   UNL     1     -12.647   9.648  71.234  1.00  0.00    -0.443 C  
HETATM   19  C   UNL     1     -13.982   8.918  71.484  1.00  0.00    -0.365 C  
HETATM   20  C   UNL     1     -12.838  11.131  71.576  1.00  0.00    -0.542 C  
HETATM   21  C   UNL     1     -11.588   9.033  72.160  1.00  0.00    -0.348 C  
ENDBRANCH  16  18
ENDBRANCH  15  16
ENDBRANCH  14  15
ENDBRANCH  13  14
BRANCH  11  22
HETATM   22  O   UNL     1      -9.361  11.719  67.345  1.00  0.00    -0.170 OA 
BRANCH  22  23
HETATM   23  C   UNL     1      -9.141  13.030  66.867  1.00  0.00    -0.227 C  
BRANCH  23  24
HETATM   24  C   UNL     1      -8.448  13.831  67.960  1.00  0.00    -0.176 C  
BRANCH  24  25
HETATM   25  N   UNL     1      -8.938  15.185  67.970  1.00  0.00    -0.170 NA 
HETATM   26  C   UNL     1      -9.681  15.751  66.979  1.00  0.00    -0.228 A  
HETATM   27  N   UNL     1     -10.245  15.140  65.924  1.00  0.00    -0.301 NA 
HETATM   28  H2  UNL     1      -9.333  19.634  66.526  1.00  0.00     0.000 HD 
HETATM   29  H1  UNL     1     -10.755  19.938  65.759  1.00  0.00     0.000 HD 
HETATM   30  C   UNL     1      -8.559  16.175  68.836  1.00  0.00    -0.245 A  
HETATM   31  N   UNL     1      -8.982  17.355  68.437  1.00  0.00    -0.271 NA 
HETATM   32  C   UNL     1      -9.664  17.105  67.258  1.00  0.00    -0.254 A  
HETATM   33  C   UNL     1     -10.288  17.945  66.325  1.00  0.00    -0.364 A  
HETATM   34  N   UNL     1     -10.301  19.327  66.438  1.00  0.00    -0.434 NA 
HETATM   35  N   UNL     1     -10.904  17.380  65.258  1.00  0.00    -0.547 NA 
HETATM   36  C   UNL     1     -10.851  16.036  65.121  1.00  0.00    -0.395 A  
ENDBRANCH  24  25
ENDBRANCH  23  24
ENDBRANCH  22  23
ENDBRANCH  11  22
ENDBRANCH   8   9
ENDBRANCH   7   8
ENDBRANCH   5   7
ENDBRANCH   2   5
TORSDOF 12
ENDMDL
MODEL      332
REMARK 921   NORMALIZED FREE ENERGY PREDICTED BY IDOCK:    7.59 KCAL/MOL
REMARK 922        TOTAL FREE ENERGY PREDICTED BY IDOCK:   11.31 KCAL/MOL
REMARK 923 INTER-LIGAND FREE ENERGY PREDICTED BY IDOCK:    7.43 KCAL/MOL
REMARK 924 INTRA-LIGAND FREE ENERGY PREDICTED BY IDOCK:    3.88 KCAL/MOL
REMARK 927      BINDING AFFINITY PREDICTED BY RF-SCORE:    0.00 PKD
ROOT
HETATM    1  C   UNL     1      -8.147  12.749  70.252  1.00  0.00     3.927 C  
HETATM    2  C   UNL     1      -8.793  11.771  69.252  1.00  0.00     0.602 C  
HETATM    3  C   UNL     1      -9.565  10.706  70.040  1.00  0.00     0.465 C  
HETATM    4  C   UNL     1      -9.762  12.563  68.360  1.00  0.00    -0.189 C  
ENDROOT
BRANCH   2   5
HETATM    5  C   UNL     1      -7.688  11.152  68.381  1.00  0.00    -0.125 C  
HETATM    6  O   UNL     1      -7.212  11.712  67.398  1.00  0.00    -0.109 OA 
BRANCH   5   7
HETATM    7  O   UNL     1      -7.364   9.882  68.754  1.00  0.00    -0.074 OA 
BRANCH   7   8
HETATM    8  C   UNL     1      -8.430   9.164  69.404  1.00  0.00    -0.130 C  
BRANCH   8   9
HETATM    9  O   UNL     1      -8.780   7.945  68.756  1.00  0.00    -0.128 OA 
HETATM   10  P   UNL     1     -10.041   7.151  69.412  1.00  0.00    -0.185 P  
HETATM   11  C   UNL     1     -11.450   8.265  69.208  1.00  0.00     0.639 C  
HETATM   12  O   UNL     1      -9.792   6.672  70.806  1.00  0.00    -0.182 OA 
HETATM   13  O   UNL     1     -10.460   6.023  68.343  1.00  0.00    -0.188 OA 
BRANCH  13  14
HETATM   14  C   UNL     1      -9.750   4.832  68.160  1.00  0.00    -0.143 C  
BRANCH  14  15
HETATM   15  O   UNL     1      -9.120   4.846  66.857  1.00  0.00    -0.116 OA 
BRANCH  15  16
HETATM   16  C   UNL     1      -9.819   4.244  65.853  1.00  0.00    -0.223 C  
HETATM   17  O   UNL     1     -10.740   4.779  65.244  1.00  0.00    -0.121 OA 
BRANCH  16  18
HETATM   18  C   UNL     1      -9.329   2.807  65.574  1.00  0.00    -0.063 C  
HETATM   19  C   UNL     1     -10.151   1.809  66.414  1.00  0.00     1.487 C  
HETATM   20  C   UNL     1      -7.853   2.663  65.965  1.00  0.00    -0.081 C  
HETATM   21  C   UNL     1      -9.512   2.445  64.093  1.00  0.00    -0.134 C  
ENDBRANCH  16  18
ENDBRANCH  15  16
ENDBRANCH  14  15
ENDBRANCH  13  14
BRANCH  11  22
HETATM   22  O   UNL     1     -11.517   8.498  67.798  1.00  0.00     0.751 OA 
BRANCH  22  23
HETATM   23  C   UNL     1     -10.316   9.018  67.267  1.00  0.00    -0.273 C  
BRANCH  23  24
HETATM   24  C   UNL     1     -10.191   8.559  65.821  1.00  0.00     0.860 C  
BRANCH  24  25
HETATM   25  N   UNL     1      -9.230   9.372  65.122  1.00  0.00    -0.236 NA 
HETATM   26  C   UNL     1      -7.879   9.279  65.268  1.00  0.00    -0.105 A  
HETATM   27  N   UNL     1      -7.187   8.330  65.920  1.00  0.00    -0.071 NA 
HETATM   28  H2  UNL     1      -5.817  12.561  64.650  1.00  0.00     0.000 HD 
HETATM   29  H1  UNL     1      -4.355  11.892  64.309  1.00  0.00     0.000 HD 
HETATM   30  C   UNL     1      -9.502  10.497  64.392  1.00  0.00    -0.281 A  
HETATM   31  N   UNL     1      -8.404  11.157  64.093  1.00  0.00     0.309 NA 
HETATM   32  C   UNL     1      -7.382  10.417  64.661  1.00  0.00    -0.026 A  
HETATM   33  C   UNL     1      -5.997  10.621  64.752  1.00  0.00    -0.010 A  
HETATM   34  N   UNL     1      -5.362  11.744  64.244  1.00  0.00     1.672 NA 
HETATM   35  N   UNL     1      -5.245   9.677  65.368  1.00  0.00    -0.039 NA 
HETATM   36  C   UNL     1      -5.869   8.605  65.906  1.00  0.00    -0.047 A  
ENDBRANCH  24  25
ENDBRANCH  23  24
ENDBRANCH  22  23
ENDBRANCH  11  22
ENDBRANCH   8   9
ENDBRANCH   7   8
ENDBRANCH   5   7
ENDBRANCH   2   5
TORSDOF 12
ENDMDL
MODEL      333
REMARK 921   NORMALIZED FREE ENERGY PREDICTED BY IDOCK:   13.63 KCAL/MOL
REMARK 922        TOTAL FREE ENERGY PREDICTED BY IDOCK:   21.59 KCAL/MOL
REMARK 923 INTER-LIGAND FREE ENERGY PREDICTED BY IDOCK:   10.82 KCAL/MOL
REMARK 924 INTRA-LIGAND FREE ENERGY PREDICTED BY IDOCK:   10.77 KCAL/MOL
REMARK 927      BINDING AFFINITY PREDICTED BY RF-SCORE:    0.00 PKD
ROOT
HETATM    1  C   UNL     1      -9.581   4.280  70.203  1.00  0.00    -0.269 C  
HETATM    2  C   UNL     1      -9.878   5.791  70.144  1.00  0.00    -0.240 C  
HETATM    3  C   UNL     1     -10.899   6.130  71.237  1.00  0.00    -0.322 C  
HETATM    4  C   UNL     1      -8.568   6.552  70.402  1.00  0.00    -0.146 C  
ENDROOT
BRANCH   2   5
HETATM    5  C   UNL     1     -10.402   6.137  68.741  1.00  0.00    -0.209 C  
HETATM    6  O   UNL     1     -10.199   5.436  67.755  1.00  0.00    -0.177 OA 
BRANCH   5   7
HETATM    7  O   UNL     1     -11.026   7.348  68.689  1.00  0.00    -0.092 OA 
BRANCH   7   8
HETATM    8  C   UNL     1     -10.229   8.448  69.170  1.00  0.00    -0.211 C  
BRANCH   8   9
HETATM    9  O   UNL     1      -9.968   9.442  68.183  1.00  0.00    -0.162 OA 
HETATM   10  P   UNL     1      -9.948  10.973  68.734  1.00  0.00    -0.167 P  
HETATM   11  C   UNL     1      -8.565  11.030  69.900  1.00  0.00     1.017 C  
HETATM   12  O   UNL     1     -11.263  11.440  69.269  1.00  0.00    -0.240 OA 
HETATM   13  O   UNL     1      -9.311  11.862  67.553  1.00  0.00    -0.171 OA 
BRANCH  13  14
HETATM   14  C   UNL     1     -10.017  12.239  66.405  1.00  0.00    -0.228 C  
BRANCH  14  15
HETATM   15  O   UNL     1      -9.891  11.202  65.403  1.00  0.00    -0.217 OA 
BRANCH  15  16
HETATM   16  C   UNL     1      -8.626  10.962  64.953  1.00  0.00    -0.026 C  
HETATM   17  O   UNL     1      -7.920  10.044  65.353  1.00  0.00    -0.129 OA 
BRANCH  16  18
HETATM   18  C   UNL     1      -8.178  11.986  63.887  1.00  0.00     2.339 C  
HETATM   19  C   UNL     1      -8.955  13.305  64.080  1.00  0.00     3.793 C  
HETATM   20  C   UNL     1      -8.475  11.453  62.480  1.00  0.00    -0.032 C  
HETATM   21  C   UNL     1      -6.680  12.293  64.022  1.00  0.00     6.999 C  
ENDBRANCH  16  18
ENDBRANCH  15  16
ENDBRANCH  14  15
ENDBRANCH  13  14
BRANCH  11  22
HETATM   22  O   UNL     1      -7.433  10.623  69.127  1.00  0.00    -0.101 OA 
BRANCH  22  23
HETATM   23  C   UNL     1      -7.367  11.258  67.867  1.00  0.00    -0.092 C  
BRANCH  23  24
HETATM   24  C   UNL     1      -6.674  12.602  68.041  1.00  0.00    -0.095 C  
BRANCH  24  25
HETATM   25  N   UNL     1      -7.520  13.506  68.774  1.00  0.00    -0.099 NA 
HETATM   26  C   UNL     1      -8.527  14.245  68.230  1.00  0.00    -0.167 A  
HETATM   27  N   UNL     1      -9.039  14.150  66.992  1.00  0.00    -0.234 NA 
HETATM   28  H2  UNL     1      -9.362  17.647  70.001  1.00  0.00     0.000 HD 
HETATM   29  H1  UNL     1     -10.906  17.846  69.473  1.00  0.00     0.000 HD 
HETATM   30  C   UNL     1      -7.318  13.942  70.056  1.00  0.00     0.658 A  
HETATM   31  N   UNL     1      -8.111  14.949  70.356  1.00  0.00     0.772 NA 
HETATM   32  C   UNL     1      -8.855  15.165  69.208  1.00  0.00    -0.207 A  
HETATM   33  C   UNL     1      -9.818  16.126  68.867  1.00  0.00    -0.239 A  
HETATM   34  N   UNL     1     -10.206  17.147  69.721  1.00  0.00     0.035 NA 
HETATM   35  N   UNL     1     -10.394  16.056  67.643  1.00  0.00    -0.277 NA 
HETATM   36  C   UNL     1      -9.982  15.090  66.791  1.00  0.00    -0.248 A  
ENDBRANCH  24  25
ENDBRANCH  23  24
ENDBRANCH  22  23
ENDBRANCH  11  22
ENDBRANCH   8   9
ENDBRANCH   7   8
ENDBRANCH   5   7
ENDBRANCH   2   5
TORSDOF 12
ENDMDL
MODEL      334
REMARK 921   NORMALIZED FREE ENERGY PREDICTED BY IDOCK:   16.76 KCAL/MOL
REMARK 922        TOTAL FREE ENERGY PREDICTED BY IDOCK:   26.92 KCAL/MOL
REMARK 923 INTER-LIGAND FREE ENERGY PREDICTED BY IDOCK:    5.21 KCAL/MOL
REMARK 924 INTRA-LIGAND FREE ENERGY PREDICTED BY IDOCK:   21.72 KCAL/MOL
REMARK 927      BINDING AFFINITY PREDICTED BY RF-SCORE:    0.00 PKD
ROOT
HETATM    1  C   UNL     1      -5.351  12.172  66.194  1.00  0.00     1.099 C  
HETATM    2  C   UNL     1      -6.574  11.252  66.013  1.00  0.00     0.115 C  
HETATM    3  C   UNL     1      -7.835  12.122  65.960  1.00  0.00     0.847 C  
HETATM    4  C   UNL     1      -6.412  10.488  64.689  1.00  0.00     0.023 C  
ENDROOT
BRANCH   2   5
HETATM    5  C   UNL     1      -6.616  10.250  67.178  1.00  0.00    -0.073 C  
HETATM    6  O   UNL     1      -7.319  10.403  68.173  1.00  0.00    -0.086 OA 
BRANCH   5   7
HETATM    7  O   UNL     1      -5.721   9.232  67.040  1.00  0.00    -0.044 OA 
BRANCH   7   8
HETATM    8  C   UNL     1      -6.296   7.917  67.153  1.00  0.00    -0.055 C  
BRANCH   8   9
HETATM    9  O   UNL     1      -7.446   7.864  67.991  1.00  0.00    -0.102 OA 
HETATM   10  P   UNL     1      -7.222   8.413  69.507  1.00  0.00    -0.062 P  
HETATM   11  C   UNL     1      -6.809  10.163  69.312  1.00  0.00    -0.063 C  
HETATM   12  O   UNL     1      -6.250   7.605  70.305  1.00  0.00    -0.033 OA 
HETATM   13  O   UNL     1      -8.692   8.575  70.143  1.00  0.00    -0.130 OA 
BRANCH  13  14
HETATM   14  C   UNL     1      -9.458   7.498  70.600  1.00  0.00    -0.164 C  
BRANCH  14  15
HETATM   15  O   UNL     1     -10.829   7.927  70.779  1.00  0.00    -0.224 OA 
BRANCH  15  16
HETATM   16  C   UNL     1     -11.738   6.934  70.997  1.00  0.00    -0.345 C  
HETATM   17  O   UNL     1     -11.556   5.761  70.691  1.00  0.00    -0.059 OA 
BRANCH  16  18
HETATM   18  C   UNL     1     -13.029   7.455  71.664  1.00  0.00    -0.409 C  
HETATM   19  C   UNL     1     -12.911   8.975  71.898  1.00  0.00    -0.451 C  
HETATM   20  C   UNL     1     -13.238   6.774  73.023  1.00  0.00     1.841 C  
HETATM   21  C   UNL     1     -14.248   7.206  70.764  1.00  0.00     0.601 C  
ENDBRANCH  16  18
ENDBRANCH  15  16
ENDBRANCH  14  15
ENDBRANCH  13  14
BRANCH  11  22
HETATM   22  O   UNL     1      -7.921  10.713  68.600  1.00  0.00    -0.112 OA 
BRANCH  22  23
HETATM   23  C   UNL     1      -8.810  11.430  69.432  1.00  0.00     0.545 C  
BRANCH  23  24
HETATM   24  C   UNL     1      -8.165  12.762  69.790  1.00  0.00     2.083 C  
BRANCH  24  25
HETATM   25  N   UNL     1      -8.696  13.811  68.960  1.00  0.00     0.165 NA 
HETATM   26  C   UNL     1      -9.528  14.799  69.391  1.00  0.00     0.013 A  
HETATM   27  N   UNL     1      -9.861  15.098  70.658  1.00  0.00     0.482 NA 
HETATM   28  H2  UNL     1     -12.009  16.287  66.739  1.00  0.00     0.000 HD 
HETATM   29  H1  UNL     1     -12.305  17.743  67.443  1.00  0.00     0.000 HD 
HETATM   30  C   UNL     1      -8.648  13.862  67.593  1.00  0.00    -0.190 A  
HETATM   31  N   UNL     1      -9.435  14.803  67.116  1.00  0.00    -0.220 NA 
HETATM   32  C   UNL     1     -10.013  15.379  68.234  1.00  0.00    -0.214 A  
HETATM   33  C   UNL     1     -10.981  16.382  68.394  1.00  0.00    -0.353 A  
HETATM   34  N   UNL     1     -11.601  17.013  67.327  1.00  0.00     0.664 NA 
HETATM   35  N   UNL     1     -11.329  16.748  69.651  1.00  0.00     0.081 NA 
HETATM   36  C   UNL     1     -10.760  16.100  70.693  1.00  0.00     0.034 A  
ENDBRANCH  24  25
ENDBRANCH  23  24
ENDBRANCH  22  23
ENDBRANCH  11  22
ENDBRANCH   8   9
ENDBRANCH   7   8
ENDBRANCH   5   7
ENDBRANCH   2   5
TORSDOF 12
ENDMDL
MODEL      335
REMARK 921   NORMALIZED FREE ENERGY PREDICTED BY IDOCK:   24.52 KCAL/MOL
REMARK 922        TOTAL FREE ENERGY PREDICTED BY IDOCK:   40.12 KCAL/MOL
REMARK 923 INTER-LIGAND FREE ENERGY PREDICTED BY IDOCK:   35.50 KCAL/MOL
REMARK 924 INTRA-LIGAND FREE ENERGY PREDICTED BY IDOCK:    4.62 KCAL/MOL
REMARK 927      BINDING AFFINITY PREDICTED BY RF-SCORE:    0.00 PKD
ROOT
HETATM    1  C   UNL     1     -11.193  17.564  71.620  1.00  0.00     1.932 C  
HETATM    2  C   UNL     1      -9.989  17.815  70.692  1.00  0.00     2.647 C  
HETATM    3  C   UNL     1     -10.508  18.014  69.263  1.00  0.00     0.179 C  
HETATM    4  C   UNL     1      -9.270  19.087  71.167  1.00  0.00     4.294 C  
ENDROOT
BRANCH   2   5
HETATM    5  C   UNL     1      -9.029  16.618  70.793  1.00  0.00     4.115 C  
HETATM    6  O   UNL     1      -8.016  16.624  71.485  1.00  0.00     6.715 OA 
BRANCH   5   7
HETATM    7  O   UNL     1      -9.366  15.594  69.960  1.00  0.00    -0.125 OA 
BRANCH   7   8
HETATM    8  C   UNL     1     -10.204  15.978  68.854  1.00  0.00    -0.231 C  
BRANCH   8   9
HETATM    9  O   UNL     1      -9.782  15.447  67.601  1.00  0.00    -0.211 OA 
HETATM   10  P   UNL     1     -10.625  14.155  67.080  1.00  0.00    -0.282 P  
HETATM   11  C   UNL     1     -12.310  14.766  66.838  1.00  0.00     0.188 C  
HETATM   12  O   UNL     1     -10.493  12.954  67.960  1.00  0.00    -0.218 OA 
HETATM   13  O   UNL     1     -10.213  13.949  65.538  1.00  0.00    -0.311 OA 
BRANCH  13  14
HETATM   14  C   UNL     1      -9.002  13.377  65.133  1.00  0.00     1.629 C  
BRANCH  14  15
HETATM   15  O   UNL     1      -9.268  12.142  64.426  1.00  0.00     0.255 OA 
BRANCH  15  16
HETATM   16  C   UNL     1     -10.436  12.100  63.723  1.00  0.00    -0.437 C  
HETATM   17  O   UNL     1     -10.777  12.953  62.911  1.00  0.00     0.482 OA 
BRANCH  16  18
HETATM   18  C   UNL     1     -11.288  10.861  64.073  1.00  0.00     0.610 C  
HETATM   19  C   UNL     1     -12.512  10.795  63.136  1.00  0.00     2.817 C  
HETATM   20  C   UNL     1     -11.792  10.952  65.518  1.00  0.00     1.535 C  
HETATM   21  C   UNL     1     -10.477   9.570  63.885  1.00  0.00     3.143 C  
ENDBRANCH  16  18
ENDBRANCH  15  16
ENDBRANCH  14  15
ENDBRANCH  13  14
BRANCH  11  22
HETATM   22  O   UNL     1     -12.167  15.842  65.907  1.00  0.00     1.048 OA 
BRANCH  22  23
HETATM   23  C   UNL     1     -11.104  16.714  66.230  1.00  0.00     0.279 C  
BRANCH  23  24
HETATM   24  C   UNL     1     -10.285  16.963  64.971  1.00  0.00     0.548 C  
BRANCH  24  25
HETATM   25  N   UNL     1      -9.192  17.855  65.257  1.00  0.00     0.847 NA 
HETATM   26  C   UNL     1      -7.948  17.462  65.650  1.00  0.00     0.513 A  
HETATM   27  N   UNL     1      -7.450  16.214  65.671  1.00  0.00     1.533 NA 
HETATM   28  H2  UNL     1      -5.940  19.979  67.893  1.00  0.00     0.000 HD 
HETATM   29  H1  UNL     1      -4.416  19.441  67.593  1.00  0.00     0.000 HD 
HETATM   30  C   UNL     1      -9.275  19.213  65.403  1.00  0.00     1.240 A  
HETATM   31  N   UNL     1      -8.167  19.713  65.908  1.00  0.00    -0.417 NA 
HETATM   32  C   UNL     1      -7.338  18.620  66.092  1.00  0.00    -0.259 A  
HETATM   33  C   UNL     1      -6.059  18.481  66.650  1.00  0.00    -0.156 A  
HETATM   34  N   UNL     1      -5.347  19.542  67.188  1.00  0.00    -0.162 NA 
HETATM   35  N   UNL     1      -5.492  17.250  66.665  1.00  0.00    -0.176 NA 
HETATM   36  C   UNL     1      -6.204  16.207  66.184  1.00  0.00     1.930 A  
ENDBRANCH  24  25
ENDBRANCH  23  24
ENDBRANCH  22  23
ENDBRANCH  11  22
ENDBRANCH   8   9
ENDBRANCH   7   8
ENDBRANCH   5   7
ENDBRANCH   2   5
TORSDOF 12
ENDMDL
MODEL      336
REMARK 921   NORMALIZED FREE ENERGY PREDICTED BY IDOCK:   41.48 KCAL/MOL
REMARK 922        TOTAL FREE ENERGY PREDICTED BY IDOCK:   68.98 KCAL/MOL
REMARK 923 INTER-LIGAND FREE ENERGY PREDICTED BY IDOCK:   24.00 KCAL/MOL
REMARK 924 INTRA-LIGAND FREE ENERGY PREDICTED BY IDOCK:   44.99 KCAL/MOL
REMARK 927      BINDING AFFINITY PREDICTED BY RF-SCORE:    0.00 PKD
ROOT
HETATM    1  C   UNL     1      -9.116   9.287  68.768  1.00  0.00    -0.136 C  
HETATM    2  C   UNL     1      -9.545  10.129  67.550  1.00  0.00    -0.180 C  
HETATM    3  C   UNL     1      -9.327  11.611  67.882  1.00  0.00    -0.174 C  
HETATM    4  C   UNL     1      -8.668   9.729  66.354  1.00  0.00    -0.144 C  
ENDROOT
BRANCH   2   5
HETATM    5  C   UNL     1     -11.016   9.823  67.231  1.00  0.00    -0.072 C  
HETATM    6  O   UNL     1     -11.366   9.055  66.339  1.00  0.00     1.185 OA 
BRANCH   5   7
HETATM    7  O   UNL     1     -11.888  10.565  67.970  1.00  0.00    -0.425 OA 
BRANCH   7   8
HETATM    8  C   UNL     1     -11.265  11.565  68.796  1.00  0.00    -0.249 C  
BRANCH   8   9
HETATM    9  O   UNL     1     -12.190  12.368  69.523  1.00  0.00    -0.208 OA 
HETATM   10  P   UNL     1     -11.518  13.474  70.511  1.00  0.00     0.765 P  
HETATM   11  C   UNL     1     -10.619  14.594  69.411  1.00  0.00    -0.196 C  
HETATM   12  O   UNL     1     -10.718  12.881  71.625  1.00  0.00     5.437 OA 
HETATM   13  O   UNL     1     -12.712  14.462  70.948  1.00  0.00    -0.321 OA 
BRANCH  13  14
HETATM   14  C   UNL     1     -13.676  14.131  71.905  1.00  0.00    -0.437 C  
BRANCH  14  15
HETATM   15  O   UNL     1     -14.374  12.933  71.488  1.00  0.00     0.904 OA 
BRANCH  15  16
HETATM   16  C   UNL     1     -13.663  12.075  70.703  1.00  0.00     2.120 C  
HETATM   17  O   UNL     1     -13.687  12.087  69.477  1.00  0.00     3.044 OA 
BRANCH  16  18
HETATM   18  C   UNL     1     -12.828  11.075  71.533  1.00  0.00    -0.555 C  
HETATM   19  C   UNL     1     -11.556  10.690  70.749  1.00  0.00    -0.388 C  
HETATM   20  C   UNL     1     -13.635   9.799  71.798  1.00  0.00    -0.397 C  
HETATM   21  C   UNL     1     -12.392  11.702  72.865  1.00  0.00     4.543 C  
ENDBRANCH  16  18
ENDBRANCH  15  16
ENDBRANCH  14  15
ENDBRANCH  13  14
BRANCH  11  22
HETATM   22  O   UNL     1     -11.615  15.079  68.507  1.00  0.00    -0.302 OA 
BRANCH  22  23
HETATM   23  C   UNL     1     -12.877  14.473  68.698  1.00  0.00     1.117 C  
BRANCH  23  24
HETATM   24  C   UNL     1     -12.969  13.256  67.788  1.00  0.00     2.290 C  
BRANCH  24  25
HETATM   25  N   UNL     1     -11.989  13.345  66.737  1.00  0.00    -0.396 NA 
HETATM   26  C   UNL     1     -11.149  14.400  66.543  1.00  0.00    -0.331 A  
HETATM   27  N   UNL     1     -10.940  15.445  67.362  1.00  0.00    -0.311 NA 
HETATM   28  H2  UNL     1      -9.977  15.054  62.855  1.00  0.00     0.000 HD 
HETATM   29  H1  UNL     1      -8.602  15.902  63.163  1.00  0.00     0.000 HD 
HETATM   30  C   UNL     1     -11.892  12.519  65.650  1.00  0.00    -0.438 A  
HETATM   31  N   UNL     1     -11.067  13.003  64.747  1.00  0.00    -0.309 NA 
HETATM   32  C   UNL     1     -10.616  14.197  65.284  1.00  0.00    -0.373 A  
HETATM   33  C   UNL     1      -9.775  15.204  64.790  1.00  0.00     0.687 A  
HETATM   34  N   UNL     1      -9.214  15.169  63.522  1.00  0.00     8.994 NA 
HETATM   35  N   UNL     1      -9.501  16.265  65.587  1.00  0.00    -0.469 NA 
HETATM   36  C   UNL     1     -10.086  16.325  66.805  1.00  0.00    -0.278 A  
ENDBRANCH  24  25
ENDBRANCH  23  24
ENDBRANCH  22  23
ENDBRANCH  11  22
ENDBRANCH   8   9
ENDBRANCH   7   8
ENDBRANCH   5   7
ENDBRANCH   2   5
TORSDOF 12
ENDMDL
MODEL      337
REMARK 921   NORMALIZED FREE ENERGY PREDICTED BY IDOCK:   46.10 KCAL/MOL
REMARK 922        TOTAL FREE ENERGY PREDICTED BY IDOCK:   76.85 KCAL/MOL
REMARK 923 INTER-LIGAND FREE ENERGY PREDICTED BY IDOCK:   56.78 KCAL/MOL
REMARK 924 INTRA-LIGAND FREE ENERGY PREDICTED BY IDOCK:   20.07 KCAL/MOL
REMARK 927      BINDING AFFINITY PREDICTED BY RF-SCORE:    0.00 PKD
ROOT
HETATM    1  C   UNL     1      -8.115  12.667  70.640  1.00  0.00     6.116 C  
HETATM    2  C   UNL     1      -8.369  11.527  69.635  1.00  0.00     0.991 C  
HETATM    3  C   UNL     1      -8.385  10.198  70.400  1.00  0.00     0.368 C  
HETATM    4  C   UNL     1      -9.734  11.763  68.972  1.00  0.00     0.114 C  
ENDROOT
BRANCH   2   5
HETATM    5  C   UNL     1      -7.268  11.559  68.563  1.00  0.00    -0.096 C  
HETATM    6  O   UNL     1      -7.383  12.156  67.497  1.00  0.00    -0.114 OA 
BRANCH   5   7
HETATM    7  O   UNL     1      -6.197  10.776  68.875  1.00  0.00    -0.040 OA 
BRANCH   7   8
HETATM    8  C   UNL     1      -6.115  10.408  70.265  1.00  0.00    -0.107 C  
BRANCH   8   9
HETATM    9  O   UNL     1      -7.086   9.445  70.662  1.00  0.00    -0.099 OA 
HETATM   10  P   UNL     1      -7.364   9.365  72.264  1.00  0.00     1.512 P  
HETATM   11  C   UNL     1      -8.039  10.985  72.701  1.00  0.00    13.457 C  
HETATM   12  O   UNL     1      -6.180   8.922  73.061  1.00  0.00    -0.233 OA 
HETATM   13  O   UNL     1      -8.701   8.485  72.440  1.00  0.00    -0.246 OA 
BRANCH  13  14
HETATM   14  C   UNL     1      -8.728   7.092  72.322  1.00  0.00    -0.125 C  
BRANCH  14  15
HETATM   15  O   UNL     1      -8.507   6.723  70.940  1.00  0.00    -0.133 OA 
BRANCH  15  16
HETATM   16  C   UNL     1      -9.614   6.705  70.145  1.00  0.00    -0.161 C  
HETATM   17  O   UNL     1     -10.173   7.712  69.727  1.00  0.00    -0.200 OA 
BRANCH  16  18
HETATM   18  C   UNL     1     -10.094   5.270  69.839  1.00  0.00    -0.333 C  
HETATM   19  C   UNL     1     -11.158   4.850  70.873  1.00  0.00     0.658 C  
HETATM   20  C   UNL     1      -8.921   4.286  69.929  1.00  0.00    -0.153 C  
HETATM   21  C   UNL     1     -10.732   5.193  68.444  1.00  0.00     0.138 C  
ENDBRANCH  16  18
ENDBRANCH  15  16
ENDBRANCH  14  15
ENDBRANCH  13  14
BRANCH  11  22
HETATM   22  O   UNL     1      -9.192  11.125  71.868  1.00  0.00     8.976 OA 
BRANCH  22  23
HETATM   23  C   UNL     1     -10.138  12.040  72.382  1.00  0.00    17.257 C  
BRANCH  23  24
HETATM   24  C   UNL     1     -11.146  12.357  71.286  1.00  0.00     3.882 C  
BRANCH  24  25
HETATM   25  N   UNL     1     -12.029  13.411  71.713  1.00  0.00     0.626 NA 
HETATM   26  C   UNL     1     -11.785  14.742  71.557  1.00  0.00    -0.286 A  
HETATM   27  N   UNL     1     -10.807  15.320  70.840  1.00  0.00    -0.259 NA 
HETATM   28  H2  UNL     1     -13.390  17.143  74.215  1.00  0.00     0.000 HD 
HETATM   29  H1  UNL     1     -13.396  18.536  73.342  1.00  0.00     0.000 HD 
HETATM   30  C   UNL     1     -13.119  13.271  72.529  1.00  0.00    -0.280 A  
HETATM   31  N   UNL     1     -13.567  14.438  72.942  1.00  0.00    -0.618 NA 
HETATM   32  C   UNL     1     -12.721  15.367  72.360  1.00  0.00    -0.379 A  
HETATM   33  C   UNL     1     -12.631  16.762  72.459  1.00  0.00     0.905 A  
HETATM   34  N   UNL     1     -13.461  17.521  73.271  1.00  0.00     3.468 NA 
HETATM   35  N   UNL     1     -11.684  17.401  71.729  1.00  0.00     1.551 NA 
HETATM   36  C   UNL     1     -10.843  16.659  70.975  1.00  0.00     0.623 A  
ENDBRANCH  24  25
ENDBRANCH  23  24
ENDBRANCH  22  23
ENDBRANCH  11  22
ENDBRANCH   8   9
ENDBRANCH   7   8
ENDBRANCH   5   7
ENDBRANCH   2   5
TORSDOF 12
ENDMDL
