MODEL        1
REMARK 921   NORMALIZED FREE ENERGY PREDICTED BY IDOCK:   -7.86 KCAL/MOL
REMARK 922        TOTAL FREE ENERGY PREDICTED BY IDOCK:  -12.03 KCAL/MOL
REMARK 923 INTER-LIGAND FREE ENERGY PREDICTED BY IDOCK:  -10.61 KCAL/MOL
REMARK 924 INTRA-LIGAND FREE ENERGY PREDICTED BY IDOCK:   -1.42 KCAL/MOL
REMARK 927      BINDING AFFINITY PREDICTED BY RF-SCORE:    0.00 PKD
ROOT
HETATM    1  CA  UNL     1     -12.616  14.127  70.261  1.00  0.00    -0.306 C  
HETATM    2  C   UNL     1     -12.584  14.482  71.797  1.00  0.00    -0.346 C  
HETATM    3  N   UNL     1     -12.435  15.400  69.474  1.00  0.00    -0.603 NA 
HETATM    4  OXT UNL     1     -13.307  13.741  72.526  1.00  0.00    -0.499 OA 
HETATM    5  H2  UNL     1     -12.332  15.232  68.473  1.00  0.00     0.000 HD 
HETATM    6  O   UNL     1     -11.854  15.465  72.104  1.00  0.00    -0.373 OA 
HETATM    7  H1  UNL     1     -13.216  16.019  69.692  1.00  0.00     0.000 HD 
ENDROOT
BRANCH   1   8
HETATM    8  C   UNL     1     -11.448  13.199  69.935  1.00  0.00    -0.159 C  
BRANCH   8   9
HETATM    9  C   UNL     1     -11.798  12.045  68.991  1.00  0.00    -0.315 C  
BRANCH   9  10
HETATM   10  S   UNL     1     -10.611  11.992  67.574  1.00  0.00    -0.228 S  
HETATM   11  C   UNL     1     -10.559  10.179  67.465  1.00  0.00    -0.273 C  
BRANCH  10  12
HETATM   12  C   UNL     1     -11.858  12.254  66.243  1.00  0.00    -0.317 C  
BRANCH  12  13
HETATM   13  C   UNL     1     -12.013  13.749  65.932  1.00  0.00    -0.406 C  
HETATM   14  O   UNL     1     -11.126  14.533  66.754  1.00  0.00    -0.309 OA 
HETATM   15  C   UNL     1     -11.013  15.804  66.117  1.00  0.00    -0.169 C  
HETATM   16  C   UNL     1     -10.949  15.492  64.619  1.00  0.00    -0.322 C  
HETATM   17  H   UNL     1     -12.545  14.413  62.758  1.00  0.00     0.000 HD 
HETATM   18  O   UNL     1     -11.626  16.476  63.825  1.00  0.00    -1.617 OA 
HETATM   19  C   UNL     1     -11.634  14.123  64.496  1.00  0.00    -0.389 C  
HETATM   20  O   UNL     1     -12.780  14.181  63.649  1.00  0.00    -0.790 OA 
HETATM   21  H   UNL     1     -11.587  16.283  62.896  1.00  0.00     0.000 HD 
BRANCH  15  22
HETATM   22  N   UNL     1      -9.883  16.521  66.669  1.00  0.00    -0.254 NA 
HETATM   23  C   UNL     1      -8.936  16.020  67.522  1.00  0.00    -0.194 A  
HETATM   24  C   UNL     1      -8.730  18.144  67.567  1.00  0.00    -0.249 A  
HETATM   25  N   UNL     1      -8.227  16.975  68.092  1.00  0.00    -0.210 NA 
HETATM   26  C   UNL     1      -8.443  19.497  67.813  1.00  0.00    -0.315 A  
HETATM   27  N   UNL     1      -9.071  20.437  67.069  1.00  0.00    -0.353 NA 
HETATM   28  N   UNL     1      -7.565  19.924  68.799  1.00  0.00    -0.252 NA 
HETATM   29  H2  UNL     1      -6.676  19.449  68.640  1.00  0.00     0.000 HD 
HETATM   30  C   UNL     1      -9.986  20.030  66.164  1.00  0.00    -0.468 A  
HETATM   31  H1  UNL     1      -7.356  20.906  68.977  1.00  0.00     0.000 HD 
HETATM   32  N   UNL     1     -10.412  18.776  65.900  1.00  0.00    -0.578 NA 
HETATM   33  C   UNL     1      -9.721  17.881  66.633  1.00  0.00    -0.319 A  
ENDBRANCH  15  22
ENDBRANCH  12  13
ENDBRANCH  10  12
ENDBRANCH   9  10
ENDBRANCH   8   9
ENDBRANCH   1   8
TORSDOF 6
ENDMDL
MODEL        2
REMARK 921   NORMALIZED FREE ENERGY PREDICTED BY IDOCK:   -7.37 KCAL/MOL
REMARK 922        TOTAL FREE ENERGY PREDICTED BY IDOCK:  -11.37 KCAL/MOL
REMARK 923 INTER-LIGAND FREE ENERGY PREDICTED BY IDOCK:  -10.42 KCAL/MOL
REMARK 924 INTRA-LIGAND FREE ENERGY PREDICTED BY IDOCK:   -0.95 KCAL/MOL
REMARK 927      BINDING AFFINITY PREDICTED BY RF-SCORE:    0.00 PKD
ROOT
HETATM    1  CA  UNL     1     -11.595  10.940  70.551  1.00  0.00    -0.300 C  
HETATM    2  C   UNL     1     -12.908  10.665  71.378  1.00  0.00    -0.451 C  
HETATM    3  N   UNL     1     -10.733   9.705  70.598  1.00  0.00    -0.299 NA 
HETATM    4  OXT UNL     1     -13.392  11.682  71.955  1.00  0.00    -0.481 OA 
HETATM    5  H2  UNL     1      -9.917   9.770  69.990  1.00  0.00     0.000 HD 
HETATM    6  O   UNL     1     -13.303   9.466  71.371  1.00  0.00    -0.361 OA 
HETATM    7  H1  UNL     1     -10.486   9.529  71.572  1.00  0.00     0.000 HD 
ENDROOT
BRANCH   1   8
HETATM    8  C   UNL     1     -11.964  11.204  69.093  1.00  0.00    -0.413 C  
BRANCH   8   9
HETATM    9  C   UNL     1     -11.028  10.550  68.072  1.00  0.00    -0.290 C  
BRANCH   9  10
HETATM   10  S   UNL     1     -10.370  11.820  66.900  1.00  0.00    -0.222 S  
HETATM   11  C   UNL     1      -9.873  10.628  65.621  1.00  0.00    -0.251 C  
BRANCH  10  12
HETATM   12  C   UNL     1     -11.990  12.278  66.152  1.00  0.00    -0.249 C  
BRANCH  12  13
HETATM   13  C   UNL     1     -12.063  13.790  65.897  1.00  0.00    -0.433 C  
HETATM   14  O   UNL     1     -11.171  14.496  66.782  1.00  0.00    -0.317 OA 
HETATM   15  C   UNL     1     -10.975  15.785  66.203  1.00  0.00    -0.169 C  
HETATM   16  C   UNL     1     -10.870  15.530  64.696  1.00  0.00    -0.254 C  
HETATM   17  H   UNL     1     -12.444  14.605  62.737  1.00  0.00     0.000 HD 
HETATM   18  O   UNL     1     -11.469  16.576  63.920  1.00  0.00    -1.608 OA 
HETATM   19  C   UNL     1     -11.613  14.201  64.492  1.00  0.00    -0.389 C  
HETATM   20  O   UNL     1     -12.723  14.349  63.608  1.00  0.00    -0.773 OA 
HETATM   21  H   UNL     1     -11.404  16.418  62.986  1.00  0.00     0.000 HD 
BRANCH  15  22
HETATM   22  N   UNL     1      -9.833  16.424  66.823  1.00  0.00    -0.246 NA 
HETATM   23  C   UNL     1      -8.972  15.857  67.725  1.00  0.00    -0.176 A  
HETATM   24  C   UNL     1      -8.631  17.963  67.799  1.00  0.00    -0.242 A  
HETATM   25  N   UNL     1      -8.236  16.762  68.342  1.00  0.00    -0.215 NA 
HETATM   26  C   UNL     1      -8.269  19.294  68.072  1.00  0.00    -0.311 A  
HETATM   27  N   UNL     1      -8.792  20.276  67.301  1.00  0.00    -0.348 NA 
HETATM   28  N   UNL     1      -7.423  19.657  69.110  1.00  0.00    -0.334 NA 
HETATM   29  H2  UNL     1      -6.560  19.125  68.997  1.00  0.00     0.000 HD 
HETATM   30  C   UNL     1      -9.678  19.934  66.343  1.00  0.00    -0.447 A  
HETATM   31  H1  UNL     1      -7.161  20.623  69.308  1.00  0.00     0.000 HD 
HETATM   32  N   UNL     1     -10.169  18.712  66.045  1.00  0.00    -0.542 NA 
HETATM   33  C   UNL     1      -9.581  17.770  66.809  1.00  0.00    -0.300 A  
ENDBRANCH  15  22
ENDBRANCH  12  13
ENDBRANCH  10  12
ENDBRANCH   9  10
ENDBRANCH   8   9
ENDBRANCH   1   8
TORSDOF 6
ENDMDL
MODEL        3
REMARK 921   NORMALIZED FREE ENERGY PREDICTED BY IDOCK:   -7.24 KCAL/MOL
REMARK 922        TOTAL FREE ENERGY PREDICTED BY IDOCK:  -11.20 KCAL/MOL
REMARK 923 INTER-LIGAND FREE ENERGY PREDICTED BY IDOCK:   -9.90 KCAL/MOL
REMARK 924 INTRA-LIGAND FREE ENERGY PREDICTED BY IDOCK:   -1.30 KCAL/MOL
REMARK 927      BINDING AFFINITY PREDICTED BY RF-SCORE:    0.00 PKD
ROOT
HETATM    1  CA  UNL     1     -11.258  14.888  64.705  1.00  0.00    -0.386 C  
HETATM    2  C   UNL     1     -12.287  13.830  65.257  1.00  0.00    -0.464 C  
HETATM    3  N   UNL     1     -11.999  15.862  63.826  1.00  0.00    -1.266 NA 
HETATM    4  OXT UNL     1     -11.808  12.673  65.444  1.00  0.00    -0.380 OA 
HETATM    5  H2  UNL     1     -11.416  16.643  63.524  1.00  0.00     0.000 HD 
HETATM    6  O   UNL     1     -13.460  14.264  65.429  1.00  0.00    -0.581 OA 
HETATM    7  H1  UNL     1     -12.397  15.342  63.044  1.00  0.00     0.000 HD 
ENDROOT
BRANCH   1   8
HETATM    8  C   UNL     1     -10.661  15.667  65.875  1.00  0.00    -0.354 C  
BRANCH   8   9
HETATM    9  C   UNL     1      -9.432  15.011  66.514  1.00  0.00    -0.282 C  
BRANCH   9  10
HETATM   10  S   UNL     1      -9.589  15.014  68.356  1.00  0.00    -0.218 S  
HETATM   11  C   UNL     1      -8.738  16.603  68.595  1.00  0.00    -0.250 C  
BRANCH  10  12
HETATM   12  C   UNL     1     -11.307  15.677  68.421  1.00  0.00    -0.364 C  
BRANCH  12  13
HETATM   13  C   UNL     1     -12.241  14.694  69.141  1.00  0.00    -0.188 C  
HETATM   14  O   UNL     1     -11.750  13.345  69.016  1.00  0.00    -0.280 OA 
HETATM   15  C   UNL     1     -12.396  12.590  70.039  1.00  0.00    -0.084 C  
HETATM   16  C   UNL     1     -12.425  13.518  71.257  1.00  0.00    -0.300 C  
HETATM   17  H   UNL     1     -13.535  15.862  71.926  1.00  0.00     0.000 HD 
HETATM   18  O   UNL     1     -13.621  13.369  72.032  1.00  0.00    -0.441 OA 
HETATM   19  C   UNL     1     -12.337  14.927  70.651  1.00  0.00    -0.344 C  
HETATM   20  O   UNL     1     -13.475  15.717  70.989  1.00  0.00    -0.581 OA 
HETATM   21  H   UNL     1     -13.639  13.944  72.788  1.00  0.00     0.000 HD 
BRANCH  15  22
HETATM   22  N   UNL     1     -11.708  11.328  70.215  1.00  0.00    -0.331 NA 
HETATM   23  C   UNL     1     -10.617  10.889  69.512  1.00  0.00    -0.175 A  
HETATM   24  C   UNL     1     -11.409   9.188  70.531  1.00  0.00    -0.257 A  
HETATM   25  N   UNL     1     -10.413   9.596  69.673  1.00  0.00    -0.214 NA 
HETATM   26  C   UNL     1     -11.770   7.928  71.039  1.00  0.00    -0.277 A  
HETATM   27  N   UNL     1     -12.777   7.859  71.940  1.00  0.00    -0.321 NA 
HETATM   28  N   UNL     1     -11.162   6.745  70.645  1.00  0.00    -0.291 NA 
HETATM   29  H2  UNL     1     -10.159   6.855  70.792  1.00  0.00     0.000 HD 
HETATM   30  C   UNL     1     -13.424   8.998  72.266  1.00  0.00    -0.475 A  
HETATM   31  H1  UNL     1     -11.424   5.830  71.013  1.00  0.00     0.000 HD 
HETATM   32  N   UNL     1     -13.232  10.245  71.783  1.00  0.00    -0.430 NA 
HETATM   33  C   UNL     1     -12.190  10.263  70.928  1.00  0.00    -0.365 A  
ENDBRANCH  15  22
ENDBRANCH  12  13
ENDBRANCH  10  12
ENDBRANCH   9  10
ENDBRANCH   8   9
ENDBRANCH   1   8
TORSDOF 6
ENDMDL
MODEL        4
REMARK 921   NORMALIZED FREE ENERGY PREDICTED BY IDOCK:   -7.17 KCAL/MOL
REMARK 922        TOTAL FREE ENERGY PREDICTED BY IDOCK:  -11.11 KCAL/MOL
REMARK 923 INTER-LIGAND FREE ENERGY PREDICTED BY IDOCK:   -9.74 KCAL/MOL
REMARK 924 INTRA-LIGAND FREE ENERGY PREDICTED BY IDOCK:   -1.37 KCAL/MOL
REMARK 927      BINDING AFFINITY PREDICTED BY RF-SCORE:    0.00 PKD
ROOT
HETATM    1  CA  UNL     1     -10.839  12.220  63.574  1.00  0.00    -0.454 C  
HETATM    2  C   UNL     1     -12.361  12.586  63.762  1.00  0.00    -0.502 C  
HETATM    3  N   UNL     1     -10.005  13.323  64.174  1.00  0.00    -0.760 NA 
HETATM    4  OXT UNL     1     -13.123  12.170  62.840  1.00  0.00    -0.327 OA 
HETATM    5  H2  UNL     1      -9.010  13.100  64.190  1.00  0.00     0.000 HD 
HETATM    6  O   UNL     1     -12.625  13.257  64.798  1.00  0.00    -0.577 OA 
HETATM    7  H1  UNL     1     -10.209  14.184  63.667  1.00  0.00     0.000 HD 
ENDROOT
BRANCH   1   8
HETATM    8  C   UNL     1     -10.534  10.930  64.332  1.00  0.00    -0.403 C  
BRANCH   8   9
HETATM    9  C   UNL     1      -9.449  11.065  65.405  1.00  0.00    -0.222 C  
BRANCH   9  10
HETATM   10  S   UNL     1     -10.069  10.427  67.026  1.00  0.00    -0.225 S  
HETATM   11  C   UNL     1      -8.827  11.291  68.033  1.00  0.00    -0.148 C  
BRANCH  10  12
HETATM   12  C   UNL     1     -11.418  11.664  67.239  1.00  0.00    -0.277 C  
BRANCH  12  13
HETATM   13  C   UNL     1     -10.930  12.863  68.064  1.00  0.00    -0.247 C  
HETATM   14  O   UNL     1     -10.632  13.982  67.205  1.00  0.00    -0.270 OA 
HETATM   15  C   UNL     1     -10.618  15.134  68.045  1.00  0.00    -0.258 C  
HETATM   16  C   UNL     1     -11.778  14.926  69.023  1.00  0.00    -0.319 C  
HETATM   17  H   UNL     1     -12.435  13.202  70.965  1.00  0.00     0.000 HD 
HETATM   18  O   UNL     1     -11.484  15.423  70.335  1.00  0.00    -0.274 OA 
HETATM   19  C   UNL     1     -11.974  13.402  69.046  1.00  0.00    -0.315 C  
HETATM   20  O   UNL     1     -11.788  12.867  70.355  1.00  0.00    -0.284 OA 
HETATM   21  H   UNL     1     -12.203  15.294  70.942  1.00  0.00     0.000 HD 
BRANCH  15  22
HETATM   22  N   UNL     1     -10.681  16.328  67.226  1.00  0.00    -0.299 NA 
HETATM   23  C   UNL     1     -10.740  16.377  65.859  1.00  0.00    -0.214 A  
HETATM   24  C   UNL     1     -10.245  18.346  66.517  1.00  0.00    -0.401 A  
HETATM   25  N   UNL     1     -10.472  17.582  65.395  1.00  0.00    -0.636 NA 
HETATM   26  C   UNL     1      -9.860  19.687  66.692  1.00  0.00    -0.410 A  
HETATM   27  N   UNL     1      -9.788  20.178  67.951  1.00  0.00    -0.392 NA 
HETATM   28  N   UNL     1      -9.524  20.527  65.641  1.00  0.00    -0.427 NA 
HETATM   29  H2  UNL     1     -10.305  20.520  64.985  1.00  0.00     0.000 HD 
HETATM   30  C   UNL     1     -10.036  19.342  68.980  1.00  0.00    -0.406 A  
HETATM   31  H1  UNL     1      -9.244  21.500  65.768  1.00  0.00     0.000 HD 
HETATM   32  N   UNL     1     -10.325  18.023  68.945  1.00  0.00    -0.321 NA 
HETATM   33  C   UNL     1     -10.430  17.599  67.670  1.00  0.00    -0.372 A  
ENDBRANCH  15  22
ENDBRANCH  12  13
ENDBRANCH  10  12
ENDBRANCH   9  10
ENDBRANCH   8   9
ENDBRANCH   1   8
TORSDOF 6
ENDMDL
MODEL        5
REMARK 921   NORMALIZED FREE ENERGY PREDICTED BY IDOCK:   -7.12 KCAL/MOL
REMARK 922        TOTAL FREE ENERGY PREDICTED BY IDOCK:  -11.03 KCAL/MOL
REMARK 923 INTER-LIGAND FREE ENERGY PREDICTED BY IDOCK:  -10.22 KCAL/MOL
REMARK 924 INTRA-LIGAND FREE ENERGY PREDICTED BY IDOCK:   -0.81 KCAL/MOL
REMARK 927      BINDING AFFINITY PREDICTED BY RF-SCORE:    0.00 PKD
ROOT
HETATM    1  CA  UNL     1     -12.418   9.689  70.861  1.00  0.00    -0.238 C  
HETATM    2  C   UNL     1     -11.577   8.437  71.318  1.00  0.00    -0.283 C  
HETATM    3  N   UNL     1     -12.979  10.360  72.089  1.00  0.00    -0.464 NA 
HETATM    4  OXT UNL     1     -11.583   7.469  70.502  1.00  0.00    -0.271 OA 
HETATM    5  H2  UNL     1     -13.442  11.244  71.877  1.00  0.00     0.000 HD 
HETATM    6  O   UNL     1     -11.014   8.552  72.442  1.00  0.00    -0.357 OA 
HETATM    7  H1  UNL     1     -13.594   9.696  72.559  1.00  0.00     0.000 HD 
ENDROOT
BRANCH   1   8
HETATM    8  C   UNL     1     -11.499  10.684  70.157  1.00  0.00    -0.411 C  
BRANCH   8   9
HETATM    9  C   UNL     1     -12.078  11.286  68.873  1.00  0.00    -0.224 C  
BRANCH   9  10
HETATM   10  S   UNL     1     -10.716  11.863  67.764  1.00  0.00    -0.217 S  
HETATM   11  C   UNL     1     -10.123  10.197  67.346  1.00  0.00    -0.205 C  
BRANCH  10  12
HETATM   12  C   UNL     1     -11.755  12.106  66.262  1.00  0.00    -0.320 C  
BRANCH  12  13
HETATM   13  C   UNL     1     -11.947  13.601  65.971  1.00  0.00    -0.413 C  
HETATM   14  O   UNL     1     -11.111  14.397  66.834  1.00  0.00    -0.307 OA 
HETATM   15  C   UNL     1     -11.019  15.682  66.224  1.00  0.00    -0.201 C  
HETATM   16  C   UNL     1     -10.898  15.400  64.723  1.00  0.00    -0.364 C  
HETATM   17  H   UNL     1     -12.401  14.306  62.794  1.00  0.00     0.000 HD 
HETATM   18  O   UNL     1     -11.581  16.376  63.926  1.00  0.00    -1.564 OA 
HETATM   19  C   UNL     1     -11.536  14.012  64.555  1.00  0.00    -0.370 C  
HETATM   20  O   UNL     1     -12.656  14.051  63.673  1.00  0.00    -0.818 OA 
HETATM   21  H   UNL     1     -11.506  16.202  62.995  1.00  0.00     0.000 HD 
BRANCH  15  22
HETATM   22  N   UNL     1      -9.929  16.424  66.823  1.00  0.00    -0.261 NA 
HETATM   23  C   UNL     1      -9.047  15.961  67.763  1.00  0.00    -0.196 A  
HETATM   24  C   UNL     1      -8.840  18.085  67.730  1.00  0.00    -0.255 A  
HETATM   25  N   UNL     1      -8.378  16.941  68.340  1.00  0.00    -0.228 NA 
HETATM   26  C   UNL     1      -8.567  19.448  67.937  1.00  0.00    -0.313 A  
HETATM   27  N   UNL     1      -9.139  20.354  67.110  1.00  0.00    -0.373 NA 
HETATM   28  N   UNL     1      -7.761  19.918  68.964  1.00  0.00    -0.185 NA 
HETATM   29  H2  UNL     1      -6.865  19.437  68.889  1.00  0.00     0.000 HD 
HETATM   30  C   UNL     1      -9.987  19.907  66.160  1.00  0.00    -0.487 A  
HETATM   31  H1  UNL     1      -7.564  20.907  69.114  1.00  0.00     0.000 HD 
HETATM   32  N   UNL     1     -10.397  18.642  65.921  1.00  0.00    -0.588 NA 
HETATM   33  C   UNL     1      -9.762  17.781  66.740  1.00  0.00    -0.309 A  
ENDBRANCH  15  22
ENDBRANCH  12  13
ENDBRANCH  10  12
ENDBRANCH   9  10
ENDBRANCH   8   9
ENDBRANCH   1   8
TORSDOF 6
ENDMDL
MODEL        6
REMARK 921   NORMALIZED FREE ENERGY PREDICTED BY IDOCK:   -7.06 KCAL/MOL
REMARK 922        TOTAL FREE ENERGY PREDICTED BY IDOCK:  -10.95 KCAL/MOL
REMARK 923 INTER-LIGAND FREE ENERGY PREDICTED BY IDOCK:   -9.87 KCAL/MOL
REMARK 924 INTRA-LIGAND FREE ENERGY PREDICTED BY IDOCK:   -1.09 KCAL/MOL
REMARK 927      BINDING AFFINITY PREDICTED BY RF-SCORE:    0.00 PKD
ROOT
HETATM    1  CA  UNL     1     -12.220   9.729  70.391  1.00  0.00    -0.057 C  
HETATM    2  C   UNL     1     -12.984  10.212  71.682  1.00  0.00    -0.456 C  
HETATM    3  N   UNL     1     -12.504  10.702  69.276  1.00  0.00    -0.711 NA 
HETATM    4  OXT UNL     1     -13.374   9.281  72.446  1.00  0.00    -0.445 OA 
HETATM    5  H2  UNL     1     -11.951  10.514  68.439  1.00  0.00     0.000 HD 
HETATM    6  O   UNL     1     -13.122  11.463  71.785  1.00  0.00    -0.480 OA 
HETATM    7  H1  UNL     1     -13.508  10.691  69.096  1.00  0.00     0.000 HD 
ENDROOT
BRANCH   1   8
HETATM    8  C   UNL     1     -10.717   9.744  70.661  1.00  0.00    -0.394 C  
BRANCH   8   9
HETATM    9  C   UNL     1     -10.078   8.357  70.778  1.00  0.00    -0.193 C  
BRANCH   9  10
HETATM   10  S   UNL     1      -9.010   8.016  69.307  1.00  0.00    -0.148 S  
HETATM   11  C   UNL     1     -10.325   7.242  68.320  1.00  0.00    -0.193 C  
BRANCH  10  12
HETATM   12  C   UNL     1      -9.138   9.695  68.559  1.00  0.00    -0.131 C  
BRANCH  12  13
HETATM   13  C   UNL     1      -9.806   9.625  67.179  1.00  0.00    -0.186 C  
HETATM   14  O   UNL     1     -10.669  10.761  66.975  1.00  0.00    -0.251 OA 
HETATM   15  C   UNL     1     -10.888  10.847  65.569  1.00  0.00    -0.036 C  
HETATM   16  C   UNL     1      -9.534  10.513  64.936  1.00  0.00    -0.252 C  
HETATM   17  H   UNL     1      -7.879   8.411  64.811  1.00  0.00     0.000 HD 
HETATM   18  O   UNL     1      -9.667   9.770  63.718  1.00  0.00    -0.472 OA 
HETATM   19  C   UNL     1      -8.818   9.681  66.011  1.00  0.00    -0.152 C  
HETATM   20  O   UNL     1      -8.492   8.377  65.536  1.00  0.00    -0.151 OA 
HETATM   21  H   UNL     1      -8.827   9.563  63.325  1.00  0.00     0.000 HD 
BRANCH  15  22
HETATM   22  N   UNL     1     -11.441  12.146  65.245  1.00  0.00    -0.344 NA 
HETATM   23  C   UNL     1     -12.504  12.397  64.418  1.00  0.00    -0.433 A  
HETATM   24  C   UNL     1     -11.516  14.264  64.723  1.00  0.00    -0.393 A  
HETATM   25  N   UNL     1     -12.573  13.668  64.074  1.00  0.00    -0.686 NA 
HETATM   26  C   UNL     1     -11.018  15.578  64.718  1.00  0.00    -0.399 A  
HETATM   27  N   UNL     1      -9.982  15.879  65.536  1.00  0.00    -0.416 NA 
HETATM   28  N   UNL     1     -11.516  16.580  63.898  1.00  0.00    -1.599 NA 
HETATM   29  H2  UNL     1     -12.520  16.638  64.066  1.00  0.00     0.000 HD 
HETATM   30  C   UNL     1      -9.442  14.888  66.276  1.00  0.00    -0.309 A  
HETATM   31  H1  UNL     1     -11.153  17.534  63.895  1.00  0.00     0.000 HD 
HETATM   32  N   UNL     1      -9.771  13.578  66.300  1.00  0.00    -0.289 NA 
HETATM   33  C   UNL     1     -10.835  13.346  65.506  1.00  0.00    -0.289 A  
ENDBRANCH  15  22
ENDBRANCH  12  13
ENDBRANCH  10  12
ENDBRANCH   9  10
ENDBRANCH   8   9
ENDBRANCH   1   8
TORSDOF 6
ENDMDL
MODEL        7
REMARK 921   NORMALIZED FREE ENERGY PREDICTED BY IDOCK:   -7.06 KCAL/MOL
REMARK 922        TOTAL FREE ENERGY PREDICTED BY IDOCK:  -10.95 KCAL/MOL
REMARK 923 INTER-LIGAND FREE ENERGY PREDICTED BY IDOCK:   -9.80 KCAL/MOL
REMARK 924 INTRA-LIGAND FREE ENERGY PREDICTED BY IDOCK:   -1.15 KCAL/MOL
REMARK 927      BINDING AFFINITY PREDICTED BY RF-SCORE:    0.00 PKD
ROOT
HETATM    1  CA  UNL     1     -11.791  13.492  64.268  1.00  0.00    -0.428 C  
HETATM    2  C   UNL     1     -12.069  12.026  63.759  1.00  0.00    -0.499 C  
HETATM    3  N   UNL     1     -12.532  14.455  63.377  1.00  0.00    -1.068 NA 
HETATM    4  OXT UNL     1     -11.114  11.214  63.935  1.00  0.00    -0.335 OA 
HETATM    5  H2  UNL     1     -12.490  15.416  63.715  1.00  0.00     0.000 HD 
HETATM    6  O   UNL     1     -13.202  11.850  63.230  1.00  0.00    -0.602 OA 
HETATM    7  H1  UNL     1     -12.168  14.353  62.430  1.00  0.00     0.000 HD 
ENDROOT
BRANCH   1   8
HETATM    8  C   UNL     1     -12.335  13.644  65.686  1.00  0.00    -0.518 C  
BRANCH   8   9
HETATM    9  C   UNL     1     -11.412  14.405  66.643  1.00  0.00    -0.363 C  
BRANCH   9  10
HETATM   10  S   UNL     1      -9.679  14.404  65.998  1.00  0.00    -0.263 S  
HETATM   11  C   UNL     1      -9.500  16.213  65.993  1.00  0.00    -0.339 C  
BRANCH  10  12
HETATM   12  C   UNL     1      -8.851  14.109  67.618  1.00  0.00    -0.194 C  
BRANCH  12  13
HETATM   13  C   UNL     1      -8.902  12.621  67.990  1.00  0.00    -0.195 C  
HETATM   14  O   UNL     1      -9.830  12.400  69.070  1.00  0.00     0.052 OA 
HETATM   15  C   UNL     1     -10.136  11.007  69.052  1.00  0.00    -0.180 C  
HETATM   16  C   UNL     1     -10.249  10.646  67.568  1.00  0.00    -0.199 C  
HETATM   17  H   UNL     1      -8.643  10.583  65.425  1.00  0.00     0.000 HD 
HETATM   18  O   UNL     1      -9.748   9.333  67.284  1.00  0.00    -0.152 OA 
HETATM   19  C   UNL     1      -9.408  11.719  66.861  1.00  0.00    -0.192 C  
HETATM   20  O   UNL     1      -8.330  11.143  66.126  1.00  0.00    -0.169 OA 
HETATM   21  H   UNL     1      -9.817   9.109  66.364  1.00  0.00     0.000 HD 
BRANCH  15  22
HETATM   22  N   UNL     1     -11.313  10.762  69.860  1.00  0.00    -0.288 NA 
HETATM   23  C   UNL     1     -12.123  11.709  70.431  1.00  0.00    -0.373 A  
HETATM   24  C   UNL     1     -12.610   9.850  71.362  1.00  0.00    -0.398 A  
HETATM   25  N   UNL     1     -12.914  11.193  71.352  1.00  0.00    -0.424 NA 
HETATM   26  C   UNL     1     -13.060   8.780  72.154  1.00  0.00    -0.406 A  
HETATM   27  N   UNL     1     -12.616   7.534  71.868  1.00  0.00    -0.309 NA 
HETATM   28  N   UNL     1     -13.918   8.938  73.233  1.00  0.00    -1.217 NA 
HETATM   29  H2  UNL     1     -14.743   9.432  72.894  1.00  0.00     0.000 HD 
HETATM   30  C   UNL     1     -11.719   7.387  70.871  1.00  0.00    -0.296 A  
HETATM   31  H1  UNL     1     -14.244   8.161  73.808  1.00  0.00     0.000 HD 
HETATM   32  N   UNL     1     -11.147   8.340  70.103  1.00  0.00    -0.230 NA 
HETATM   33  C   UNL     1     -11.659   9.551  70.399  1.00  0.00    -0.212 A  
ENDBRANCH  15  22
ENDBRANCH  12  13
ENDBRANCH  10  12
ENDBRANCH   9  10
ENDBRANCH   8   9
ENDBRANCH   1   8
TORSDOF 6
ENDMDL
MODEL        8
REMARK 921   NORMALIZED FREE ENERGY PREDICTED BY IDOCK:   -6.93 KCAL/MOL
REMARK 922        TOTAL FREE ENERGY PREDICTED BY IDOCK:  -10.78 KCAL/MOL
REMARK 923 INTER-LIGAND FREE ENERGY PREDICTED BY IDOCK:   -9.82 KCAL/MOL
REMARK 924 INTRA-LIGAND FREE ENERGY PREDICTED BY IDOCK:   -0.96 KCAL/MOL
REMARK 927      BINDING AFFINITY PREDICTED BY RF-SCORE:    0.00 PKD
ROOT
HETATM    1  CA  UNL     1     -11.610  14.290  64.813  1.00  0.00    -0.401 C  
HETATM    2  C   UNL     1     -11.106  15.758  65.085  1.00  0.00    -0.324 C  
HETATM    3  N   UNL     1     -12.596  14.326  63.674  1.00  0.00    -0.997 NA 
HETATM    4  OXT UNL     1     -10.823  16.005  66.294  1.00  0.00    -0.274 OA 
HETATM    5  H2  UNL     1     -12.879  13.396  63.368  1.00  0.00     0.000 HD 
HETATM    6  O   UNL     1     -11.062  16.505  64.068  1.00  0.00    -0.829 OA 
HETATM    7  H1  UNL     1     -13.386  14.905  63.960  1.00  0.00     0.000 HD 
ENDROOT
BRANCH   1   8
HETATM    8  C   UNL     1     -10.427  13.423  64.386  1.00  0.00    -0.403 C  
BRANCH   8   9
HETATM    9  C   UNL     1     -10.807  12.190  63.561  1.00  0.00    -0.458 C  
BRANCH   9  10
HETATM   10  S   UNL     1     -10.366  10.645  64.476  1.00  0.00    -0.172 S  
HETATM   11  C   UNL     1      -9.168  10.056  63.242  1.00  0.00    -0.284 C  
BRANCH  10  12
HETATM   12  C   UNL     1      -9.141  11.417  65.615  1.00  0.00    -0.161 C  
BRANCH  12  13
HETATM   13  C   UNL     1      -9.502  11.125  67.078  1.00  0.00    -0.177 C  
HETATM   14  O   UNL     1      -9.961  12.322  67.736  1.00  0.00    -0.191 OA 
HETATM   15  C   UNL     1     -10.665  11.891  68.899  1.00  0.00    -0.199 C  
HETATM   16  C   UNL     1     -11.446  10.652  68.453  1.00  0.00    -0.259 C  
HETATM   17  H   UNL     1     -10.895   8.188  67.559  1.00  0.00     0.000 HD 
HETATM   18  O   UNL     1     -11.525   9.655  69.480  1.00  0.00    -0.431 OA 
HETATM   19  C   UNL     1     -10.656  10.132  67.243  1.00  0.00    -0.261 C  
HETATM   20  O   UNL     1     -10.179   8.804  67.457  1.00  0.00    -0.211 OA 
HETATM   21  H   UNL     1     -12.010   8.886  69.203  1.00  0.00     0.000 HD 
BRANCH  15  22
HETATM   22  N   UNL     1     -11.453  12.989  69.420  1.00  0.00    -0.275 NA 
HETATM   23  C   UNL     1     -11.316  14.315  69.101  1.00  0.00    -0.276 A  
HETATM   24  C   UNL     1     -12.531  14.233  70.855  1.00  0.00    -0.354 A  
HETATM   25  N   UNL     1     -11.948  15.096  69.955  1.00  0.00    -0.317 NA 
HETATM   26  C   UNL     1     -13.283  14.444  72.023  1.00  0.00    -0.369 A  
HETATM   27  N   UNL     1     -13.790  13.367  72.667  1.00  0.00    -0.745 NA 
HETATM   28  N   UNL     1     -13.512  15.699  72.567  1.00  0.00    -0.505 NA 
HETATM   29  H2  UNL     1     -13.924  16.277  71.834  1.00  0.00     0.000 HD 
HETATM   30  C   UNL     1     -13.502  12.139  72.187  1.00  0.00    -0.278 A  
HETATM   31  H1  UNL     1     -14.058  15.851  73.415  1.00  0.00     0.000 HD 
HETATM   32  N   UNL     1     -12.723  11.806  71.135  1.00  0.00    -0.358 NA 
HETATM   33  C   UNL     1     -12.286  12.914  70.505  1.00  0.00    -0.314 A  
ENDBRANCH  15  22
ENDBRANCH  12  13
ENDBRANCH  10  12
ENDBRANCH   9  10
ENDBRANCH   8   9
ENDBRANCH   1   8
TORSDOF 6
ENDMDL
MODEL        9
REMARK 921   NORMALIZED FREE ENERGY PREDICTED BY IDOCK:   -6.88 KCAL/MOL
REMARK 922        TOTAL FREE ENERGY PREDICTED BY IDOCK:  -10.71 KCAL/MOL
REMARK 923 INTER-LIGAND FREE ENERGY PREDICTED BY IDOCK:   -9.80 KCAL/MOL
REMARK 924 INTRA-LIGAND FREE ENERGY PREDICTED BY IDOCK:   -0.91 KCAL/MOL
REMARK 927      BINDING AFFINITY PREDICTED BY RF-SCORE:    0.00 PKD
ROOT
HETATM    1  CA  UNL     1     -13.160   8.803  71.907  1.00  0.00    -0.378 C  
HETATM    2  C   UNL     1     -11.995   7.762  72.114  1.00  0.00    -0.317 C  
HETATM    3  N   UNL     1     -13.916   8.938  73.204  1.00  0.00    -1.215 NA 
HETATM    4  OXT UNL     1     -11.701   7.085  71.086  1.00  0.00    -0.290 OA 
HETATM    5  H2  UNL     1     -14.614   9.680  73.177  1.00  0.00     0.000 HD 
HETATM    6  O   UNL     1     -11.511   7.725  73.280  1.00  0.00    -0.295 OA 
HETATM    7  H1  UNL     1     -14.315   8.028  73.433  1.00  0.00     0.000 HD 
ENDROOT
BRANCH   1   8
HETATM    8  C   UNL     1     -12.562  10.166  71.564  1.00  0.00    -0.537 C  
BRANCH   8   9
HETATM    9  C   UNL     1     -12.752  10.594  70.106  1.00  0.00    -0.159 C  
BRANCH   9  10
HETATM   10  S   UNL     1     -11.204  11.373  69.460  1.00  0.00    -0.234 S  
HETATM   11  C   UNL     1     -10.124   9.973  69.880  1.00  0.00    -0.246 C  
BRANCH  10  12
HETATM   12  C   UNL     1     -11.463  10.923  67.692  1.00  0.00    -0.200 C  
BRANCH  12  13
HETATM   13  C   UNL     1     -11.542  12.182  66.818  1.00  0.00    -0.345 C  
HETATM   14  O   UNL     1     -11.455  13.370  67.630  1.00  0.00    -0.285 OA 
HETATM   15  C   UNL     1     -11.101  14.431  66.746  1.00  0.00    -0.323 C  
HETATM   16  C   UNL     1     -10.079  13.820  65.783  1.00  0.00    -0.307 C  
HETATM   17  H   UNL     1     -10.030  11.902  63.914  1.00  0.00     0.000 HD 
HETATM   18  O   UNL     1     -10.205  14.335  64.451  1.00  0.00    -0.618 OA 
HETATM   19  C   UNL     1     -10.388  12.316  65.821  1.00  0.00    -0.258 C  
HETATM   20  O   UNL     1     -10.746  11.820  64.533  1.00  0.00    -0.283 OA 
HETATM   21  H   UNL     1      -9.572  13.956  63.854  1.00  0.00     0.000 HD 
BRANCH  15  22
HETATM   22  N   UNL     1     -10.649  15.571  67.518  1.00  0.00    -0.290 NA 
HETATM   23  C   UNL     1     -10.483  15.622  68.877  1.00  0.00    -0.220 A  
HETATM   24  C   UNL     1     -10.450  17.641  68.184  1.00  0.00    -0.385 A  
HETATM   25  N   UNL     1     -10.369  16.861  69.315  1.00  0.00    -0.314 NA 
HETATM   26  C   UNL     1     -10.455  19.032  67.987  1.00  0.00    -0.355 A  
HETATM   27  N   UNL     1     -10.475  19.506  66.720  1.00  0.00    -0.449 NA 
HETATM   28  N   UNL     1     -10.468  19.949  69.028  1.00  0.00    -0.555 NA 
HETATM   29  H2  UNL     1      -9.676  19.732  69.634  1.00  0.00     0.000 HD 
HETATM   30  C   UNL     1     -10.544  18.618  65.706  1.00  0.00    -0.249 A  
HETATM   31  H1  UNL     1     -10.472  20.960  68.885  1.00  0.00     0.000 HD 
HETATM   32  N   UNL     1     -10.635  17.271  65.768  1.00  0.00    -0.464 NA 
HETATM   33  C   UNL     1     -10.564  16.854  67.048  1.00  0.00    -0.230 A  
ENDBRANCH  15  22
ENDBRANCH  12  13
ENDBRANCH  10  12
ENDBRANCH   9  10
ENDBRANCH   8   9
ENDBRANCH   1   8
TORSDOF 6
ENDMDL
MODEL       10
REMARK 921   NORMALIZED FREE ENERGY PREDICTED BY IDOCK:   -6.78 KCAL/MOL
REMARK 922        TOTAL FREE ENERGY PREDICTED BY IDOCK:  -10.57 KCAL/MOL
REMARK 923 INTER-LIGAND FREE ENERGY PREDICTED BY IDOCK:   -9.43 KCAL/MOL
REMARK 924 INTRA-LIGAND FREE ENERGY PREDICTED BY IDOCK:   -1.14 KCAL/MOL
REMARK 927      BINDING AFFINITY PREDICTED BY RF-SCORE:    0.00 PKD
ROOT
HETATM    1  CA  UNL     1      -8.843  19.362  66.212  1.00  0.00    -0.351 C  
HETATM    2  C   UNL     1     -10.367  18.988  66.351  1.00  0.00    -0.448 C  
HETATM    3  N   UNL     1      -8.636  20.742  66.781  1.00  0.00    -0.556 NA 
HETATM    4  OXT UNL     1     -10.815  18.240  65.433  1.00  0.00    -0.569 OA 
HETATM    5  H2  UNL     1      -7.652  21.006  66.828  1.00  0.00     0.000 HD 
HETATM    6  O   UNL     1     -10.951  19.489  67.352  1.00  0.00    -0.477 OA 
HETATM    7  H1  UNL     1      -9.194  21.397  66.234  1.00  0.00     0.000 HD 
ENDROOT
BRANCH   1   8
HETATM    8  C   UNL     1      -8.006  18.382  67.031  1.00  0.00    -0.238 C  
BRANCH   8   9
HETATM    9  C   UNL     1      -8.004  16.947  66.496  1.00  0.00    -0.294 C  
BRANCH   9  10
HETATM   10  S   UNL     1      -8.062  15.741  67.897  1.00  0.00    -0.145 S  
HETATM   11  C   UNL     1      -6.483  16.262  68.632  1.00  0.00    -0.126 C  
BRANCH  10  12
HETATM   12  C   UNL     1      -9.153  16.742  68.994  1.00  0.00    -0.191 C  
BRANCH  12  13
HETATM   13  C   UNL     1     -10.601  16.239  68.923  1.00  0.00    -0.284 C  
HETATM   14  O   UNL     1     -10.784  15.379  67.781  1.00  0.00    -0.274 OA 
HETATM   15  C   UNL     1     -11.975  14.635  68.031  1.00  0.00    -0.257 C  
HETATM   16  C   UNL     1     -11.922  14.292  69.523  1.00  0.00    -0.336 C  
HETATM   17  H   UNL     1     -11.952  15.614  71.852  1.00  0.00     0.000 HD 
HETATM   18  O   UNL     1     -13.218  14.315  70.136  1.00  0.00    -0.378 OA 
HETATM   19  C   UNL     1     -11.015  15.378  70.120  1.00  0.00    -0.310 C  
HETATM   20  O   UNL     1     -11.695  16.148  71.110  1.00  0.00    -0.430 OA 
HETATM   21  H   UNL     1     -13.186  14.103  71.061  1.00  0.00     0.000 HD 
BRANCH  15  22
HETATM   22  N   UNL     1     -12.041  13.511  67.120  1.00  0.00    -0.368 NA 
HETATM   23  C   UNL     1     -11.770  12.202  67.419  1.00  0.00    -0.304 A  
HETATM   24  C   UNL     1     -11.803  12.345  65.289  1.00  0.00    -0.399 A  
HETATM   25  N   UNL     1     -11.610  11.469  66.334  1.00  0.00    -0.387 NA 
HETATM   26  C   UNL     1     -11.711  12.195  63.895  1.00  0.00    -0.458 A  
HETATM   27  N   UNL     1     -12.037  13.249  63.110  1.00  0.00    -0.481 NA 
HETATM   28  N   UNL     1     -11.279  11.030  63.279  1.00  0.00    -0.662 NA 
HETATM   29  H2  UNL     1     -11.861  10.268  63.628  1.00  0.00     0.000 HD 
HETATM   30  C   UNL     1     -12.381  14.409  63.706  1.00  0.00     0.076 A  
HETATM   31  H1  UNL     1     -11.213  10.922  62.267  1.00  0.00     0.000 HD 
HETATM   32  N   UNL     1     -12.418  14.702  65.024  1.00  0.00    -0.357 NA 
HETATM   33  C   UNL     1     -12.132  13.608  65.757  1.00  0.00    -0.428 A  
ENDBRANCH  15  22
ENDBRANCH  12  13
ENDBRANCH  10  12
ENDBRANCH   9  10
ENDBRANCH   8   9
ENDBRANCH   1   8
TORSDOF 6
ENDMDL
MODEL       11
REMARK 921   NORMALIZED FREE ENERGY PREDICTED BY IDOCK:   -6.76 KCAL/MOL
REMARK 922        TOTAL FREE ENERGY PREDICTED BY IDOCK:  -10.54 KCAL/MOL
REMARK 923 INTER-LIGAND FREE ENERGY PREDICTED BY IDOCK:   -9.75 KCAL/MOL
REMARK 924 INTRA-LIGAND FREE ENERGY PREDICTED BY IDOCK:   -0.80 KCAL/MOL
REMARK 927      BINDING AFFINITY PREDICTED BY RF-SCORE:    0.00 PKD
ROOT
HETATM    1  CA  UNL     1     -10.577   7.799  67.305  1.00  0.00    -0.306 C  
HETATM    2  C   UNL     1      -9.580   6.580  67.229  1.00  0.00    -0.126 C  
HETATM    3  N   UNL     1     -10.872   8.085  68.755  1.00  0.00    -0.420 NA 
HETATM    4  OXT UNL     1      -9.722   5.843  66.210  1.00  0.00    -0.154 OA 
HETATM    5  H2  UNL     1     -11.422   8.934  68.885  1.00  0.00     0.000 HD 
HETATM    6  O   UNL     1      -8.777   6.485  68.199  1.00  0.00    -0.118 OA 
HETATM    7  H1  UNL     1     -11.320   7.260  69.154  1.00  0.00     0.000 HD 
ENDROOT
BRANCH   1   8
HETATM    8  C   UNL     1      -9.908   9.034  66.706  1.00  0.00    -0.300 C  
BRANCH   8   9
HETATM    9  C   UNL     1     -10.275  10.352  67.394  1.00  0.00    -0.214 C  
BRANCH   9  10
HETATM   10  S   UNL     1     -10.134  11.759  66.201  1.00  0.00    -0.232 S  
HETATM   11  C   UNL     1     -10.272  10.729  64.710  1.00  0.00    -0.334 C  
BRANCH  10  12
HETATM   12  C   UNL     1     -11.901  12.275  66.272  1.00  0.00    -0.317 C  
BRANCH  12  13
HETATM   13  C   UNL     1     -12.043  13.769  65.950  1.00  0.00    -0.433 C  
HETATM   14  O   UNL     1     -11.164  14.553  66.781  1.00  0.00    -0.317 OA 
HETATM   15  C   UNL     1     -11.035  15.820  66.140  1.00  0.00    -0.169 C  
HETATM   16  C   UNL     1     -10.949  15.499  64.644  1.00  0.00    -0.322 C  
HETATM   17  H   UNL     1     -12.523  14.419  62.765  1.00  0.00     0.000 HD 
HETATM   18  O   UNL     1     -11.608  16.482  63.835  1.00  0.00    -1.598 OA 
HETATM   19  C   UNL     1     -11.640  14.133  64.519  1.00  0.00    -0.389 C  
HETATM   20  O   UNL     1     -12.772  14.193  63.654  1.00  0.00    -0.790 OA 
HETATM   21  H   UNL     1     -11.556  16.284  62.908  1.00  0.00     0.000 HD 
BRANCH  15  22
HETATM   22  N   UNL     1      -9.908  16.534  66.705  1.00  0.00    -0.254 NA 
HETATM   23  C   UNL     1      -8.971  16.028  67.566  1.00  0.00    -0.194 A  
HETATM   24  C   UNL     1      -8.763  18.152  67.620  1.00  0.00    -0.248 A  
HETATM   25  N   UNL     1      -8.266  16.981  68.145  1.00  0.00    -0.210 NA 
HETATM   26  C   UNL     1      -8.476  19.505  67.873  1.00  0.00    -0.316 A  
HETATM   27  N   UNL     1      -9.096  20.447  67.125  1.00  0.00    -0.373 NA 
HETATM   28  N   UNL     1      -7.607  19.926  68.869  1.00  0.00    -0.235 NA 
HETATM   29  H2  UNL     1      -6.718  19.451  68.716  1.00  0.00     0.000 HD 
HETATM   30  C   UNL     1     -10.002  20.045  66.210  1.00  0.00    -0.481 A  
HETATM   31  H1  UNL     1      -7.399  20.908  69.052  1.00  0.00     0.000 HD 
HETATM   32  N   UNL     1     -10.427  18.792  65.938  1.00  0.00    -0.578 NA 
HETATM   33  C   UNL     1      -9.745  17.893  66.675  1.00  0.00    -0.319 A  
ENDBRANCH  15  22
ENDBRANCH  12  13
ENDBRANCH  10  12
ENDBRANCH   9  10
ENDBRANCH   8   9
ENDBRANCH   1   8
TORSDOF 6
ENDMDL
MODEL       12
REMARK 921   NORMALIZED FREE ENERGY PREDICTED BY IDOCK:   -6.70 KCAL/MOL
REMARK 922        TOTAL FREE ENERGY PREDICTED BY IDOCK:  -10.47 KCAL/MOL
REMARK 923 INTER-LIGAND FREE ENERGY PREDICTED BY IDOCK:   -9.51 KCAL/MOL
REMARK 924 INTRA-LIGAND FREE ENERGY PREDICTED BY IDOCK:   -0.96 KCAL/MOL
REMARK 927      BINDING AFFINITY PREDICTED BY RF-SCORE:    0.00 PKD
ROOT
HETATM    1  CA  UNL     1     -13.448   8.807  71.816  1.00  0.00    -0.393 C  
HETATM    2  C   UNL     1     -12.292   7.735  71.804  1.00  0.00    -0.317 C  
HETATM    3  N   UNL     1     -14.021   8.875  73.208  1.00  0.00    -1.217 NA 
HETATM    4  OXT UNL     1     -12.154   7.117  70.708  1.00  0.00    -0.331 OA 
HETATM    5  H2  UNL     1     -14.699   9.630  73.318  1.00  0.00     0.000 HD 
HETATM    6  O   UNL     1     -11.660   7.619  72.891  1.00  0.00    -0.325 OA 
HETATM    7  H1  UNL     1     -14.410   7.960  73.434  1.00  0.00     0.000 HD 
ENDROOT
BRANCH   1   8
HETATM    8  C   UNL     1     -12.866  10.177  71.476  1.00  0.00    -0.548 C  
BRANCH   8   9
HETATM    9  C   UNL     1     -12.698  10.443  69.977  1.00  0.00    -0.007 C  
BRANCH   9  10
HETATM   10  S   UNL     1     -10.919  10.747  69.575  1.00  0.00    -0.269 S  
HETATM   11  C   UNL     1     -10.784   9.392  68.372  1.00  0.00    -0.168 C  
BRANCH  10  12
HETATM   12  C   UNL     1     -11.205  12.095  68.353  1.00  0.00    -0.265 C  
BRANCH  12  13
HETATM   13  C   UNL     1     -10.854  13.461  68.959  1.00  0.00    -0.183 C  
HETATM   14  O   UNL     1     -10.547  14.412  67.921  1.00  0.00    -0.237 OA 
HETATM   15  C   UNL     1     -10.666  15.703  68.516  1.00  0.00    -0.264 C  
HETATM   16  C   UNL     1     -11.891  15.605  69.431  1.00  0.00    -0.375 C  
HETATM   17  H   UNL     1     -12.613  14.243  71.622  1.00  0.00     0.000 HD 
HETATM   18  O   UNL     1     -11.735  16.364  70.637  1.00  0.00    -0.516 OA 
HETATM   19  C   UNL     1     -12.004  14.104  69.739  1.00  0.00    -0.339 C  
HETATM   20  O   UNL     1     -11.900  13.844  71.137  1.00  0.00    -0.225 OA 
HETATM   21  H   UNL     1     -12.494  16.303  71.205  1.00  0.00     0.000 HD 
BRANCH  15  22
HETATM   22  N   UNL     1     -10.725  16.710  67.477  1.00  0.00    -0.310 NA 
HETATM   23  C   UNL     1     -10.780  16.486  66.127  1.00  0.00    -0.155 A  
HETATM   24  C   UNL     1     -10.286  18.548  66.382  1.00  0.00    -0.423 A  
HETATM   25  N   UNL     1     -10.509  17.576  65.434  1.00  0.00    -0.636 NA 
HETATM   26  C   UNL     1      -9.900  19.896  66.289  1.00  0.00    -0.461 A  
HETATM   27  N   UNL     1      -9.832  20.628  67.426  1.00  0.00    -0.454 NA 
HETATM   28  N   UNL     1      -9.560  20.511  65.093  1.00  0.00    -0.073 NA 
HETATM   29  H2  UNL     1     -10.339  20.373  64.449  1.00  0.00     0.000 HD 
HETATM   30  C   UNL     1     -10.084  20.012  68.600  1.00  0.00    -0.347 A  
HETATM   31  H1  UNL     1      -9.280  21.490  65.026  1.00  0.00     0.000 HD 
HETATM   32  N   UNL     1     -10.374  18.712  68.826  1.00  0.00    -0.262 NA 
HETATM   33  C   UNL     1     -10.475  18.044  67.660  1.00  0.00    -0.409 A  
ENDBRANCH  15  22
ENDBRANCH  12  13
ENDBRANCH  10  12
ENDBRANCH   9  10
ENDBRANCH   8   9
ENDBRANCH   1   8
TORSDOF 6
ENDMDL
MODEL       13
REMARK 921   NORMALIZED FREE ENERGY PREDICTED BY IDOCK:   -6.67 KCAL/MOL
REMARK 922        TOTAL FREE ENERGY PREDICTED BY IDOCK:  -10.43 KCAL/MOL
REMARK 923 INTER-LIGAND FREE ENERGY PREDICTED BY IDOCK:   -9.73 KCAL/MOL
REMARK 924 INTRA-LIGAND FREE ENERGY PREDICTED BY IDOCK:   -0.70 KCAL/MOL
REMARK 927      BINDING AFFINITY PREDICTED BY RF-SCORE:    0.00 PKD
ROOT
HETATM    1  CA  UNL     1     -11.053  16.166  65.606  1.00  0.00    -0.023 C  
HETATM    2  C   UNL     1     -10.448  17.375  66.418  1.00  0.00    -0.267 C  
HETATM    3  N   UNL     1     -11.164  16.571  64.159  1.00  0.00    -1.413 NA 
HETATM    4  OXT UNL     1     -10.856  17.467  67.613  1.00  0.00    -0.338 OA 
HETATM    5  H2  UNL     1     -11.442  15.799  63.554  1.00  0.00     0.000 HD 
HETATM    6  O   UNL     1      -9.646  18.105  65.771  1.00  0.00    -0.492 OA 
HETATM    7  H1  UNL     1     -11.801  17.366  64.101  1.00  0.00     0.000 HD 
ENDROOT
BRANCH   1   8
HETATM    8  C   UNL     1     -10.100  14.976  65.692  1.00  0.00    -0.390 C  
BRANCH   8   9
HETATM    9  C   UNL     1     -10.312  13.913  64.610  1.00  0.00    -0.339 C  
BRANCH   9  10
HETATM   10  S   UNL     1     -11.734  12.819  65.055  1.00  0.00    -0.376 S  
HETATM   11  C   UNL     1     -11.269  11.470  63.929  1.00  0.00    -0.355 C  
BRANCH  10  12
HETATM   12  C   UNL     1     -10.982  12.101  66.576  1.00  0.00    -0.284 C  
BRANCH  12  13
HETATM   13  C   UNL     1     -11.910  12.293  67.783  1.00  0.00    -0.273 C  
HETATM   14  O   UNL     1     -12.135  11.037  68.454  1.00  0.00    -0.594 OA 
HETATM   15  C   UNL     1     -12.616  11.363  69.756  1.00  0.00     0.010 C  
HETATM   16  C   UNL     1     -11.790  12.577  70.191  1.00  0.00    -0.258 C  
HETATM   17  H   UNL     1     -11.446  15.114  69.403  1.00  0.00     0.000 HD 
HETATM   18  O   UNL     1     -12.555  13.511  70.965  1.00  0.00    -0.353 OA 
HETATM   19  C   UNL     1     -11.332  13.207  68.867  1.00  0.00    -0.289 C  
HETATM   20  O   UNL     1     -11.804  14.546  68.730  1.00  0.00    -0.308 OA 
HETATM   21  H   UNL     1     -12.043  14.264  71.234  1.00  0.00     0.000 HD 
BRANCH  15  22
HETATM   22  N   UNL     1     -12.530  10.194  70.608  1.00  0.00    -0.300 NA 
HETATM   23  C   UNL     1     -13.531   9.678  71.387  1.00  0.00    -0.329 A  
HETATM   24  C   UNL     1     -11.717   8.766  72.046  1.00  0.00    -0.372 A  
HETATM   25  N   UNL     1     -13.073   8.817  72.275  1.00  0.00    -0.396 NA 
HETATM   26  C   UNL     1     -10.668   8.087  72.690  1.00  0.00    -0.358 A  
HETATM   27  N   UNL     1      -9.421   8.185  72.173  1.00  0.00    -0.200 NA 
HETATM   28  N   UNL     1     -10.840   7.341  73.847  1.00  0.00    -0.554 NA 
HETATM   29  H2  UNL     1     -11.575   6.658  73.661  1.00  0.00     0.000 HD 
HETATM   30  C   UNL     1      -9.236   8.975  71.095  1.00  0.00    -0.256 A  
HETATM   31  H1  UNL     1     -10.079   6.848  74.315  1.00  0.00     0.000 HD 
HETATM   32  N   UNL     1     -10.138   9.743  70.446  1.00  0.00    -0.270 NA 
HETATM   33  C   UNL     1     -11.366   9.570  70.972  1.00  0.00    -0.352 A  
ENDBRANCH  15  22
ENDBRANCH  12  13
ENDBRANCH  10  12
ENDBRANCH   9  10
ENDBRANCH   8   9
ENDBRANCH   1   8
TORSDOF 6
ENDMDL
MODEL       14
REMARK 921   NORMALIZED FREE ENERGY PREDICTED BY IDOCK:   -6.67 KCAL/MOL
REMARK 922        TOTAL FREE ENERGY PREDICTED BY IDOCK:  -10.42 KCAL/MOL
REMARK 923 INTER-LIGAND FREE ENERGY PREDICTED BY IDOCK:   -9.60 KCAL/MOL
REMARK 924 INTRA-LIGAND FREE ENERGY PREDICTED BY IDOCK:   -0.82 KCAL/MOL
REMARK 927      BINDING AFFINITY PREDICTED BY RF-SCORE:    0.00 PKD
ROOT
HETATM    1  CA  UNL     1     -11.803   6.452  71.651  1.00  0.00    -0.306 C  
HETATM    2  C   UNL     1     -10.914   7.218  72.703  1.00  0.00    -0.299 C  
HETATM    3  N   UNL     1     -12.675   7.457  70.941  1.00  0.00    -0.581 NA 
HETATM    4  OXT UNL     1     -10.637   6.554  73.745  1.00  0.00    -0.300 OA 
HETATM    5  H2  UNL     1     -13.196   7.048  70.166  1.00  0.00     0.000 HD 
HETATM    6  O   UNL     1     -10.601   8.398  72.381  1.00  0.00    -0.316 OA 
HETATM    7  H1  UNL     1     -13.279   7.896  71.635  1.00  0.00     0.000 HD 
ENDROOT
BRANCH   1   8
HETATM    8  C   UNL     1     -10.899   5.794  70.612  1.00  0.00    -0.337 C  
BRANCH   8   9
HETATM    9  C   UNL     1     -11.082   6.319  69.185  1.00  0.00    -0.390 C  
BRANCH   9  10
HETATM   10  S   UNL     1      -9.686   7.445  68.732  1.00  0.00    -0.152 S  
HETATM   11  C   UNL     1      -9.190   6.512  67.253  1.00  0.00    -0.120 C  
BRANCH  10  12
HETATM   12  C   UNL     1     -10.706   8.707  67.861  1.00  0.00    -0.093 C  
BRANCH  12  13
HETATM   13  C   UNL     1     -10.488  10.098  68.473  1.00  0.00    -0.195 C  
HETATM   14  O   UNL     1     -10.032  11.028  67.471  1.00  0.00    -0.171 OA 
HETATM   15  C   UNL     1     -10.274  12.330  67.997  1.00  0.00    -0.206 C  
HETATM   16  C   UNL     1     -11.631  12.227  68.700  1.00  0.00    -0.323 C  
HETATM   17  H   UNL     1     -12.679  10.909  70.783  1.00  0.00     0.000 HD 
HETATM   18  O   UNL     1     -11.693  13.023  69.891  1.00  0.00    -0.411 OA 
HETATM   19  C   UNL     1     -11.764  10.733  69.032  1.00  0.00    -0.286 C  
HETATM   20  O   UNL     1     -11.888  10.515  70.436  1.00  0.00    -0.284 OA 
HETATM   21  H   UNL     1     -12.535  12.960  70.327  1.00  0.00     0.000 HD 
BRANCH  15  22
HETATM   22  N   UNL     1     -10.180  13.307  66.932  1.00  0.00    -0.248 NA 
HETATM   23  C   UNL     1      -9.353  14.398  66.896  1.00  0.00    -0.256 A  
HETATM   24  C   UNL     1     -10.808  14.687  65.361  1.00  0.00    -0.356 A  
HETATM   25  N   UNL     1      -9.711  15.259  65.963  1.00  0.00    -0.311 NA 
HETATM   26  C   UNL     1     -11.674  15.130  64.346  1.00  0.00    -0.295 A  
HETATM   27  N   UNL     1     -12.642  14.290  63.911  1.00  0.00    -0.787 NA 
HETATM   28  N   UNL     1     -11.605  16.396  63.783  1.00  0.00    -1.515 NA 
HETATM   29  H2  UNL     1     -10.651  16.526  63.446  1.00  0.00     0.000 HD 
HETATM   30  C   UNL     1     -12.764  13.088  64.512  1.00  0.00    -0.249 A  
HETATM   31  H1  UNL     1     -12.234  16.717  63.046  1.00  0.00     0.000 HD 
HETATM   32  N   UNL     1     -12.057  12.587  65.549  1.00  0.00    -0.534 NA 
HETATM   33  C   UNL     1     -11.081  13.443  65.908  1.00  0.00    -0.280 A  
ENDBRANCH  15  22
ENDBRANCH  12  13
ENDBRANCH  10  12
ENDBRANCH   9  10
ENDBRANCH   8   9
ENDBRANCH   1   8
TORSDOF 6
ENDMDL
MODEL       15
REMARK 921   NORMALIZED FREE ENERGY PREDICTED BY IDOCK:   -6.66 KCAL/MOL
REMARK 922        TOTAL FREE ENERGY PREDICTED BY IDOCK:  -10.41 KCAL/MOL
REMARK 923 INTER-LIGAND FREE ENERGY PREDICTED BY IDOCK:   -9.50 KCAL/MOL
REMARK 924 INTRA-LIGAND FREE ENERGY PREDICTED BY IDOCK:   -0.91 KCAL/MOL
REMARK 927      BINDING AFFINITY PREDICTED BY RF-SCORE:    0.00 PKD
ROOT
HETATM    1  CA  UNL     1      -8.342  19.443  66.156  1.00  0.00    -0.300 C  
HETATM    2  C   UNL     1      -9.864  19.843  66.242  1.00  0.00    -0.461 C  
HETATM    3  N   UNL     1      -7.512  20.620  66.599  1.00  0.00    -0.488 NA 
HETATM    4  OXT UNL     1     -10.605  19.293  65.376  1.00  0.00    -0.492 OA 
HETATM    5  H2  UNL     1      -6.520  20.396  66.677  1.00  0.00     0.000 HD 
HETATM    6  O   UNL     1     -10.148  20.671  67.152  1.00  0.00    -0.396 OA 
HETATM    7  H1  UNL     1      -7.693  21.392  65.957  1.00  0.00     0.000 HD 
ENDROOT
BRANCH   1   8
HETATM    8  C   UNL     1      -8.071  18.286  67.116  1.00  0.00    -0.232 C  
BRANCH   8   9
HETATM    9  C   UNL     1      -7.687  16.970  66.433  1.00  0.00    -0.315 C  
BRANCH   9  10
HETATM   10  S   UNL     1      -8.860  15.627  66.924  1.00  0.00    -0.274 S  
HETATM   11  C   UNL     1      -9.801  16.647  68.097  1.00  0.00    -0.250 C  
BRANCH  10  12
HETATM   12  C   UNL     1     -10.011  15.819  65.498  1.00  0.00    -0.306 C  
BRANCH  12  13
HETATM   13  C   UNL     1     -10.633  14.469  65.117  1.00  0.00    -0.410 C  
HETATM   14  O   UNL     1     -10.401  13.494  66.152  1.00  0.00    -0.284 OA 
HETATM   15  C   UNL     1     -11.349  12.451  65.935  1.00  0.00    -0.356 C  
HETATM   16  C   UNL     1     -12.640  13.167  65.528  1.00  0.00    -0.408 C  
HETATM   17  H   UNL     1     -13.489  14.709  63.510  1.00  0.00     0.000 HD 
HETATM   18  O   UNL     1     -13.384  12.438  64.543  1.00  0.00    -0.800 OA 
HETATM   19  C   UNL     1     -12.156  14.512  64.966  1.00  0.00    -0.389 C  
HETATM   20  O   UNL     1     -12.544  14.683  63.604  1.00  0.00    -0.773 OA 
HETATM   21  H   UNL     1     -14.184  12.882  64.291  1.00  0.00     0.000 HD 
BRANCH  15  22
HETATM   22  N   UNL     1     -11.427  11.616  67.116  1.00  0.00    -0.478 NA 
HETATM   23  C   UNL     1     -11.879  11.994  68.353  1.00  0.00    -0.300 A  
HETATM   24  C   UNL     1     -10.852  10.141  68.620  1.00  0.00    -0.235 A  
HETATM   25  N   UNL     1     -11.540  11.128  69.289  1.00  0.00    -0.288 NA 
HETATM   26  C   UNL     1     -10.188   8.982  69.057  1.00  0.00    -0.205 A  
HETATM   27  N   UNL     1      -9.655   8.154  68.129  1.00  0.00    -0.147 NA 
HETATM   28  N   UNL     1     -10.028   8.654  70.396  1.00  0.00    -0.182 NA 
HETATM   29  H2  UNL     1     -10.956   8.650  70.820  1.00  0.00     0.000 HD 
HETATM   30  C   UNL     1      -9.738   8.511  66.830  1.00  0.00    -0.221 A  
HETATM   31  H1  UNL     1      -9.546   7.812  70.713  1.00  0.00     0.000 HD 
HETATM   32  N   UNL     1     -10.266   9.633  66.295  1.00  0.00    -0.246 NA 
HETATM   33  C   UNL     1     -10.823  10.395  67.258  1.00  0.00    -0.264 A  
ENDBRANCH  15  22
ENDBRANCH  12  13
ENDBRANCH  10  12
ENDBRANCH   9  10
ENDBRANCH   8   9
ENDBRANCH   1   8
TORSDOF 6
ENDMDL
MODEL       16
REMARK 921   NORMALIZED FREE ENERGY PREDICTED BY IDOCK:   -6.63 KCAL/MOL
REMARK 922        TOTAL FREE ENERGY PREDICTED BY IDOCK:  -10.38 KCAL/MOL
REMARK 923 INTER-LIGAND FREE ENERGY PREDICTED BY IDOCK:   -9.28 KCAL/MOL
REMARK 924 INTRA-LIGAND FREE ENERGY PREDICTED BY IDOCK:   -1.10 KCAL/MOL
REMARK 927      BINDING AFFINITY PREDICTED BY RF-SCORE:    0.00 PKD
ROOT
HETATM    1  CA  UNL     1     -12.820  15.672  70.831  1.00  0.00    -0.442 C  
HETATM    2  C   UNL     1     -13.140  14.401  71.708  1.00  0.00    -0.354 C  
HETATM    3  N   UNL     1     -11.982  16.619  71.652  1.00  0.00    -0.497 NA 
HETATM    4  OXT UNL     1     -14.259  13.861  71.466  1.00  0.00    -0.250 OA 
HETATM    5  H2  UNL     1     -11.642  17.413  71.111  1.00  0.00     0.000 HD 
HETATM    6  O   UNL     1     -12.249  14.092  72.547  1.00  0.00    -0.063 OA 
HETATM    7  H1  UNL     1     -12.530  16.901  72.465  1.00  0.00     0.000 HD 
ENDROOT
BRANCH   1   8
HETATM    8  C   UNL     1     -12.000  15.249  69.614  1.00  0.00    -0.364 C  
BRANCH   8   9
HETATM    9  C   UNL     1     -10.700  16.035  69.420  1.00  0.00    -0.294 C  
BRANCH   9  10
HETATM   10  S   UNL     1     -10.878  17.235  68.024  1.00  0.00    -0.201 S  
HETATM   11  C   UNL     1     -10.044  18.608  68.873  1.00  0.00    -0.311 C  
BRANCH  10  12
HETATM   12  C   UNL     1      -9.418  16.657  67.060  1.00  0.00    -0.230 C  
BRANCH  12  13
HETATM   13  C   UNL     1      -9.847  15.669  65.966  1.00  0.00    -0.333 C  
HETATM   14  O   UNL     1      -9.887  14.325  66.484  1.00  0.00    -0.268 OA 
HETATM   15  C   UNL     1     -10.687  13.572  65.574  1.00  0.00    -0.290 C  
HETATM   16  C   UNL     1     -11.832  14.511  65.183  1.00  0.00    -0.374 C  
HETATM   17  H   UNL     1     -12.119  16.847  63.905  1.00  0.00     0.000 HD 
HETATM   18  O   UNL     1     -12.226  14.354  63.814  1.00  0.00    -0.929 OA 
HETATM   19  C   UNL     1     -11.260  15.915  65.431  1.00  0.00    -0.100 C  
HETATM   20  O   UNL     1     -11.242  16.695  64.237  1.00  0.00    -1.098 OA 
HETATM   21  H   UNL     1     -12.936  14.936  63.571  1.00  0.00     0.000 HD 
BRANCH  15  22
HETATM   22  N   UNL     1     -11.071  12.320  66.192  1.00  0.00    -0.297 NA 
HETATM   23  C   UNL     1     -11.870  12.165  67.294  1.00  0.00    -0.223 A  
HETATM   24  C   UNL     1     -10.901  10.290  66.978  1.00  0.00    -0.181 A  
HETATM   25  N   UNL     1     -11.784  10.951  67.801  1.00  0.00    -0.565 NA 
HETATM   26  C   UNL     1     -10.351   8.997  67.017  1.00  0.00    -0.269 A  
HETATM   27  N   UNL     1      -9.548   8.606  66.000  1.00  0.00    -0.226 NA 
HETATM   28  N   UNL     1     -10.569   8.106  68.058  1.00  0.00    -0.399 NA 
HETATM   29  H2  UNL     1     -11.579   8.010  68.168  1.00  0.00     0.000 HD 
HETATM   30  C   UNL     1      -9.268   9.497  65.027  1.00  0.00    -0.236 A  
HETATM   31  H1  UNL     1     -10.170   7.168  68.086  1.00  0.00     0.000 HD 
HETATM   32  N   UNL     1      -9.658  10.786  64.925  1.00  0.00    -0.234 NA 
HETATM   33  C   UNL     1     -10.492  11.106  65.934  1.00  0.00    -0.253 A  
ENDBRANCH  15  22
ENDBRANCH  12  13
ENDBRANCH  10  12
ENDBRANCH   9  10
ENDBRANCH   8   9
ENDBRANCH   1   8
TORSDOF 6
ENDMDL
MODEL       17
REMARK 921   NORMALIZED FREE ENERGY PREDICTED BY IDOCK:   -6.63 KCAL/MOL
REMARK 922        TOTAL FREE ENERGY PREDICTED BY IDOCK:  -10.38 KCAL/MOL
REMARK 923 INTER-LIGAND FREE ENERGY PREDICTED BY IDOCK:   -9.34 KCAL/MOL
REMARK 924 INTRA-LIGAND FREE ENERGY PREDICTED BY IDOCK:   -1.03 KCAL/MOL
REMARK 927      BINDING AFFINITY PREDICTED BY RF-SCORE:    0.00 PKD
ROOT
HETATM    1  CA  UNL     1     -11.692   6.616  71.477  1.00  0.00    -0.321 C  
HETATM    2  C   UNL     1     -11.299   7.746  72.503  1.00  0.00    -0.374 C  
HETATM    3  N   UNL     1     -12.838   7.113  70.634  1.00  0.00    -0.578 NA 
HETATM    4  OXT UNL     1     -10.862   7.324  73.613  1.00  0.00    -0.356 OA 
HETATM    5  H2  UNL     1     -13.072   6.477  69.872  1.00  0.00     0.000 HD 
HETATM    6  O   UNL     1     -11.482   8.926  72.093  1.00  0.00    -0.362 OA 
HETATM    7  H1  UNL     1     -13.629   7.295  71.252  1.00  0.00     0.000 HD 
ENDROOT
BRANCH   1   8
HETATM    8  C   UNL     1     -10.509   6.342  70.551  1.00  0.00    -0.270 C  
BRANCH   8   9
HETATM    9  C   UNL     1     -10.889   5.746  69.192  1.00  0.00    -0.285 C  
BRANCH   9  10
HETATM   10  S   UNL     1      -9.816   6.451  67.861  1.00  0.00    -0.129 S  
HETATM   11  C   UNL     1     -10.489   5.407  66.533  1.00  0.00    -0.294 C  
BRANCH  10  12
HETATM   12  C   UNL     1     -10.853   7.934  67.516  1.00  0.00    -0.082 C  
BRANCH  12  13
HETATM   13  C   UNL     1      -9.989   9.202  67.478  1.00  0.00    -0.205 C  
HETATM   14  O   UNL     1     -10.560  10.178  66.584  1.00  0.00    -0.212 OA 
HETATM   15  C   UNL     1      -9.973  11.429  66.933  1.00  0.00    -0.206 C  
HETATM   16  C   UNL     1      -9.901  11.420  68.463  1.00  0.00    -0.198 C  
HETATM   17  H   UNL     1      -8.657  10.011  70.371  1.00  0.00     0.000 HD 
HETATM   18  O   UNL     1      -8.725  12.071  68.960  1.00  0.00    -0.360 OA 
HETATM   19  C   UNL     1      -9.896   9.927  68.824  1.00  0.00    -0.171 C  
HETATM   20  O   UNL     1      -8.715   9.562  69.536  1.00  0.00    -0.147 OA 
HETATM   21  H   UNL     1      -8.680  12.065  69.909  1.00  0.00     0.000 HD 
BRANCH  15  22
HETATM   22  N   UNL     1     -10.738  12.504  66.336  1.00  0.00    -0.245 NA 
HETATM   23  C   UNL     1     -11.877  12.376  65.586  1.00  0.00    -0.409 A  
HETATM   24  C   UNL     1     -11.171  14.368  65.283  1.00  0.00    -0.345 A  
HETATM   25  N   UNL     1     -12.163  13.483  64.928  1.00  0.00    -0.392 NA 
HETATM   26  C   UNL     1     -10.881  15.683  64.881  1.00  0.00    -0.418 A  
HETATM   27  N   UNL     1      -9.853  16.330  65.478  1.00  0.00    -0.508 NA 
HETATM   28  N   UNL     1     -11.578  16.345  63.881  1.00  0.00    -1.602 NA 
HETATM   29  H2  UNL     1     -12.567  16.316  64.130  1.00  0.00     0.000 HD 
HETATM   30  C   UNL     1      -9.122  15.661  66.394  1.00  0.00    -0.320 A  
HETATM   31  H1  UNL     1     -11.367  17.300  63.588  1.00  0.00     0.000 HD 
HETATM   32  N   UNL     1      -9.244  14.377  66.798  1.00  0.00    -0.259 NA 
HETATM   33  C   UNL     1     -10.308  13.798  66.207  1.00  0.00    -0.294 A  
ENDBRANCH  15  22
ENDBRANCH  12  13
ENDBRANCH  10  12
ENDBRANCH   9  10
ENDBRANCH   8   9
ENDBRANCH   1   8
TORSDOF 6
ENDMDL
MODEL       18
REMARK 921   NORMALIZED FREE ENERGY PREDICTED BY IDOCK:   -6.60 KCAL/MOL
REMARK 922        TOTAL FREE ENERGY PREDICTED BY IDOCK:  -10.34 KCAL/MOL
REMARK 923 INTER-LIGAND FREE ENERGY PREDICTED BY IDOCK:   -9.39 KCAL/MOL
REMARK 924 INTRA-LIGAND FREE ENERGY PREDICTED BY IDOCK:   -0.95 KCAL/MOL
REMARK 927      BINDING AFFINITY PREDICTED BY RF-SCORE:    0.00 PKD
ROOT
HETATM    1  CA  UNL     1     -10.272  10.712  65.151  1.00  0.00    -0.299 C  
HETATM    2  C   UNL     1     -10.353  11.138  63.635  1.00  0.00    -0.389 C  
HETATM    3  N   UNL     1      -9.812   9.278  65.219  1.00  0.00    -0.424 NA 
HETATM    4  OXT UNL     1     -11.257  11.985  63.371  1.00  0.00    -0.413 OA 
HETATM    5  H2  UNL     1      -9.627   8.969  66.174  1.00  0.00     0.000 HD 
HETATM    6  O   UNL     1      -9.519  10.573  62.875  1.00  0.00    -0.284 OA 
HETATM    7  H1  UNL     1     -10.507   8.701  64.745  1.00  0.00     0.000 HD 
ENDROOT
BRANCH   1   8
HETATM    8  C   UNL     1      -9.232  11.576  65.861  1.00  0.00    -0.223 C  
BRANCH   8   9
HETATM    9  C   UNL     1      -9.732  12.245  67.145  1.00  0.00    -0.201 C  
BRANCH   9  10
HETATM   10  S   UNL     1     -11.576  12.148  67.242  1.00  0.00    -0.306 S  
HETATM   11  C   UNL     1     -11.610  11.052  68.692  1.00  0.00    -0.316 C  
BRANCH  10  12
HETATM   12  C   UNL     1     -11.823  13.727  68.159  1.00  0.00    -0.376 C  
BRANCH  12  13
HETATM   13  C   UNL     1     -11.841  14.918  67.192  1.00  0.00    -0.211 C  
HETATM   14  O   UNL     1     -10.680  15.749  67.388  1.00  0.00    -0.309 OA 
HETATM   15  C   UNL     1     -10.553  16.540  66.208  1.00  0.00    -0.223 C  
HETATM   16  C   UNL     1     -10.902  15.592  65.057  1.00  0.00    -0.450 C  
HETATM   17  H   UNL     1     -13.040  14.215  64.214  1.00  0.00     0.000 HD 
HETATM   18  O   UNL     1     -11.610  16.252  63.999  1.00  0.00    -1.366 OA 
HETATM   19  C   UNL     1     -11.779  14.516  65.716  1.00  0.00    -0.344 C  
HETATM   20  O   UNL     1     -13.078  14.465  65.130  1.00  0.00    -0.633 OA 
HETATM   21  H   UNL     1     -11.827  15.665  63.285  1.00  0.00     0.000 HD 
BRANCH  15  22
HETATM   22  N   UNL     1      -9.233  17.135  66.167  1.00  0.00    -0.459 NA 
HETATM   23  C   UNL     1      -8.043  16.471  66.030  1.00  0.00    -0.018 A  
HETATM   24  C   UNL     1      -7.565  18.450  66.675  1.00  0.00    -0.236 A  
HETATM   25  N   UNL     1      -7.012  17.235  66.339  1.00  0.00    -0.256 NA 
HETATM   26  C   UNL     1      -7.007  19.650  67.146  1.00  0.00    -0.206 A  
HETATM   27  N   UNL     1      -7.822  20.716  67.321  1.00  0.00    -0.329 NA 
HETATM   28  N   UNL     1      -5.665  19.792  67.468  1.00  0.00    -0.174 NA 
HETATM   29  H2  UNL     1      -5.125  19.508  66.651  1.00  0.00     0.000 HD 
HETATM   30  C   UNL     1      -9.141  20.559  67.086  1.00  0.00    -0.322 A  
HETATM   31  H1  UNL     1      -5.260  20.664  67.810  1.00  0.00     0.000 HD 
HETATM   32  N   UNL     1      -9.806  19.441  66.720  1.00  0.00    -0.336 NA 
HETATM   33  C   UNL     1      -8.942  18.427  66.515  1.00  0.00    -0.286 A  
ENDBRANCH  15  22
ENDBRANCH  12  13
ENDBRANCH  10  12
ENDBRANCH   9  10
ENDBRANCH   8   9
ENDBRANCH   1   8
TORSDOF 6
ENDMDL
MODEL       19
REMARK 921   NORMALIZED FREE ENERGY PREDICTED BY IDOCK:   -6.58 KCAL/MOL
REMARK 922        TOTAL FREE ENERGY PREDICTED BY IDOCK:  -10.30 KCAL/MOL
REMARK 923 INTER-LIGAND FREE ENERGY PREDICTED BY IDOCK:   -9.68 KCAL/MOL
REMARK 924 INTRA-LIGAND FREE ENERGY PREDICTED BY IDOCK:   -0.63 KCAL/MOL
REMARK 927      BINDING AFFINITY PREDICTED BY RF-SCORE:    0.00 PKD
ROOT
HETATM    1  CA  UNL     1     -11.115  11.634  64.039  1.00  0.00    -0.384 C  
HETATM    2  C   UNL     1     -12.430  12.451  63.746  1.00  0.00    -0.492 C  
HETATM    3  N   UNL     1     -10.233  11.695  62.818  1.00  0.00    -0.589 NA 
HETATM    4  OXT UNL     1     -13.467  12.011  64.325  1.00  0.00    -0.654 OA 
HETATM    5  H2  UNL     1      -9.314  11.282  62.975  1.00  0.00     0.000 HD 
HETATM    6  O   UNL     1     -12.288  13.432  62.964  1.00  0.00    -0.622 OA 
HETATM    7  H1  UNL     1     -10.735  11.259  62.044  1.00  0.00     0.000 HD 
ENDROOT
BRANCH   1   8
HETATM    8  C   UNL     1     -10.364  12.286  65.197  1.00  0.00    -0.316 C  
BRANCH   8   9
HETATM    9  C   UNL     1     -10.070  11.348  66.372  1.00  0.00    -0.218 C  
BRANCH   9  10
HETATM   10  S   UNL     1     -11.434  11.434  67.618  1.00  0.00    -0.239 S  
HETATM   11  C   UNL     1     -10.337  11.601  69.058  1.00  0.00    -0.092 C  
BRANCH  10  12
HETATM   12  C   UNL     1     -11.796  13.229  67.412  1.00  0.00    -0.366 C  
BRANCH  12  13
HETATM   13  C   UNL     1     -11.170  14.043  68.553  1.00  0.00    -0.265 C  
HETATM   14  O   UNL     1     -10.082  14.850  68.062  1.00  0.00    -0.218 OA 
HETATM   15  C   UNL     1      -9.860  15.859  69.044  1.00  0.00    -0.234 C  
HETATM   16  C   UNL     1     -11.260  16.272  69.510  1.00  0.00    -0.308 C  
HETATM   17  H   UNL     1     -13.335  15.139  70.768  1.00  0.00     0.000 HD 
HETATM   18  O   UNL     1     -11.302  16.584  70.908  1.00  0.00    -0.522 OA 
HETATM   19  C   UNL     1     -12.132  15.047  69.194  1.00  0.00    -0.225 C  
HETATM   20  O   UNL     1     -12.739  14.516  70.370  1.00  0.00    -0.355 OA 
HETATM   21  H   UNL     1     -12.170  16.840  71.197  1.00  0.00     0.000 HD 
BRANCH  15  22
HETATM   22  N   UNL     1      -9.039  16.910  68.479  1.00  0.00    -0.250 NA 
HETATM   23  C   UNL     1      -7.702  17.107  68.699  1.00  0.00    -0.260 A  
HETATM   24  C   UNL     1      -8.442  18.898  67.803  1.00  0.00    -0.284 A  
HETATM   25  N   UNL     1      -7.308  18.305  68.310  1.00  0.00    -0.259 NA 
HETATM   26  C   UNL     1      -8.694  20.182  67.290  1.00  0.00    -0.348 A  
HETATM   27  N   UNL     1      -9.923  20.448  66.791  1.00  0.00    -0.439 NA 
HETATM   28  N   UNL     1      -7.754  21.203  67.293  1.00  0.00    -0.656 NA 
HETATM   29  H2  UNL     1      -6.920  20.848  66.825  1.00  0.00     0.000 HD 
HETATM   30  C   UNL     1     -10.864  19.484  66.860  1.00  0.00    -0.411 A  
HETATM   31  H1  UNL     1      -7.937  22.135  66.921  1.00  0.00     0.000 HD 
HETATM   32  N   UNL     1     -10.772  18.252  67.406  1.00  0.00    -0.397 NA 
HETATM   33  C   UNL     1      -9.517  18.025  67.843  1.00  0.00    -0.273 A  
ENDBRANCH  15  22
ENDBRANCH  12  13
ENDBRANCH  10  12
ENDBRANCH   9  10
ENDBRANCH   8   9
ENDBRANCH   1   8
TORSDOF 6
ENDMDL
MODEL       20
REMARK 921   NORMALIZED FREE ENERGY PREDICTED BY IDOCK:   -6.56 KCAL/MOL
REMARK 922        TOTAL FREE ENERGY PREDICTED BY IDOCK:  -10.27 KCAL/MOL
REMARK 923 INTER-LIGAND FREE ENERGY PREDICTED BY IDOCK:   -9.94 KCAL/MOL
REMARK 924 INTRA-LIGAND FREE ENERGY PREDICTED BY IDOCK:   -0.33 KCAL/MOL
REMARK 927      BINDING AFFINITY PREDICTED BY RF-SCORE:    0.00 PKD
ROOT
HETATM    1  CA  UNL     1     -11.287   9.772  71.130  1.00  0.00    -0.389 C  
HETATM    2  C   UNL     1     -12.590   8.974  71.521  1.00  0.00    -0.338 C  
HETATM    3  N   UNL     1     -10.088   8.927  71.476  1.00  0.00    -0.297 NA 
HETATM    4  OXT UNL     1     -13.561   9.696  71.891  1.00  0.00    -0.391 OA 
HETATM    5  H2  UNL     1      -9.212   9.333  71.146  1.00  0.00     0.000 HD 
HETATM    6  O   UNL     1     -12.495   7.719  71.427  1.00  0.00    -0.316 OA 
HETATM    7  H1  UNL     1     -10.095   8.767  72.483  1.00  0.00     0.000 HD 
ENDROOT
BRANCH   1   8
HETATM    8  C   UNL     1     -11.278  10.013  69.622  1.00  0.00    -0.285 C  
BRANCH   8   9
HETATM    9  C   UNL     1     -10.542  11.283  69.186  1.00  0.00    -0.187 C  
BRANCH   9  10
HETATM   10  S   UNL     1     -11.722  12.470  68.400  1.00  0.00    -0.315 S  
HETATM   11  C   UNL     1     -11.730  13.643  69.788  1.00  0.00    -0.297 C  
BRANCH  10  12
HETATM   12  C   UNL     1     -10.477  13.358  67.373  1.00  0.00    -0.243 C  
BRANCH  12  13
HETATM   13  C   UNL     1     -11.108  14.580  66.692  1.00  0.00    -0.333 C  
HETATM   14  O   UNL     1     -10.634  15.799  67.298  1.00  0.00    -0.303 OA 
HETATM   15  C   UNL     1     -10.906  16.840  66.362  1.00  0.00     0.011 C  
HETATM   16  C   UNL     1     -10.587  16.234  64.992  1.00  0.00    -0.233 C  
HETATM   17  H   UNL     1     -11.515  14.252  63.448  1.00  0.00     0.000 HD 
HETATM   18  O   UNL     1     -11.480  16.694  63.969  1.00  0.00    -1.523 OA 
HETATM   19  C   UNL     1     -10.739  14.721  65.212  1.00  0.00    -0.390 C  
HETATM   20  O   UNL     1     -11.744  14.165  64.366  1.00  0.00    -0.399 OA 
HETATM   21  H   UNL     1     -11.283  16.319  63.119  1.00  0.00     0.000 HD 
BRANCH  15  22
HETATM   22  N   UNL     1     -10.155  18.024  66.727  1.00  0.00    -0.337 NA 
HETATM   23  C   UNL     1     -10.673  19.239  67.089  1.00  0.00    -0.480 A  
HETATM   24  C   UNL     1      -8.604  19.560  66.671  1.00  0.00    -0.340 A  
HETATM   25  N   UNL     1      -9.764  20.194  67.056  1.00  0.00    -0.410 NA 
HETATM   26  C   UNL     1      -7.309  20.032  66.399  1.00  0.00    -0.275 A  
HETATM   27  N   UNL     1      -6.342  19.132  66.104  1.00  0.00    -0.181 NA 
HETATM   28  N   UNL     1      -6.973  21.378  66.391  1.00  0.00    -0.691 NA 
HETATM   29  H2  UNL     1      -7.254  21.766  67.291  1.00  0.00     0.000 HD 
HETATM   30  C   UNL     1      -6.683  17.828  66.032  1.00  0.00    -0.281 A  
HETATM   31  H1  UNL     1      -6.033  21.720  66.193  1.00  0.00     0.000 HD 
HETATM   32  N   UNL     1      -7.901  17.264  66.182  1.00  0.00    -0.444 NA 
HETATM   33  C   UNL     1      -8.812  18.198  66.519  1.00  0.00    -0.271 A  
ENDBRANCH  15  22
ENDBRANCH  12  13
ENDBRANCH  10  12
ENDBRANCH   9  10
ENDBRANCH   8   9
ENDBRANCH   1   8
TORSDOF 6
ENDMDL
MODEL       21
REMARK 921   NORMALIZED FREE ENERGY PREDICTED BY IDOCK:   -6.53 KCAL/MOL
REMARK 922        TOTAL FREE ENERGY PREDICTED BY IDOCK:  -10.24 KCAL/MOL
REMARK 923 INTER-LIGAND FREE ENERGY PREDICTED BY IDOCK:   -9.23 KCAL/MOL
REMARK 924 INTRA-LIGAND FREE ENERGY PREDICTED BY IDOCK:   -1.01 KCAL/MOL
REMARK 927      BINDING AFFINITY PREDICTED BY RF-SCORE:    0.00 PKD
ROOT
HETATM    1  CA  UNL     1     -11.097  11.734  63.803  1.00  0.00    -0.436 C  
HETATM    2  C   UNL     1     -12.485  12.478  63.738  1.00  0.00    -0.455 C  
HETATM    3  N   UNL     1     -10.194  12.315  62.745  1.00  0.00    -0.275 NA 
HETATM    4  OXT UNL     1     -13.482  11.765  64.053  1.00  0.00    -0.493 OA 
HETATM    5  H2  UNL     1      -9.240  11.960  62.803  1.00  0.00     0.000 HD 
HETATM    6  O   UNL     1     -12.429  13.684  63.369  1.00  0.00    -0.784 OA 
HETATM    7  H1  UNL     1     -10.624  12.145  61.836  1.00  0.00     0.000 HD 
ENDROOT
BRANCH   1   8
HETATM    8  C   UNL     1     -10.453  11.988  65.164  1.00  0.00    -0.328 C  
BRANCH   8   9
HETATM    9  C   UNL     1     -10.272  10.734  66.025  1.00  0.00    -0.251 C  
BRANCH   9  10
HETATM   10  S   UNL     1     -10.915  11.030  67.733  1.00  0.00    -0.289 S  
HETATM   11  C   UNL     1      -9.348  11.672  68.394  1.00  0.00    -0.191 C  
BRANCH  10  12
HETATM   12  C   UNL     1     -11.690  12.666  67.387  1.00  0.00    -0.369 C  
BRANCH  12  13
HETATM   13  C   UNL     1     -11.064  13.759  68.264  1.00  0.00    -0.255 C  
HETATM   14  O   UNL     1     -10.468  14.785  67.447  1.00  0.00    -0.252 OA 
HETATM   15  C   UNL     1     -10.315  15.926  68.289  1.00  0.00    -0.242 C  
HETATM   16  C   UNL     1     -11.587  15.961  69.142  1.00  0.00    -0.379 C  
HETATM   17  H   UNL     1     -12.763  14.427  70.996  1.00  0.00     0.000 HD 
HETATM   18  O   UNL     1     -11.337  16.412  70.479  1.00  0.00    -0.478 OA 
HETATM   19  C   UNL     1     -12.077  14.505  69.136  1.00  0.00    -0.264 C  
HETATM   20  O   UNL     1     -12.134  13.964  70.455  1.00  0.00    -0.315 OA 
HETATM   21  H   UNL     1     -12.126  16.434  71.009  1.00  0.00     0.000 HD 
BRANCH  15  22
HETATM   22  N   UNL     1     -10.060  17.096  67.475  1.00  0.00    -0.291 NA 
HETATM   23  C   UNL     1     -10.486  17.305  66.190  1.00  0.00    -0.278 A  
HETATM   24  C   UNL     1      -8.976  18.764  66.574  1.00  0.00    -0.319 A  
HETATM   25  N   UNL     1      -9.844  18.301  65.612  1.00  0.00    -0.381 NA 
HETATM   26  C   UNL     1      -7.988  19.763  66.561  1.00  0.00    -0.319 A  
HETATM   27  N   UNL     1      -7.334  20.040  67.714  1.00  0.00    -0.285 NA 
HETATM   28  N   UNL     1      -7.627  20.465  65.420  1.00  0.00    -0.475 NA 
HETATM   29  H2  UNL     1      -8.478  20.876  65.035  1.00  0.00     0.000 HD 
HETATM   30  C   UNL     1      -7.625  19.304  68.807  1.00  0.00    -0.358 A  
HETATM   31  H1  UNL     1      -6.909  21.190  65.411  1.00  0.00     0.000 HD 
HETATM   32  N   UNL     1      -8.482  18.267  68.923  1.00  0.00    -0.206 NA 
HETATM   33  C   UNL     1      -9.137  18.067  67.762  1.00  0.00    -0.262 A  
ENDBRANCH  15  22
ENDBRANCH  12  13
ENDBRANCH  10  12
ENDBRANCH   9  10
ENDBRANCH   8   9
ENDBRANCH   1   8
TORSDOF 6
ENDMDL
MODEL       22
REMARK 921   NORMALIZED FREE ENERGY PREDICTED BY IDOCK:   -6.53 KCAL/MOL
REMARK 922        TOTAL FREE ENERGY PREDICTED BY IDOCK:  -10.24 KCAL/MOL
REMARK 923 INTER-LIGAND FREE ENERGY PREDICTED BY IDOCK:   -9.41 KCAL/MOL
REMARK 924 INTRA-LIGAND FREE ENERGY PREDICTED BY IDOCK:   -0.83 KCAL/MOL
REMARK 927      BINDING AFFINITY PREDICTED BY RF-SCORE:    0.00 PKD
ROOT
HETATM    1  CA  UNL     1      -8.938  19.565  66.200  1.00  0.00    -0.310 C  
HETATM    2  C   UNL     1     -10.507  19.604  66.342  1.00  0.00    -0.513 C  
HETATM    3  N   UNL     1      -8.329  20.065  67.485  1.00  0.00    -0.326 NA 
HETATM    4  OXT UNL     1     -11.131  19.836  65.266  1.00  0.00    -0.395 OA 
HETATM    5  H2  UNL     1      -7.315  19.961  67.507  1.00  0.00     0.000 HD 
HETATM    6  O   UNL     1     -10.942  19.411  67.512  1.00  0.00    -0.464 OA 
HETATM    7  H1  UNL     1      -8.630  21.029  67.622  1.00  0.00     0.000 HD 
ENDROOT
BRANCH   1   8
HETATM    8  C   UNL     1      -8.487  18.121  65.993  1.00  0.00    -0.040 C  
BRANCH   8   9
HETATM    9  C   UNL     1      -8.174  17.361  67.286  1.00  0.00    -0.205 C  
BRANCH   9  10
HETATM   10  S   UNL     1      -9.036  15.726  67.293  1.00  0.00    -0.204 S  
HETATM   11  C   UNL     1     -10.417  16.268  68.343  1.00  0.00    -0.282 C  
BRANCH  10  12
HETATM   12  C   UNL     1      -9.897  15.933  65.677  1.00  0.00    -0.302 C  
BRANCH  12  13
HETATM   13  C   UNL     1     -10.465  14.594  65.189  1.00  0.00    -0.416 C  
HETATM   14  O   UNL     1     -10.039  13.519  66.049  1.00  0.00    -0.297 OA 
HETATM   15  C   UNL     1     -10.930  12.434  65.801  1.00  0.00    -0.298 C  
HETATM   16  C   UNL     1     -12.309  13.082  65.646  1.00  0.00    -0.446 C  
HETATM   17  H   UNL     1     -13.509  14.789  63.967  1.00  0.00     0.000 HD 
HETATM   18  O   UNL     1     -13.117  12.423  64.663  1.00  0.00    -0.825 OA 
HETATM   19  C   UNL     1     -11.995  14.524  65.221  1.00  0.00    -0.353 C  
HETATM   20  O   UNL     1     -12.560  14.832  63.948  1.00  0.00    -0.834 OA 
HETATM   21  H   UNL     1     -13.972  12.825  64.566  1.00  0.00     0.000 HD 
BRANCH  15  22
HETATM   22  N   UNL     1     -10.802  11.453  66.859  1.00  0.00    -0.272 NA 
HETATM   23  C   UNL     1     -10.518  10.121  66.707  1.00  0.00    -0.204 A  
HETATM   24  C   UNL     1     -11.229  10.367  68.705  1.00  0.00    -0.248 A  
HETATM   25  N   UNL     1     -10.774   9.432  67.802  1.00  0.00    -0.257 NA 
HETATM   26  C   UNL     1     -11.715  10.260  70.019  1.00  0.00    -0.254 A  
HETATM   27  N   UNL     1     -12.024  11.396  70.687  1.00  0.00    -0.352 NA 
HETATM   28  N   UNL     1     -11.919   9.047  70.661  1.00  0.00    -0.469 NA 
HETATM   29  H2  UNL     1     -11.040   8.531  70.620  1.00  0.00     0.000 HD 
HETATM   30  C   UNL     1     -11.904  12.573  70.039  1.00  0.00    -0.289 A  
HETATM   31  H1  UNL     1     -12.272   8.970  71.615  1.00  0.00     0.000 HD 
HETATM   32  N   UNL     1     -11.537  12.797  68.758  1.00  0.00    -0.290 NA 
HETATM   33  C   UNL     1     -11.196  11.640  68.157  1.00  0.00    -0.263 A  
ENDBRANCH  15  22
ENDBRANCH  12  13
ENDBRANCH  10  12
ENDBRANCH   9  10
ENDBRANCH   8   9
ENDBRANCH   1   8
TORSDOF 6
ENDMDL
MODEL       23
REMARK 921   NORMALIZED FREE ENERGY PREDICTED BY IDOCK:   -6.52 KCAL/MOL
REMARK 922        TOTAL FREE ENERGY PREDICTED BY IDOCK:  -10.23 KCAL/MOL
REMARK 923 INTER-LIGAND FREE ENERGY PREDICTED BY IDOCK:   -8.49 KCAL/MOL
REMARK 924 INTRA-LIGAND FREE ENERGY PREDICTED BY IDOCK:   -1.74 KCAL/MOL
REMARK 927      BINDING AFFINITY PREDICTED BY RF-SCORE:    0.00 PKD
ROOT
HETATM    1  CA  UNL     1     -11.745   9.242  70.208  1.00  0.00    -0.051 C  
HETATM    2  C   UNL     1     -12.048   8.374  71.488  1.00  0.00    -0.301 C  
HETATM    3  N   UNL     1     -11.396  10.640  70.650  1.00  0.00    -0.409 NA 
HETATM    4  OXT UNL     1     -12.913   7.465  71.319  1.00  0.00    -0.351 OA 
HETATM    5  H2  UNL     1     -11.077  11.228  69.881  1.00  0.00     0.000 HD 
HETATM    6  O   UNL     1     -11.402   8.702  72.522  1.00  0.00    -0.340 OA 
HETATM    7  H1  UNL     1     -12.205  11.028  71.135  1.00  0.00     0.000 HD 
ENDROOT
BRANCH   1   8
HETATM    8  C   UNL     1     -10.535   8.660  69.481  1.00  0.00    -0.222 C  
BRANCH   8   9
HETATM    9  C   UNL     1      -9.336   9.609  69.382  1.00  0.00    -0.193 C  
BRANCH   9  10
HETATM   10  S   UNL     1      -8.766   9.740  67.628  1.00  0.00    -0.125 S  
HETATM   11  C   UNL     1     -10.395   9.406  66.895  1.00  0.00    -0.238 C  
BRANCH  10  12
HETATM   12  C   UNL     1      -8.849  11.577  67.514  1.00  0.00    -0.155 C  
BRANCH  12  13
HETATM   13  C   UNL     1     -10.307  12.050  67.441  1.00  0.00    -0.207 C  
HETATM   14  O   UNL     1     -10.676  12.746  68.649  1.00  0.00    -0.245 OA 
HETATM   15  C   UNL     1     -11.841  13.504  68.331  1.00  0.00    -0.373 C  
HETATM   16  C   UNL     1     -11.589  14.045  66.921  1.00  0.00    -0.386 C  
HETATM   17  H   UNL     1     -11.250  13.051  64.457  1.00  0.00     0.000 HD 
HETATM   18  O   UNL     1     -12.784  14.092  66.131  1.00  0.00    -0.494 OA 
HETATM   19  C   UNL     1     -10.574  13.060  66.322  1.00  0.00    -0.271 C  
HETATM   20  O   UNL     1     -11.085  12.424  65.152  1.00  0.00    -0.292 OA 
HETATM   21  H   UNL     1     -12.628  14.428  65.256  1.00  0.00     0.000 HD 
BRANCH  15  22
HETATM   22  N   UNL     1     -12.068  14.493  69.364  1.00  0.00    -0.307 NA 
HETATM   23  C   UNL     1     -11.553  15.762  69.406  1.00  0.00    -0.365 A  
HETATM   24  C   UNL     1     -12.315  15.351  71.357  1.00  0.00    -0.379 A  
HETATM   25  N   UNL     1     -11.677  16.307  70.601  1.00  0.00    -0.263 NA 
HETATM   26  C   UNL     1     -12.679  15.299  72.714  1.00  0.00    -0.397 A  
HETATM   27  N   UNL     1     -13.376  14.226  73.155  1.00  0.00    -0.600 NA 
HETATM   28  N   UNL     1     -12.336  16.280  73.633  1.00  0.00    -0.532 NA 
HETATM   29  H2  UNL     1     -12.669  17.170  73.264  1.00  0.00     0.000 HD 
HETATM   30  C   UNL     1     -13.641  13.232  72.282  1.00  0.00    -0.605 A  
HETATM   31  H1  UNL     1     -12.600  16.241  74.618  1.00  0.00     0.000 HD 
HETATM   32  N   UNL     1     -13.271  13.125  70.987  1.00  0.00    -0.037 NA 
HETATM   33  C   UNL     1     -12.623  14.237  70.590  1.00  0.00    -0.355 A  
ENDBRANCH  15  22
ENDBRANCH  12  13
ENDBRANCH  10  12
ENDBRANCH   9  10
ENDBRANCH   8   9
ENDBRANCH   1   8
TORSDOF 6
ENDMDL
MODEL       24
REMARK 921   NORMALIZED FREE ENERGY PREDICTED BY IDOCK:   -6.50 KCAL/MOL
REMARK 922        TOTAL FREE ENERGY PREDICTED BY IDOCK:  -10.19 KCAL/MOL
REMARK 923 INTER-LIGAND FREE ENERGY PREDICTED BY IDOCK:   -9.58 KCAL/MOL
REMARK 924 INTRA-LIGAND FREE ENERGY PREDICTED BY IDOCK:   -0.61 KCAL/MOL
REMARK 927      BINDING AFFINITY PREDICTED BY RF-SCORE:    0.00 PKD
ROOT
HETATM    1  CA  UNL     1     -12.383   8.212  71.256  1.00  0.00    -0.265 C  
HETATM    2  C   UNL     1     -11.837   6.734  71.209  1.00  0.00    -0.348 C  
HETATM    3  N   UNL     1     -13.253   8.361  72.477  1.00  0.00    -0.598 NA 
HETATM    4  OXT UNL     1     -11.659   6.272  70.044  1.00  0.00    -0.425 OA 
HETATM    5  H2  UNL     1     -13.550   9.324  72.634  1.00  0.00     0.000 HD 
HETATM    6  O   UNL     1     -11.659   6.194  72.336  1.00  0.00    -0.295 OA 
HETATM    7  H1  UNL     1     -14.037   7.716  72.387  1.00  0.00     0.000 HD 
ENDROOT
BRANCH   1   8
HETATM    8  C   UNL     1     -11.208   9.178  71.390  1.00  0.00    -0.419 C  
BRANCH   8   9
HETATM    9  C   UNL     1     -11.148  10.261  70.309  1.00  0.00    -0.319 C  
BRANCH   9  10
HETATM   10  S   UNL     1      -9.600  10.087  69.313  1.00  0.00    -0.227 S  
HETATM   11  C   UNL     1      -8.778   8.956  70.475  1.00  0.00    -0.186 C  
BRANCH  10  12
HETATM   12  C   UNL     1     -10.232   8.794  68.162  1.00  0.00    -0.205 C  
BRANCH  12  13
HETATM   13  C   UNL     1      -9.947   9.180  66.704  1.00  0.00    -0.273 C  
HETATM   14  O   UNL     1     -10.906  10.150  66.240  1.00  0.00    -0.044 OA 
HETATM   15  C   UNL     1     -10.329  10.758  65.085  1.00  0.00    -0.271 C  
HETATM   16  C   UNL     1      -8.845  10.925  65.425  1.00  0.00    -0.180 C  
HETATM   17  H   UNL     1      -6.752   9.340  65.954  1.00  0.00     0.000 HD 
HETATM   18  O   UNL     1      -7.997  10.723  64.288  1.00  0.00    -0.359 OA 
HETATM   19  C   UNL     1      -8.589   9.855  66.498  1.00  0.00    -0.124 C  
HETATM   20  O   UNL     1      -7.595   8.921  66.082  1.00  0.00    -0.089 OA 
HETATM   21  H   UNL     1      -7.076  10.826  64.499  1.00  0.00     0.000 HD 
BRANCH  15  22
HETATM   22  N   UNL     1     -11.052  11.972  64.768  1.00  0.00    -0.308 NA 
HETATM   23  C   UNL     1     -11.913  12.159  63.719  1.00  0.00    -0.513 A  
HETATM   24  C   UNL     1     -11.449  14.100  64.477  1.00  0.00    -0.372 A  
HETATM   25  N   UNL     1     -12.166  13.436  63.508  1.00  0.00    -0.699 NA 
HETATM   26  C   UNL     1     -11.255  15.465  64.748  1.00  0.00    -0.395 A  
HETATM   27  N   UNL     1     -10.535  15.811  65.841  1.00  0.00    -0.333 NA 
HETATM   28  N   UNL     1     -11.743  16.480  63.938  1.00  0.00    -1.484 NA 
HETATM   29  H2  UNL     1     -12.747  16.331  63.836  1.00  0.00     0.000 HD 
HETATM   30  C   UNL     1      -9.991  14.827  66.586  1.00  0.00    -0.264 A  
HETATM   31  H1  UNL     1     -11.602  17.471  64.135  1.00  0.00     0.000 HD 
HETATM   32  N   UNL     1     -10.029  13.492  66.380  1.00  0.00    -0.288 NA 
HETATM   33  C   UNL     1     -10.796  13.204  65.310  1.00  0.00    -0.297 A  
ENDBRANCH  15  22
ENDBRANCH  12  13
ENDBRANCH  10  12
ENDBRANCH   9  10
ENDBRANCH   8   9
ENDBRANCH   1   8
TORSDOF 6
ENDMDL
MODEL       25
REMARK 921   NORMALIZED FREE ENERGY PREDICTED BY IDOCK:   -6.48 KCAL/MOL
REMARK 922        TOTAL FREE ENERGY PREDICTED BY IDOCK:  -10.17 KCAL/MOL
REMARK 923 INTER-LIGAND FREE ENERGY PREDICTED BY IDOCK:   -9.39 KCAL/MOL
REMARK 924 INTRA-LIGAND FREE ENERGY PREDICTED BY IDOCK:   -0.78 KCAL/MOL
REMARK 927      BINDING AFFINITY PREDICTED BY RF-SCORE:    0.00 PKD
ROOT
HETATM    1  CA  UNL     1     -12.035  12.010  64.360  1.00  0.00    -0.300 C  
HETATM    2  C   UNL     1     -12.655  13.458  64.296  1.00  0.00    -0.158 C  
HETATM    3  N   UNL     1     -11.924  11.475  62.956  1.00  0.00    -0.908 NA 
HETATM    4  OXT UNL     1     -13.369  13.772  65.292  1.00  0.00    -0.710 OA 
HETATM    5  H2  UNL     1     -11.426  10.586  62.911  1.00  0.00     0.000 HD 
HETATM    6  O   UNL     1     -12.373  14.114  63.255  1.00  0.00    -0.680 OA 
HETATM    7  H1  UNL     1     -12.864  11.420  62.564  1.00  0.00     0.000 HD 
ENDROOT
BRANCH   1   8
HETATM    8  C   UNL     1     -10.627  12.091  64.947  1.00  0.00    -0.334 C  
BRANCH   8   9
HETATM    9  C   UNL     1     -10.306  11.007  65.980  1.00  0.00    -0.254 C  
BRANCH   9  10
HETATM   10  S   UNL     1      -9.805  11.778  67.584  1.00  0.00    -0.188 S  
HETATM   11  C   UNL     1      -8.155  12.289  67.017  1.00  0.00    -0.141 C  
BRANCH  10  12
HETATM   12  C   UNL     1     -10.640  13.397  67.311  1.00  0.00    -0.255 C  
BRANCH  12  13
HETATM   13  C   UNL     1     -10.398  14.339  68.498  1.00  0.00    -0.244 C  
HETATM   14  O   UNL     1      -9.757  15.553  68.059  1.00  0.00    -0.207 OA 
HETATM   15  C   UNL     1      -9.967  16.511  69.095  1.00  0.00    -0.275 C  
HETATM   16  C   UNL     1     -11.403  16.272  69.570  1.00  0.00    -0.276 C  
HETATM   17  H   UNL     1     -12.789  14.308  70.751  1.00  0.00     0.000 HD 
HETATM   18  O   UNL     1     -11.551  16.464  70.983  1.00  0.00    -0.584 OA 
HETATM   19  C   UNL     1     -11.683  14.812  69.184  1.00  0.00    -0.313 C  
HETATM   20  O   UNL     1     -11.992  14.015  70.325  1.00  0.00    -0.305 OA 
HETATM   21  H   UNL     1     -12.441  16.316  71.278  1.00  0.00     0.000 HD 
BRANCH  15  22
HETATM   22  N   UNL     1      -9.673  17.837  68.592  1.00  0.00    -0.336 NA 
HETATM   23  C   UNL     1     -10.483  18.607  67.801  1.00  0.00    -0.411 A  
HETATM   24  C   UNL     1      -8.542  19.493  67.728  1.00  0.00    -0.315 A  
HETATM   25  N   UNL     1      -9.828  19.613  67.254  1.00  0.00    -0.348 NA 
HETATM   26  C   UNL     1      -7.363  20.215  67.474  1.00  0.00    -0.290 A  
HETATM   27  N   UNL     1      -6.246  19.892  68.165  1.00  0.00    -0.237 NA 
HETATM   28  N   UNL     1      -7.279  21.228  66.529  1.00  0.00    -0.652 NA 
HETATM   29  H2  UNL     1      -8.009  21.906  66.746  1.00  0.00     0.000 HD 
HETATM   30  C   UNL     1      -6.303  18.855  69.026  1.00  0.00    -0.267 A  
HETATM   31  H1  UNL     1      -6.423  21.752  66.344  1.00  0.00     0.000 HD 
HETATM   32  N   UNL     1      -7.343  18.033  69.289  1.00  0.00    -0.105 NA 
HETATM   33  C   UNL     1      -8.438  18.429  68.611  1.00  0.00    -0.295 A  
ENDBRANCH  15  22
ENDBRANCH  12  13
ENDBRANCH  10  12
ENDBRANCH   9  10
ENDBRANCH   8   9
ENDBRANCH   1   8
TORSDOF 6
ENDMDL
MODEL       26
REMARK 921   NORMALIZED FREE ENERGY PREDICTED BY IDOCK:   -6.47 KCAL/MOL
REMARK 922        TOTAL FREE ENERGY PREDICTED BY IDOCK:  -10.16 KCAL/MOL
REMARK 923 INTER-LIGAND FREE ENERGY PREDICTED BY IDOCK:   -9.50 KCAL/MOL
REMARK 924 INTRA-LIGAND FREE ENERGY PREDICTED BY IDOCK:   -0.66 KCAL/MOL
REMARK 927      BINDING AFFINITY PREDICTED BY RF-SCORE:    0.00 PKD
ROOT
HETATM    1  CA  UNL     1     -10.686  14.268  64.856  1.00  0.00    -0.432 C  
HETATM    2  C   UNL     1     -11.423  13.191  63.972  1.00  0.00    -0.406 C  
HETATM    3  N   UNL     1     -11.117  15.638  64.398  1.00  0.00    -0.787 NA 
HETATM    4  OXT UNL     1     -10.764  12.129  63.772  1.00  0.00    -0.357 OA 
HETATM    5  H2  UNL     1     -10.766  16.383  64.999  1.00  0.00     0.000 HD 
HETATM    6  O   UNL     1     -12.570  13.527  63.565  1.00  0.00    -0.738 OA 
HETATM    7  H1  UNL     1     -10.832  15.749  63.425  1.00  0.00     0.000 HD 
ENDROOT
BRANCH   1   8
HETATM    8  C   UNL     1     -11.112  14.101  66.313  1.00  0.00    -0.318 C  
BRANCH   8   9
HETATM    9  C   UNL     1     -10.912  15.348  67.180  1.00  0.00    -0.317 C  
BRANCH   9  10
HETATM   10  S   UNL     1     -10.117  14.891  68.785  1.00  0.00    -0.245 S  
HETATM   11  C   UNL     1      -8.874  16.217  68.741  1.00  0.00    -0.233 C  
BRANCH  10  12
HETATM   12  C   UNL     1     -11.323  15.760  69.874  1.00  0.00    -0.349 C  
BRANCH  12  13
HETATM   13  C   UNL     1     -12.439  14.806  70.319  1.00  0.00    -0.340 C  
HETATM   14  O   UNL     1     -12.137  13.453  69.923  1.00  0.00    -0.324 OA 
HETATM   15  C   UNL     1     -12.960  12.611  70.726  1.00  0.00     0.097 C  
HETATM   16  C   UNL     1     -12.951  13.255  72.115  1.00  0.00    -0.292 C  
HETATM   17  H   UNL     1     -13.766  15.550  73.231  1.00  0.00     0.000 HD 
HETATM   18  O   UNL     1     -14.213  13.134  72.784  1.00  0.00    -0.710 OA 
HETATM   19  C   UNL     1     -12.617  14.729  71.837  1.00  0.00    -0.334 C  
HETATM   20  O   UNL     1     -13.655  15.598  72.289  1.00  0.00    -0.470 OA 
HETATM   21  H   UNL     1     -14.207  13.534  73.646  1.00  0.00     0.000 HD 
BRANCH  15  22
HETATM   22  N   UNL     1     -12.474  11.248  70.652  1.00  0.00    -0.352 NA 
HETATM   23  C   UNL     1     -12.290  10.389  71.702  1.00  0.00    -0.304 A  
HETATM   24  C   UNL     1     -11.262   9.540  70.035  1.00  0.00    -0.209 A  
HETATM   25  N   UNL     1     -11.552   9.349  71.367  1.00  0.00    -0.352 NA 
HETATM   26  C   UNL     1     -10.474   8.820  69.121  1.00  0.00    -0.217 A  
HETATM   27  N   UNL     1     -10.442   9.230  67.832  1.00  0.00    -0.231 NA 
HETATM   28  N   UNL     1      -9.703   7.723  69.477  1.00  0.00    -0.164 NA 
HETATM   29  H2  UNL     1     -10.321   7.054  69.937  1.00  0.00     0.000 HD 
HETATM   30  C   UNL     1     -11.127  10.344  67.498  1.00  0.00    -0.267 A  
HETATM   31  H1  UNL     1      -9.130   7.201  68.814  1.00  0.00     0.000 HD 
HETATM   32  N   UNL     1     -11.842  11.166  68.296  1.00  0.00    -0.577 NA 
HETATM   33  C   UNL     1     -11.878  10.685  69.555  1.00  0.00    -0.273 A  
ENDBRANCH  15  22
ENDBRANCH  12  13
ENDBRANCH  10  12
ENDBRANCH   9  10
ENDBRANCH   8   9
ENDBRANCH   1   8
TORSDOF 6
ENDMDL
MODEL       27
REMARK 921   NORMALIZED FREE ENERGY PREDICTED BY IDOCK:   -6.46 KCAL/MOL
REMARK 922        TOTAL FREE ENERGY PREDICTED BY IDOCK:  -10.14 KCAL/MOL
REMARK 923 INTER-LIGAND FREE ENERGY PREDICTED BY IDOCK:   -8.68 KCAL/MOL
REMARK 924 INTRA-LIGAND FREE ENERGY PREDICTED BY IDOCK:   -1.46 KCAL/MOL
REMARK 927      BINDING AFFINITY PREDICTED BY RF-SCORE:    0.00 PKD
ROOT
HETATM    1  CA  UNL     1     -11.899  10.097  70.538  1.00  0.00    -0.321 C  
HETATM    2  C   UNL     1     -13.173  10.249  71.454  1.00  0.00    -0.370 C  
HETATM    3  N   UNL     1     -11.404  11.473  70.176  1.00  0.00    -0.498 NA 
HETATM    4  OXT UNL     1     -14.031   9.327  71.325  1.00  0.00    -0.291 OA 
HETATM    5  H2  UNL     1     -10.515  11.453  69.677  1.00  0.00     0.000 HD 
HETATM    6  O   UNL     1     -13.182  11.275  72.190  1.00  0.00    -0.481 OA 
HETATM    7  H1  UNL     1     -12.140  11.946  69.652  1.00  0.00     0.000 HD 
ENDROOT
BRANCH   1   8
HETATM    8  C   UNL     1     -10.797   9.388  71.322  1.00  0.00    -0.431 C  
BRANCH   8   9
HETATM    9  C   UNL     1      -9.815   8.591  70.458  1.00  0.00    -0.180 C  
BRANCH   9  10
HETATM   10  S   UNL     1      -8.074   8.967  70.954  1.00  0.00    -0.161 S  
HETATM   11  C   UNL     1      -7.375   7.421  70.302  1.00  0.00    -0.078 C  
BRANCH  10  12
HETATM   12  C   UNL     1      -7.662  10.022  69.501  1.00  0.00    -0.146 C  
BRANCH  12  13
HETATM   13  C   UNL     1      -8.765   9.933  68.437  1.00  0.00    -0.120 C  
HETATM   14  O   UNL     1      -9.180  11.251  68.026  1.00  0.00    -0.149 OA 
HETATM   15  C   UNL     1      -9.850  11.085  66.778  1.00  0.00    -0.197 C  
HETATM   16  C   UNL     1      -9.031  10.032  66.025  1.00  0.00    -0.148 C  
HETATM   17  H   UNL     1      -8.395   7.447  66.320  1.00  0.00     0.000 HD 
HETATM   18  O   UNL     1      -9.852   9.161  65.236  1.00  0.00    -0.444 OA 
HETATM   19  C   UNL     1      -8.318   9.251  67.140  1.00  0.00    -0.124 C  
HETATM   20  O   UNL     1      -8.672   7.870  67.125  1.00  0.00    -0.128 OA 
HETATM   21  H   UNL     1      -9.345   8.508  64.769  1.00  0.00     0.000 HD 
BRANCH  15  22
HETATM   22  N   UNL     1      -9.984  12.373  66.128  1.00  0.00    -0.248 NA 
HETATM   23  C   UNL     1      -9.493  13.569  66.579  1.00  0.00    -0.256 A  
HETATM   24  C   UNL     1     -10.903  14.031  65.044  1.00  0.00    -0.392 A  
HETATM   25  N   UNL     1     -10.035  14.595  65.951  1.00  0.00    -0.311 NA 
HETATM   26  C   UNL     1     -11.812  14.586  64.128  1.00  0.00    -0.267 A  
HETATM   27  N   UNL     1     -12.488  13.752  63.304  1.00  0.00    -0.762 NA 
HETATM   28  N   UNL     1     -12.073  15.945  64.040  1.00  0.00    -1.085 NA 
HETATM   29  H2  UNL     1     -11.179  16.418  63.904  1.00  0.00     0.000 HD 
HETATM   30  C   UNL     1     -12.297  12.423  63.440  1.00  0.00    -0.499 A  
HETATM   31  H1  UNL     1     -12.734  16.348  63.375  1.00  0.00     0.000 HD 
HETATM   32  N   UNL     1     -11.526  11.769  64.335  1.00  0.00    -0.305 NA 
HETATM   33  C   UNL     1     -10.842  12.647  65.096  1.00  0.00    -0.290 A  
ENDBRANCH  15  22
ENDBRANCH  12  13
ENDBRANCH  10  12
ENDBRANCH   9  10
ENDBRANCH   8   9
ENDBRANCH   1   8
TORSDOF 6
ENDMDL
MODEL       28
REMARK 921   NORMALIZED FREE ENERGY PREDICTED BY IDOCK:   -6.43 KCAL/MOL
REMARK 922        TOTAL FREE ENERGY PREDICTED BY IDOCK:  -10.11 KCAL/MOL
REMARK 923 INTER-LIGAND FREE ENERGY PREDICTED BY IDOCK:   -9.73 KCAL/MOL
REMARK 924 INTRA-LIGAND FREE ENERGY PREDICTED BY IDOCK:   -0.38 KCAL/MOL
REMARK 927      BINDING AFFINITY PREDICTED BY RF-SCORE:    0.00 PKD
ROOT
HETATM    1  CA  UNL     1     -11.840  13.546  64.432  1.00  0.00    -0.414 C  
HETATM    2  C   UNL     1     -11.896  12.087  63.837  1.00  0.00    -0.448 C  
HETATM    3  N   UNL     1     -12.410  14.499  63.413  1.00  0.00    -1.034 NA 
HETATM    4  OXT UNL     1     -10.960  11.325  64.216  1.00  0.00    -0.354 OA 
HETATM    5  H2  UNL     1     -12.510  15.448  63.774  1.00  0.00     0.000 HD 
HETATM    6  O   UNL     1     -12.858  11.868  63.049  1.00  0.00    -0.520 OA 
HETATM    7  H1  UNL     1     -11.826  14.454  62.578  1.00  0.00     0.000 HD 
ENDROOT
BRANCH   1   8
HETATM    8  C   UNL     1     -12.714  13.613  65.682  1.00  0.00    -0.505 C  
BRANCH   8   9
HETATM    9  C   UNL     1     -12.125  14.446  66.825  1.00  0.00    -0.365 C  
BRANCH   9  10
HETATM   10  S   UNL     1     -10.288  14.242  66.887  1.00  0.00    -0.271 S  
HETATM   11  C   UNL     1      -9.925  16.019  67.001  1.00  0.00    -0.257 C  
BRANCH  10  12
HETATM   12  C   UNL     1     -10.176  13.881  68.690  1.00  0.00    -0.218 C  
BRANCH  12  13
HETATM   13  C   UNL     1     -11.560  13.547  69.264  1.00  0.00    -0.316 C  
HETATM   14  O   UNL     1     -11.658  12.142  69.566  1.00  0.00    -0.295 OA 
HETATM   15  C   UNL     1     -12.756  12.004  70.466  1.00  0.00    -0.001 C  
HETATM   16  C   UNL     1     -12.650  13.208  71.407  1.00  0.00    -0.256 C  
HETATM   17  H   UNL     1     -12.801  15.876  71.221  1.00  0.00     0.000 HD 
HETATM   18  O   UNL     1     -13.933  13.722  71.786  1.00  0.00    -0.364 OA 
HETATM   19  C   UNL     1     -11.862  14.246  70.592  1.00  0.00    -0.281 C  
HETATM   20  O   UNL     1     -12.614  15.442  70.397  1.00  0.00    -0.394 OA 
HETATM   21  H   UNL     1     -13.867  14.469  72.369  1.00  0.00     0.000 HD 
BRANCH  15  22
HETATM   22  N   UNL     1     -12.706  10.699  71.092  1.00  0.00    -0.388 NA 
HETATM   23  C   UNL     1     -13.656  10.151  71.913  1.00  0.00    -0.237 A  
HETATM   24  C   UNL     1     -11.897   8.963  72.140  1.00  0.00    -0.347 A  
HETATM   25  N   UNL     1     -13.196   9.104  72.571  1.00  0.00    -0.441 NA 
HETATM   26  C   UNL     1     -10.866   8.080  72.504  1.00  0.00    -0.349 A  
HETATM   27  N   UNL     1      -9.692   8.146  71.834  1.00  0.00    -0.185 NA 
HETATM   28  N   UNL     1     -10.979   7.158  73.535  1.00  0.00    -0.563 NA 
HETATM   29  H2  UNL     1     -11.809   6.595  73.348  1.00  0.00     0.000 HD 
HETATM   30  C   UNL     1      -9.550   9.095  70.885  1.00  0.00    -0.279 A  
HETATM   31  H1  UNL     1     -10.231   6.517  73.798  1.00  0.00     0.000 HD 
HETATM   32  N   UNL     1     -10.426  10.052  70.510  1.00  0.00    -0.260 NA 
HETATM   33  C   UNL     1     -11.590   9.909  71.174  1.00  0.00    -0.389 A  
ENDBRANCH  15  22
ENDBRANCH  12  13
ENDBRANCH  10  12
ENDBRANCH   9  10
ENDBRANCH   8   9
ENDBRANCH   1   8
TORSDOF 6
ENDMDL
MODEL       29
REMARK 921   NORMALIZED FREE ENERGY PREDICTED BY IDOCK:   -6.41 KCAL/MOL
REMARK 922        TOTAL FREE ENERGY PREDICTED BY IDOCK:  -10.07 KCAL/MOL
REMARK 923 INTER-LIGAND FREE ENERGY PREDICTED BY IDOCK:   -9.24 KCAL/MOL
REMARK 924 INTRA-LIGAND FREE ENERGY PREDICTED BY IDOCK:   -0.83 KCAL/MOL
REMARK 927      BINDING AFFINITY PREDICTED BY RF-SCORE:    0.00 PKD
ROOT
HETATM    1  CA  UNL     1     -11.083  16.051  65.474  1.00  0.00    -0.105 C  
HETATM    2  C   UNL     1     -10.373  17.210  66.273  1.00  0.00    -0.313 C  
HETATM    3  N   UNL     1     -11.268  16.500  64.047  1.00  0.00    -1.454 NA 
HETATM    4  OXT UNL     1     -10.698  17.287  67.494  1.00  0.00    -0.345 OA 
HETATM    5  H2  UNL     1     -11.620  15.757  63.443  1.00  0.00     0.000 HD 
HETATM    6  O   UNL     1      -9.581  17.921  65.593  1.00  0.00    -0.457 OA 
HETATM    7  H1  UNL     1     -11.870  17.323  64.050  1.00  0.00     0.000 HD 
ENDROOT
BRANCH   1   8
HETATM    8  C   UNL     1     -10.182  14.819  65.468  1.00  0.00    -0.400 C  
BRANCH   8   9
HETATM    9  C   UNL     1     -10.603  13.727  64.480  1.00  0.00    -0.386 C  
BRANCH   9  10
HETATM   10  S   UNL     1     -11.996  12.732  65.180  1.00  0.00    -0.449 S  
HETATM   11  C   UNL     1     -12.522  12.035  63.586  1.00  0.00    -0.525 C  
BRANCH  10  12
HETATM   12  C   UNL     1     -10.979  11.295  65.721  1.00  0.00    -0.145 C  
BRANCH  12  13
HETATM   13  C   UNL     1     -10.360  11.556  67.100  1.00  0.00    -0.216 C  
HETATM   14  O   UNL     1     -10.954  10.697  68.093  1.00  0.00    -0.227 OA 
HETATM   15  C   UNL     1     -10.054  10.688  69.200  1.00  0.00    -0.216 C  
HETATM   16  C   UNL     1      -8.657  10.651  68.574  1.00  0.00    -0.137 C  
HETATM   17  H   UNL     1      -7.145  12.231  67.027  1.00  0.00     0.000 HD 
HETATM   18  O   UNL     1      -7.702  11.415  69.321  1.00  0.00    -0.326 OA 
HETATM   19  C   UNL     1      -8.862  11.248  67.174  1.00  0.00    -0.153 C  
HETATM   20  O   UNL     1      -8.075  12.422  66.982  1.00  0.00    -0.174 OA 
HETATM   21  H   UNL     1      -6.835  11.392  68.934  1.00  0.00     0.000 HD 
BRANCH  15  22
HETATM   22  N   UNL     1     -10.387   9.590  70.083  1.00  0.00    -0.236 NA 
HETATM   23  C   UNL     1      -9.800   8.352  70.104  1.00  0.00    -0.181 A  
HETATM   24  C   UNL     1     -11.601   8.189  71.238  1.00  0.00    -0.273 A  
HETATM   25  N   UNL     1     -10.514   7.477  70.786  1.00  0.00    -0.211 NA 
HETATM   26  C   UNL     1     -12.745   7.817  71.965  1.00  0.00    -0.258 A  
HETATM   27  N   UNL     1     -13.622   8.782  72.327  1.00  0.00    -0.422 NA 
HETATM   28  N   UNL     1     -13.037   6.505  72.309  1.00  0.00    -0.512 NA 
HETATM   29  H2  UNL     1     -12.227   6.135  72.808  1.00  0.00     0.000 HD 
HETATM   30  C   UNL     1     -13.384  10.047  71.925  1.00  0.00    -0.415 A  
HETATM   31  H1  UNL     1     -13.867   6.235  72.837  1.00  0.00     0.000 HD 
HETATM   32  N   UNL     1     -12.377  10.512  71.153  1.00  0.00    -0.374 NA 
HETATM   33  C   UNL     1     -11.512   9.521  70.863  1.00  0.00    -0.334 A  
ENDBRANCH  15  22
ENDBRANCH  12  13
ENDBRANCH  10  12
ENDBRANCH   9  10
ENDBRANCH   8   9
ENDBRANCH   1   8
TORSDOF 6
ENDMDL
MODEL       30
REMARK 921   NORMALIZED FREE ENERGY PREDICTED BY IDOCK:   -6.38 KCAL/MOL
REMARK 922        TOTAL FREE ENERGY PREDICTED BY IDOCK:  -10.04 KCAL/MOL
REMARK 923 INTER-LIGAND FREE ENERGY PREDICTED BY IDOCK:   -9.00 KCAL/MOL
REMARK 924 INTRA-LIGAND FREE ENERGY PREDICTED BY IDOCK:   -1.04 KCAL/MOL
REMARK 927      BINDING AFFINITY PREDICTED BY RF-SCORE:    0.00 PKD
ROOT
HETATM    1  CA  UNL     1     -11.797  13.234  65.335  1.00  0.00    -0.359 C  
HETATM    2  C   UNL     1     -12.092  12.780  63.854  1.00  0.00    -0.486 C  
HETATM    3  N   UNL     1     -11.813  12.014  66.220  1.00  0.00    -0.574 NA 
HETATM    4  OXT UNL     1     -12.716  13.631  63.155  1.00  0.00    -0.737 OA 
HETATM    5  H2  UNL     1     -11.517  12.216  67.175  1.00  0.00     0.000 HD 
HETATM    6  O   UNL     1     -11.682  11.624  63.557  1.00  0.00    -0.430 OA 
HETATM    7  H1  UNL     1     -12.745  11.603  66.174  1.00  0.00     0.000 HD 
ENDROOT
BRANCH   1   8
HETATM    8  C   UNL     1     -10.401  13.850  65.403  1.00  0.00    -0.364 C  
BRANCH   8   9
HETATM    9  C   UNL     1     -10.331  15.181  66.159  1.00  0.00    -0.301 C  
BRANCH   9  10
HETATM   10  S   UNL     1      -8.642  15.424  66.872  1.00  0.00    -0.277 S  
HETATM   11  C   UNL     1      -8.933  17.134  67.415  1.00  0.00    -0.220 C  
BRANCH  10  12
HETATM   12  C   UNL     1      -8.979  14.620  68.495  1.00  0.00    -0.184 C  
BRANCH  12  13
HETATM   13  C   UNL     1     -10.486  14.411  68.694  1.00  0.00    -0.247 C  
HETATM   14  O   UNL     1     -10.770  13.034  69.012  1.00  0.00    -0.201 OA 
HETATM   15  C   UNL     1     -12.071  13.021  69.594  1.00  0.00    -0.241 C  
HETATM   16  C   UNL     1     -12.121  14.267  70.483  1.00  0.00    -0.343 C  
HETATM   17  H   UNL     1     -12.010  16.924  70.164  1.00  0.00     0.000 HD 
HETATM   18  O   UNL     1     -13.414  14.885  70.490  1.00  0.00    -0.628 OA 
HETATM   19  C   UNL     1     -11.069  15.203  69.868  1.00  0.00    -0.284 C  
HETATM   20  O   UNL     1     -11.648  16.433  69.436  1.00  0.00    -0.225 OA 
HETATM   21  H   UNL     1     -13.445  15.657  71.041  1.00  0.00     0.000 HD 
BRANCH  15  22
HETATM   22  N   UNL     1     -12.289  11.753  70.260  1.00  0.00    -0.273 NA 
HETATM   23  C   UNL     1     -12.903  11.561  71.469  1.00  0.00    -0.380 A  
HETATM   24  C   UNL     1     -11.891   9.740  71.006  1.00  0.00    -0.356 A  
HETATM   25  N   UNL     1     -12.675  10.356  71.954  1.00  0.00    -0.406 NA 
HETATM   26  C   UNL     1     -11.272   8.479  70.958  1.00  0.00    -0.268 A  
HETATM   27  N   UNL     1     -10.610   8.127  69.831  1.00  0.00    -0.238 NA 
HETATM   28  N   UNL     1     -11.281   7.584  72.017  1.00  0.00    -0.247 NA 
HETATM   29  H2  UNL     1     -12.256   7.433  72.278  1.00  0.00     0.000 HD 
HETATM   30  C   UNL     1     -10.529   9.026  68.828  1.00  0.00    -0.206 A  
HETATM   31  H1  UNL     1     -10.832   6.668  71.982  1.00  0.00     0.000 HD 
HETATM   32  N   UNL     1     -11.001  10.292  68.790  1.00  0.00    -0.236 NA 
HETATM   33  C   UNL     1     -11.689  10.571  69.915  1.00  0.00    -0.294 A  
ENDBRANCH  15  22
ENDBRANCH  12  13
ENDBRANCH  10  12
ENDBRANCH   9  10
ENDBRANCH   8   9
ENDBRANCH   1   8
TORSDOF 6
ENDMDL
MODEL       31
REMARK 921   NORMALIZED FREE ENERGY PREDICTED BY IDOCK:   -6.27 KCAL/MOL
REMARK 922        TOTAL FREE ENERGY PREDICTED BY IDOCK:   -9.89 KCAL/MOL
REMARK 923 INTER-LIGAND FREE ENERGY PREDICTED BY IDOCK:   -9.21 KCAL/MOL
REMARK 924 INTRA-LIGAND FREE ENERGY PREDICTED BY IDOCK:   -0.68 KCAL/MOL
REMARK 927      BINDING AFFINITY PREDICTED BY RF-SCORE:    0.00 PKD
ROOT
HETATM    1  CA  UNL     1      -9.011  19.076  68.499  1.00  0.00    -0.355 C  
HETATM    2  C   UNL     1      -8.767  20.223  67.446  1.00  0.00    -0.341 C  
HETATM    3  N   UNL     1     -10.202  19.449  69.345  1.00  0.00    -0.541 NA 
HETATM    4  OXT UNL     1      -7.554  20.399  67.127  1.00  0.00    -0.295 OA 
HETATM    5  H2  UNL     1     -10.488  18.700  69.974  1.00  0.00     0.000 HD 
HETATM    6  O   UNL     1      -9.806  20.829  67.065  1.00  0.00    -0.427 OA 
HETATM    7  H1  UNL     1      -9.980  20.315  69.836  1.00  0.00     0.000 HD 
ENDROOT
BRANCH   1   8
HETATM    8  C   UNL     1      -9.342  17.779  67.763  1.00  0.00    -0.257 C  
BRANCH   8   9
HETATM    9  C   UNL     1      -9.463  16.548  68.667  1.00  0.00    -0.243 C  
BRANCH   9  10
HETATM   10  S   UNL     1      -9.943  15.066  67.670  1.00  0.00    -0.225 S  
HETATM   11  C   UNL     1     -11.562  14.846  68.465  1.00  0.00    -0.323 C  
BRANCH  10  12
HETATM   12  C   UNL     1     -10.549  15.990  66.195  1.00  0.00    -0.297 C  
BRANCH  12  13
HETATM   13  C   UNL     1     -10.669  15.057  64.983  1.00  0.00    -0.427 C  
HETATM   14  O   UNL     1      -9.894  13.859  65.186  1.00  0.00    -0.245 OA 
HETATM   15  C   UNL     1     -10.395  12.899  64.258  1.00  0.00    -0.372 C  
HETATM   16  C   UNL     1     -11.914  13.102  64.259  1.00  0.00    -0.411 C  
HETATM   17  H   UNL     1     -13.647  15.032  63.594  1.00  0.00     0.000 HD 
HETATM   18  O   UNL     1     -12.493  12.909  62.963  1.00  0.00    -0.680 OA 
HETATM   19  C   UNL     1     -12.093  14.553  64.730  1.00  0.00    -0.445 C  
HETATM   20  O   UNL     1     -12.764  15.345  63.751  1.00  0.00    -0.628 OA 
HETATM   21  H   UNL     1     -13.435  13.035  62.963  1.00  0.00     0.000 HD 
BRANCH  15  22
HETATM   22  N   UNL     1      -9.927  11.580  64.628  1.00  0.00    -0.251 NA 
HETATM   23  C   UNL     1      -9.297  10.679  63.812  1.00  0.00    -0.271 A  
HETATM   24  C   UNL     1      -9.908   9.600  65.550  1.00  0.00    -0.281 A  
HETATM   25  N   UNL     1      -9.276   9.468  64.334  1.00  0.00    -0.198 NA 
HETATM   26  C   UNL     1     -10.253   8.673  66.548  1.00  0.00    -0.225 A  
HETATM   27  N   UNL     1     -10.819   9.132  67.688  1.00  0.00    -0.179 NA 
HETATM   28  N   UNL     1     -10.069   7.304  66.414  1.00  0.00    -0.465 NA 
HETATM   29  H2  UNL     1      -9.086   7.152  66.185  1.00  0.00     0.000 HD 
HETATM   30  C   UNL     1     -11.074  10.453  67.790  1.00  0.00    -0.299 A  
HETATM   31  H1  UNL     1     -10.320   6.631  67.138  1.00  0.00     0.000 HD 
HETATM   32  N   UNL     1     -10.873  11.424  66.872  1.00  0.00    -0.272 NA 
HETATM   33  C   UNL     1     -10.267  10.920  65.779  1.00  0.00    -0.259 A  
ENDBRANCH  15  22
ENDBRANCH  12  13
ENDBRANCH  10  12
ENDBRANCH   9  10
ENDBRANCH   8   9
ENDBRANCH   1   8
TORSDOF 6
ENDMDL
MODEL       32
REMARK 921   NORMALIZED FREE ENERGY PREDICTED BY IDOCK:   -6.26 KCAL/MOL
REMARK 922        TOTAL FREE ENERGY PREDICTED BY IDOCK:   -9.87 KCAL/MOL
REMARK 923 INTER-LIGAND FREE ENERGY PREDICTED BY IDOCK:   -9.41 KCAL/MOL
REMARK 924 INTRA-LIGAND FREE ENERGY PREDICTED BY IDOCK:   -0.46 KCAL/MOL
REMARK 927      BINDING AFFINITY PREDICTED BY RF-SCORE:    0.00 PKD
ROOT
HETATM    1  CA  UNL     1     -11.314  14.926  65.731  1.00  0.00    -0.314 C  
HETATM    2  C   UNL     1     -11.945  15.339  64.346  1.00  0.00    -0.277 C  
HETATM    3  N   UNL     1     -12.335  14.129  66.502  1.00  0.00    -0.507 NA 
HETATM    4  OXT UNL     1     -11.542  16.450  63.891  1.00  0.00    -1.100 OA 
HETATM    5  H2  UNL     1     -11.957  13.732  67.361  1.00  0.00     0.000 HD 
HETATM    6  O   UNL     1     -12.779  14.518  63.873  1.00  0.00    -0.782 OA 
HETATM    7  H1  UNL     1     -13.144  14.727  66.666  1.00  0.00     0.000 HD 
ENDROOT
BRANCH   1   8
HETATM    8  C   UNL     1     -10.102  14.031  65.485  1.00  0.00    -0.343 C  
BRANCH   8   9
HETATM    9  C   UNL     1      -9.650  13.224  66.706  1.00  0.00    -0.258 C  
BRANCH   9  10
HETATM   10  S   UNL     1     -10.020  11.429  66.461  1.00  0.00    -0.217 S  
HETATM   11  C   UNL     1      -9.494  11.384  64.722  1.00  0.00    -0.153 C  
BRANCH  10  12
HETATM   12  C   UNL     1      -8.449  10.789  67.180  1.00  0.00    -0.126 C  
BRANCH  12  13
HETATM   13  C   UNL     1      -8.633   9.354  67.693  1.00  0.00    -0.116 C  
HETATM   14  O   UNL     1      -9.100   9.359  69.057  1.00  0.00    -0.136 OA 
HETATM   15  C   UNL     1      -9.646   8.064  69.295  1.00  0.00    -0.157 C  
HETATM   16  C   UNL     1     -10.385   7.702  68.003  1.00  0.00    -0.205 C  
HETATM   17  H   UNL     1      -9.765   7.252  65.436  1.00  0.00     0.000 HD 
HETATM   18  O   UNL     1     -10.287   6.307  67.688  1.00  0.00    -0.148 OA 
HETATM   19  C   UNL     1      -9.693   8.556  66.929  1.00  0.00    -0.221 C  
HETATM   20  O   UNL     1      -9.108   7.747  65.910  1.00  0.00    -0.156 OA 
HETATM   21  H   UNL     1     -10.745   6.082  66.887  1.00  0.00     0.000 HD 
BRANCH  15  22
HETATM   22  N   UNL     1     -10.447   8.093  70.501  1.00  0.00    -0.210 NA 
HETATM   23  C   UNL     1     -10.687   7.042  71.346  1.00  0.00    -0.219 A  
HETATM   24  C   UNL     1     -12.102   8.560  71.847  1.00  0.00    -0.349 A  
HETATM   25  N   UNL     1     -11.690   7.287  72.168  1.00  0.00    -0.282 NA 
HETATM   26  C   UNL     1     -13.155   9.364  72.316  1.00  0.00    -0.428 A  
HETATM   27  N   UNL     1     -13.261  10.628  71.844  1.00  0.00    -0.462 NA 
HETATM   28  N   UNL     1     -14.109   8.921  73.220  1.00  0.00    -1.248 NA 
HETATM   29  H2  UNL     1     -13.611   8.567  74.037  1.00  0.00     0.000 HD 
HETATM   30  C   UNL     1     -12.383  11.037  70.904  1.00  0.00    -0.402 A  
HETATM   31  H1  UNL     1     -14.873   9.505  73.560  1.00  0.00     0.000 HD 
HETATM   32  N   UNL     1     -11.392  10.334  70.313  1.00  0.00    -0.301 NA 
HETATM   33  C   UNL     1     -11.303   9.103  70.853  1.00  0.00    -0.295 A  
ENDBRANCH  15  22
ENDBRANCH  12  13
ENDBRANCH  10  12
ENDBRANCH   9  10
ENDBRANCH   8   9
ENDBRANCH   1   8
TORSDOF 6
ENDMDL
MODEL       33
REMARK 921   NORMALIZED FREE ENERGY PREDICTED BY IDOCK:   -6.24 KCAL/MOL
REMARK 922        TOTAL FREE ENERGY PREDICTED BY IDOCK:   -9.85 KCAL/MOL
REMARK 923 INTER-LIGAND FREE ENERGY PREDICTED BY IDOCK:   -8.90 KCAL/MOL
REMARK 924 INTRA-LIGAND FREE ENERGY PREDICTED BY IDOCK:   -0.95 KCAL/MOL
REMARK 927      BINDING AFFINITY PREDICTED BY RF-SCORE:    0.00 PKD
ROOT
HETATM    1  CA  UNL     1     -11.325  13.967  63.970  1.00  0.00    -0.086 C  
HETATM    2  C   UNL     1     -11.969  12.532  64.075  1.00  0.00    -0.454 C  
HETATM    3  N   UNL     1     -12.435  14.984  63.895  1.00  0.00    -1.043 NA 
HETATM    4  OXT UNL     1     -11.294  11.608  63.532  1.00  0.00    -0.417 OA 
HETATM    5  H2  UNL     1     -12.093  15.943  63.940  1.00  0.00     0.000 HD 
HETATM    6  O   UNL     1     -13.079  12.486  64.674  1.00  0.00    -0.845 OA 
HETATM    7  H1  UNL     1     -12.978  14.797  63.052  1.00  0.00     0.000 HD 
ENDROOT
BRANCH   1   8
HETATM    8  C   UNL     1     -10.512  14.246  65.232  1.00  0.00    -0.408 C  
BRANCH   8   9
HETATM    9  C   UNL     1     -11.273  15.005  66.323  1.00  0.00    -0.309 C  
BRANCH   9  10
HETATM   10  S   UNL     1     -10.531  14.659  67.981  1.00  0.00    -0.238 S  
HETATM   11  C   UNL     1     -11.559  15.859  68.880  1.00  0.00    -0.388 C  
BRANCH  10  12
HETATM   12  C   UNL     1     -11.549  13.172  68.363  1.00  0.00    -0.337 C  
BRANCH  12  13
HETATM   13  C   UNL     1     -10.657  11.939  68.560  1.00  0.00    -0.222 C  
HETATM   14  O   UNL     1     -11.084  11.182  69.710  1.00  0.00    -0.251 OA 
HETATM   15  C   UNL     1     -10.516   9.883  69.564  1.00  0.00    -0.241 C  
HETATM   16  C   UNL     1     -10.640   9.561  68.072  1.00  0.00    -0.230 C  
HETATM   17  H   UNL     1      -9.685  10.520  65.760  1.00  0.00     0.000 HD 
HETATM   18  O   UNL     1      -9.521   8.814  67.577  1.00  0.00    -0.137 OA 
HETATM   19  C   UNL     1     -10.718  10.941  67.401  1.00  0.00    -0.257 C  
HETATM   20  O   UNL     1      -9.648  11.139  66.480  1.00  0.00    -0.189 OA 
HETATM   21  H   UNL     1      -9.598   8.614  66.652  1.00  0.00     0.000 HD 
BRANCH  15  22
HETATM   22  N   UNL     1     -11.172   8.965  70.472  1.00  0.00    -0.256 NA 
HETATM   23  C   UNL     1     -11.972   9.299  71.533  1.00  0.00    -0.368 A  
HETATM   24  C   UNL     1     -11.467   7.239  71.777  1.00  0.00    -0.267 A  
HETATM   25  N   UNL     1     -12.163   8.280  72.348  1.00  0.00    -0.368 NA 
HETATM   26  C   UNL     1     -11.232   5.915  72.186  1.00  0.00    -0.287 A  
HETATM   27  N   UNL     1     -10.552   5.093  71.352  1.00  0.00    -0.180 NA 
HETATM   28  N   UNL     1     -11.637   5.412  73.413  1.00  0.00    -0.459 NA 
HETATM   29  H2  UNL     1     -12.641   5.580  73.493  1.00  0.00     0.000 HD 
HETATM   30  C   UNL     1     -10.086   5.600  70.193  1.00  0.00    -0.227 A  
HETATM   31  H1  UNL     1     -11.466   4.451  73.710  1.00  0.00     0.000 HD 
HETATM   32  N   UNL     1     -10.168   6.867  69.732  1.00  0.00    -0.191 NA 
HETATM   33  C   UNL     1     -10.893   7.628  70.576  1.00  0.00    -0.241 A  
ENDBRANCH  15  22
ENDBRANCH  12  13
ENDBRANCH  10  12
ENDBRANCH   9  10
ENDBRANCH   8   9
ENDBRANCH   1   8
TORSDOF 6
ENDMDL
MODEL       34
REMARK 921   NORMALIZED FREE ENERGY PREDICTED BY IDOCK:   -6.20 KCAL/MOL
REMARK 922        TOTAL FREE ENERGY PREDICTED BY IDOCK:   -9.79 KCAL/MOL
REMARK 923 INTER-LIGAND FREE ENERGY PREDICTED BY IDOCK:   -9.07 KCAL/MOL
REMARK 924 INTRA-LIGAND FREE ENERGY PREDICTED BY IDOCK:   -0.72 KCAL/MOL
REMARK 927      BINDING AFFINITY PREDICTED BY RF-SCORE:    0.00 PKD
ROOT
HETATM    1  CA  UNL     1      -8.890  19.006  66.280  1.00  0.00    -0.277 C  
HETATM    2  C   UNL     1     -10.463  18.988  66.177  1.00  0.00    -0.467 C  
HETATM    3  N   UNL     1      -8.475  20.244  67.032  1.00  0.00    -0.398 NA 
HETATM    4  OXT UNL     1     -10.919  18.449  65.127  1.00  0.00    -0.604 OA 
HETATM    5  H2  UNL     1      -7.476  20.265  67.235  1.00  0.00     0.000 HD 
HETATM    6  O   UNL     1     -11.068  19.525  67.147  1.00  0.00    -0.446 OA 
HETATM    7  H1  UNL     1      -8.785  21.056  66.499  1.00  0.00     0.000 HD 
ENDROOT
BRANCH   1   8
HETATM    8  C   UNL     1      -8.425  17.790  67.078  1.00  0.00    -0.245 C  
BRANCH   8   9
HETATM    9  C   UNL     1      -8.268  16.509  66.252  1.00  0.00    -0.325 C  
BRANCH   9  10
HETATM   10  S   UNL     1      -9.004  15.072  67.152  1.00  0.00    -0.231 S  
HETATM   11  C   UNL     1      -8.984  15.868  68.786  1.00  0.00    -0.216 C  
BRANCH  10  12
HETATM   12  C   UNL     1     -10.762  15.446  66.750  1.00  0.00    -0.310 C  
BRANCH  12  13
HETATM   13  C   UNL     1     -11.211  14.670  65.504  1.00  0.00    -0.343 C  
HETATM   14  O   UNL     1     -10.181  13.756  65.078  1.00  0.00    -0.364 OA 
HETATM   15  C   UNL     1     -10.821  12.804  64.231  1.00  0.00    -0.390 C  
HETATM   16  C   UNL     1     -12.171  12.524  64.898  1.00  0.00    -0.470 C  
HETATM   17  H   UNL     1     -14.402  13.887  65.484  1.00  0.00     0.000 HD 
HETATM   18  O   UNL     1     -13.220  12.314  63.945  1.00  0.00    -0.766 OA 
HETATM   19  C   UNL     1     -12.437  13.784  65.737  1.00  0.00    -0.485 C  
HETATM   20  O   UNL     1     -13.641  14.437  65.339  1.00  0.00    -0.428 OA 
HETATM   21  H   UNL     1     -14.058  12.141  64.358  1.00  0.00     0.000 HD 
BRANCH  15  22
HETATM   22  N   UNL     1      -9.951  11.660  64.048  1.00  0.00    -0.281 NA 
HETATM   23  C   UNL     1      -9.560  11.116  62.853  1.00  0.00    -0.348 A  
HETATM   24  C   UNL     1      -9.077   9.684  64.362  1.00  0.00    -0.229 A  
HETATM   25  N   UNL     1      -9.036   9.915  63.005  1.00  0.00    -0.260 NA 
HETATM   26  C   UNL     1      -8.725   8.573  65.148  1.00  0.00    -0.120 A  
HETATM   27  N   UNL     1      -8.816   8.680  66.494  1.00  0.00    -0.131 NA 
HETATM   28  N   UNL     1      -8.313   7.361  64.614  1.00  0.00    -0.339 NA 
HETATM   29  H2  UNL     1      -7.527   7.554  63.993  1.00  0.00     0.000 HD 
HETATM   30  C   UNL     1      -9.293   9.830  67.014  1.00  0.00    -0.147 A  
HETATM   31  H1  UNL     1      -8.058   6.555  65.185  1.00  0.00     0.000 HD 
HETATM   32  N   UNL     1      -9.745  10.926  66.366  1.00  0.00    -0.195 NA 
HETATM   33  C   UNL     1      -9.587  10.783  65.035  1.00  0.00    -0.254 A  
ENDBRANCH  15  22
ENDBRANCH  12  13
ENDBRANCH  10  12
ENDBRANCH   9  10
ENDBRANCH   8   9
ENDBRANCH   1   8
TORSDOF 6
ENDMDL
MODEL       35
REMARK 921   NORMALIZED FREE ENERGY PREDICTED BY IDOCK:   -6.18 KCAL/MOL
REMARK 922        TOTAL FREE ENERGY PREDICTED BY IDOCK:   -9.77 KCAL/MOL
REMARK 923 INTER-LIGAND FREE ENERGY PREDICTED BY IDOCK:   -8.97 KCAL/MOL
REMARK 924 INTRA-LIGAND FREE ENERGY PREDICTED BY IDOCK:   -0.80 KCAL/MOL
REMARK 927      BINDING AFFINITY PREDICTED BY RF-SCORE:    0.00 PKD
ROOT
HETATM    1  CA  UNL     1      -7.558   9.352  64.805  1.00  0.00    -0.111 C  
HETATM    2  C   UNL     1      -8.718   9.411  63.740  1.00  0.00    -0.201 C  
HETATM    3  N   UNL     1      -7.449  10.701  65.468  1.00  0.00    -0.299 NA 
HETATM    4  OXT UNL     1      -8.543   8.675  62.725  1.00  0.00    -0.178 OA 
HETATM    5  H2  UNL     1      -6.793  10.704  66.249  1.00  0.00     0.000 HD 
HETATM    6  O   UNL     1      -9.667  10.193  64.026  1.00  0.00    -0.306 OA 
HETATM    7  H1  UNL     1      -7.212  11.387  64.751  1.00  0.00     0.000 HD 
ENDROOT
BRANCH   1   8
HETATM    8  C   UNL     1      -7.912   8.325  65.878  1.00  0.00    -0.097 C  
BRANCH   8   9
HETATM    9  C   UNL     1      -8.429   8.927  67.188  1.00  0.00    -0.106 C  
BRANCH   9  10
HETATM   10  S   UNL     1     -10.272   9.067  67.145  1.00  0.00    -0.275 S  
HETATM   11  C   UNL     1     -10.574   7.280  67.008  1.00  0.00    -0.344 C  
BRANCH  10  12
HETATM   12  C   UNL     1     -10.518   9.189  68.967  1.00  0.00    -0.221 C  
BRANCH  12  13
HETATM   13  C   UNL     1     -10.563  10.657  69.411  1.00  0.00    -0.239 C  
HETATM   14  O   UNL     1     -10.136  11.524  68.342  1.00  0.00    -0.192 OA 
HETATM   15  C   UNL     1     -10.612  12.827  68.671  1.00  0.00    -0.233 C  
HETATM   16  C   UNL     1     -12.010  12.601  69.256  1.00  0.00    -0.246 C  
HETATM   17  H   UNL     1     -13.083  11.388  71.389  1.00  0.00     0.000 HD 
HETATM   18  O   UNL     1     -12.311  13.510  70.323  1.00  0.00    -0.326 OA 
HETATM   19  C   UNL     1     -11.968  11.152  69.766  1.00  0.00    -0.357 C  
HETATM   20  O   UNL     1     -12.212  11.081  71.169  1.00  0.00    -0.346 OA 
HETATM   21  H   UNL     1     -13.177  13.370  70.686  1.00  0.00     0.000 HD 
BRANCH  15  22
HETATM   22  N   UNL     1     -10.540  13.677  67.501  1.00  0.00    -0.240 NA 
HETATM   23  C   UNL     1      -9.983  14.927  67.434  1.00  0.00    -0.223 A  
HETATM   24  C   UNL     1     -11.155  14.687  65.665  1.00  0.00    -0.338 A  
HETATM   25  N   UNL     1     -10.343  15.570  66.340  1.00  0.00    -0.285 NA 
HETATM   26  C   UNL     1     -11.893  14.794  64.474  1.00  0.00    -0.419 A  
HETATM   27  N   UNL     1     -12.553  13.703  64.023  1.00  0.00    -0.686 NA 
HETATM   28  N   UNL     1     -12.003  15.972  63.748  1.00  0.00    -1.339 NA 
HETATM   29  H2  UNL     1     -11.056  16.293  63.548  1.00  0.00     0.000 HD 
HETATM   30  C   UNL     1     -12.515  12.578  64.768  1.00  0.00    -0.457 A  
HETATM   31  H1  UNL     1     -12.539  16.049  62.884  1.00  0.00     0.000 HD 
HETATM   32  N   UNL     1     -11.921  12.378  65.965  1.00  0.00    -0.602 NA 
HETATM   33  C   UNL     1     -11.242  13.480  66.342  1.00  0.00    -0.307 A  
ENDBRANCH  15  22
ENDBRANCH  12  13
ENDBRANCH  10  12
ENDBRANCH   9  10
ENDBRANCH   8   9
ENDBRANCH   1   8
TORSDOF 6
ENDMDL
MODEL       36
REMARK 921   NORMALIZED FREE ENERGY PREDICTED BY IDOCK:   -6.17 KCAL/MOL
REMARK 922        TOTAL FREE ENERGY PREDICTED BY IDOCK:   -9.75 KCAL/MOL
REMARK 923 INTER-LIGAND FREE ENERGY PREDICTED BY IDOCK:   -8.66 KCAL/MOL
REMARK 924 INTRA-LIGAND FREE ENERGY PREDICTED BY IDOCK:   -1.09 KCAL/MOL
REMARK 927      BINDING AFFINITY PREDICTED BY RF-SCORE:    0.00 PKD
ROOT
HETATM    1  CA  UNL     1     -12.642   8.999  72.673  1.00  0.00    -0.174 C  
HETATM    2  C   UNL     1     -12.598   9.945  71.413  1.00  0.00    -0.398 C  
HETATM    3  N   UNL     1     -14.064   8.933  73.170  1.00  0.00    -1.225 NA 
HETATM    4  OXT UNL     1     -11.518  10.591  71.273  1.00  0.00    -0.203 OA 
HETATM    5  H2  UNL     1     -14.188   8.249  73.916  1.00  0.00     0.000 HD 
HETATM    6  O   UNL     1     -13.647   9.950  70.710  1.00  0.00    -0.249 OA 
HETATM    7  H1  UNL     1     -14.346   9.873  73.446  1.00  0.00     0.000 HD 
ENDROOT
BRANCH   1   8
HETATM    8  C   UNL     1     -12.220   7.591  72.260  1.00  0.00    -0.233 C  
BRANCH   8   9
HETATM    9  C   UNL     1     -10.733   7.286  72.472  1.00  0.00    -0.262 C  
BRANCH   9  10
HETATM   10  S   UNL     1     -10.033   6.444  70.982  1.00  0.00    -0.182 S  
HETATM   11  C   UNL     1     -11.602   6.391  70.066  1.00  0.00    -0.377 C  
BRANCH  10  12
HETATM   12  C   UNL     1      -9.363   7.960  70.177  1.00  0.00    -0.156 C  
BRANCH  12  13
HETATM   13  C   UNL     1      -9.878   8.082  68.736  1.00  0.00    -0.172 C  
HETATM   14  O   UNL     1     -10.559   9.338  68.546  1.00  0.00    -0.213 OA 
HETATM   15  C   UNL     1     -10.608   9.554  67.137  1.00  0.00    -0.225 C  
HETATM   16  C   UNL     1      -9.247   9.083  66.616  1.00  0.00    -0.167 C  
HETATM   17  H   UNL     1      -7.874   6.787  66.477  1.00  0.00     0.000 HD 
HETATM   18  O   UNL     1      -9.339   8.454  65.331  1.00  0.00    -0.420 OA 
HETATM   19  C   UNL     1      -8.768   8.085  67.682  1.00  0.00    -0.126 C  
HETATM   20  O   UNL     1      -8.563   6.785  67.131  1.00  0.00    -0.119 OA 
HETATM   21  H   UNL     1      -8.495   8.162  65.009  1.00  0.00     0.000 HD 
BRANCH  15  22
HETATM   22  N   UNL     1     -10.949  10.936  66.872  1.00  0.00    -0.256 NA 
HETATM   23  C   UNL     1     -11.528  11.816  67.749  1.00  0.00    -0.311 A  
HETATM   24  C   UNL     1     -11.694  12.692  65.809  1.00  0.00    -0.419 A  
HETATM   25  N   UNL     1     -11.999  12.885  67.137  1.00  0.00    -0.372 NA 
HETATM   26  C   UNL     1     -11.977  13.436  64.651  1.00  0.00    -0.399 A  
HETATM   27  N   UNL     1     -11.468  13.012  63.471  1.00  0.00    -0.414 NA 
HETATM   28  N   UNL     1     -12.773  14.572  64.650  1.00  0.00    -0.598 NA 
HETATM   29  H2  UNL     1     -12.383  15.217  65.337  1.00  0.00     0.000 HD 
HETATM   30  C   UNL     1     -10.761  11.864  63.454  1.00  0.00    -0.413 A  
HETATM   31  H1  UNL     1     -12.978  15.113  63.809  1.00  0.00     0.000 HD 
HETATM   32  N   UNL     1     -10.499  11.019  64.475  1.00  0.00    -0.346 NA 
HETATM   33  C   UNL     1     -10.987  11.513  65.631  1.00  0.00    -0.236 A  
ENDBRANCH  15  22
ENDBRANCH  12  13
ENDBRANCH  10  12
ENDBRANCH   9  10
ENDBRANCH   8   9
ENDBRANCH   1   8
TORSDOF 6
ENDMDL
MODEL       37
REMARK 921   NORMALIZED FREE ENERGY PREDICTED BY IDOCK:   -6.15 KCAL/MOL
REMARK 922        TOTAL FREE ENERGY PREDICTED BY IDOCK:   -9.72 KCAL/MOL
REMARK 923 INTER-LIGAND FREE ENERGY PREDICTED BY IDOCK:   -9.11 KCAL/MOL
REMARK 924 INTRA-LIGAND FREE ENERGY PREDICTED BY IDOCK:   -0.61 KCAL/MOL
REMARK 927      BINDING AFFINITY PREDICTED BY RF-SCORE:    0.00 PKD
ROOT
HETATM    1  CA  UNL     1      -9.105  19.248  68.216  1.00  0.00    -0.345 C  
HETATM    2  C   UNL     1      -9.351  19.834  66.773  1.00  0.00    -0.374 C  
HETATM    3  N   UNL     1     -10.251  19.665  69.102  1.00  0.00    -0.627 NA 
HETATM    4  OXT UNL     1      -8.298  20.131  66.136  1.00  0.00    -0.295 OA 
HETATM    5  H2  UNL     1     -10.216  19.226  70.022  1.00  0.00     0.000 HD 
HETATM    6  O   UNL     1     -10.564  19.946  66.441  1.00  0.00    -0.462 OA 
HETATM    7  H1  UNL     1     -10.257  20.683  69.150  1.00  0.00     0.000 HD 
ENDROOT
BRANCH   1   8
HETATM    8  C   UNL     1      -9.094  17.722  68.143  1.00  0.00    -0.274 C  
BRANCH   8   9
HETATM    9  C   UNL     1     -10.358  17.106  67.537  1.00  0.00    -0.341 C  
BRANCH   9  10
HETATM   10  S   UNL     1     -10.647  15.418  68.235  1.00  0.00    -0.261 S  
HETATM   11  C   UNL     1      -9.003  15.267  68.995  1.00  0.00    -0.225 C  
BRANCH  10  12
HETATM   12  C   UNL     1     -11.537  15.967  69.752  1.00  0.00    -0.338 C  
BRANCH  12  13
HETATM   13  C   UNL     1     -12.520  14.887  70.225  1.00  0.00    -0.336 C  
HETATM   14  O   UNL     1     -12.060  13.577  69.837  1.00  0.00    -0.329 OA 
HETATM   15  C   UNL     1     -12.761  12.649  70.662  1.00  0.00    -0.062 C  
HETATM   16  C   UNL     1     -12.809  13.306  72.045  1.00  0.00    -0.210 C  
HETATM   17  H   UNL     1     -13.883  15.496  73.152  1.00  0.00     0.000 HD 
HETATM   18  O   UNL     1     -14.036  13.038  72.736  1.00  0.00    -0.745 OA 
HETATM   19  C   UNL     1     -12.664  14.806  71.747  1.00  0.00    -0.328 C  
HETATM   20  O   UNL     1     -13.793  15.546  72.208  1.00  0.00    -0.484 OA 
HETATM   21  H   UNL     1     -14.066  13.445  73.594  1.00  0.00     0.000 HD 
BRANCH  15  22
HETATM   22  N   UNL     1     -12.112  11.356  70.592  1.00  0.00    -0.377 NA 
HETATM   23  C   UNL     1     -11.048  11.019  69.797  1.00  0.00    -0.235 A  
HETATM   24  C   UNL     1     -11.877   9.187  70.513  1.00  0.00    -0.095 A  
HETATM   25  N   UNL     1     -10.884   9.713  69.719  1.00  0.00    -0.240 NA 
HETATM   26  C   UNL     1     -12.269   7.867  70.795  1.00  0.00    -0.032 A  
HETATM   27  N   UNL     1     -13.262   7.666  71.692  1.00  0.00    -0.352 NA 
HETATM   28  N   UNL     1     -11.709   6.757  70.180  1.00  0.00    -0.578 NA 
HETATM   29  H2  UNL     1     -10.700   6.810  70.321  1.00  0.00     0.000 HD 
HETATM   30  C   UNL     1     -13.865   8.746  72.232  1.00  0.00    -0.447 A  
HETATM   31  H1  UNL     1     -11.994   5.799  70.386  1.00  0.00     0.000 HD 
HETATM   32  N   UNL     1     -13.642  10.053  71.976  1.00  0.00    -0.336 NA 
HETATM   33  C   UNL     1     -12.615  10.194  71.114  1.00  0.00    -0.386 A  
ENDBRANCH  15  22
ENDBRANCH  12  13
ENDBRANCH  10  12
ENDBRANCH   9  10
ENDBRANCH   8   9
ENDBRANCH   1   8
TORSDOF 6
ENDMDL
MODEL       38
REMARK 921   NORMALIZED FREE ENERGY PREDICTED BY IDOCK:   -6.12 KCAL/MOL
REMARK 922        TOTAL FREE ENERGY PREDICTED BY IDOCK:   -9.68 KCAL/MOL
REMARK 923 INTER-LIGAND FREE ENERGY PREDICTED BY IDOCK:   -8.82 KCAL/MOL
REMARK 924 INTRA-LIGAND FREE ENERGY PREDICTED BY IDOCK:   -0.87 KCAL/MOL
REMARK 927      BINDING AFFINITY PREDICTED BY RF-SCORE:    0.00 PKD
ROOT
HETATM    1  CA  UNL     1      -9.734  16.393  65.847  1.00  0.00    -0.294 C  
HETATM    2  C   UNL     1     -10.107  17.761  66.534  1.00  0.00    -0.358 C  
HETATM    3  N   UNL     1      -8.948  15.563  66.830  1.00  0.00    -0.227 NA 
HETATM    4  OXT UNL     1     -10.173  18.749  65.745  1.00  0.00    -0.541 OA 
HETATM    5  H2  UNL     1      -8.770  14.617  66.494  1.00  0.00     0.000 HD 
HETATM    6  O   UNL     1     -10.279  17.703  67.783  1.00  0.00    -0.320 OA 
HETATM    7  H1  UNL     1      -8.093  16.069  67.057  1.00  0.00     0.000 HD 
ENDROOT
BRANCH   1   8
HETATM    8  C   UNL     1     -11.015  15.635  65.507  1.00  0.00    -0.307 C  
BRANCH   8   9
HETATM    9  C   UNL     1     -10.828  14.484  64.514  1.00  0.00    -0.219 C  
BRANCH   9  10
HETATM   10  S   UNL     1     -11.791  13.003  65.061  1.00  0.00    -0.388 S  
HETATM   11  C   UNL     1     -12.094  12.370  63.384  1.00  0.00    -0.524 C  
BRANCH  10  12
HETATM   12  C   UNL     1     -10.339  11.933  65.438  1.00  0.00    -0.267 C  
BRANCH  12  13
HETATM   13  C   UNL     1     -10.127  11.822  66.954  1.00  0.00    -0.207 C  
HETATM   14  O   UNL     1     -10.571  13.021  67.618  1.00  0.00    -0.221 OA 
HETATM   15  C   UNL     1     -10.747  12.675  68.990  1.00  0.00    -0.094 C  
HETATM   16  C   UNL     1     -11.367  11.275  68.968  1.00  0.00    -0.278 C  
HETATM   17  H   UNL     1     -10.662   8.817  68.170  1.00  0.00     0.000 HD 
HETATM   18  O   UNL     1     -10.898  10.451  70.044  1.00  0.00    -0.275 OA 
HETATM   19  C   UNL     1     -10.936  10.700  67.610  1.00  0.00    -0.310 C  
HETATM   20  O   UNL     1     -10.160   9.513  67.763  1.00  0.00    -0.175 OA 
HETATM   21  H   UNL     1     -11.283   9.583  70.030  1.00  0.00     0.000 HD 
BRANCH  15  22
HETATM   22  N   UNL     1     -11.519  13.705  69.652  1.00  0.00    -0.248 NA 
HETATM   23  C   UNL     1     -11.355  15.059  69.523  1.00  0.00    -0.288 A  
HETATM   24  C   UNL     1     -12.590  14.758  71.237  1.00  0.00    -0.334 A  
HETATM   25  N   UNL     1     -11.981  15.726  70.472  1.00  0.00    -0.365 NA 
HETATM   26  C   UNL     1     -13.351  14.818  72.417  1.00  0.00    -0.408 A  
HETATM   27  N   UNL     1     -13.885  13.672  72.901  1.00  0.00    -0.541 NA 
HETATM   28  N   UNL     1     -13.563  15.990  73.129  1.00  0.00    -0.645 NA 
HETATM   29  H2  UNL     1     -13.955  16.672  72.481  1.00  0.00     0.000 HD 
HETATM   30  C   UNL     1     -13.615  12.518  72.256  1.00  0.00    -0.342 A  
HETATM   31  H1  UNL     1     -14.115  16.033  73.986  1.00  0.00     0.000 HD 
HETATM   32  N   UNL     1     -12.831  12.320  71.174  1.00  0.00    -0.279 NA 
HETATM   33  C   UNL     1     -12.366  13.496  70.709  1.00  0.00    -0.363 A  
ENDBRANCH  15  22
ENDBRANCH  12  13
ENDBRANCH  10  12
ENDBRANCH   9  10
ENDBRANCH   8   9
ENDBRANCH   1   8
TORSDOF 6
ENDMDL
MODEL       39
REMARK 921   NORMALIZED FREE ENERGY PREDICTED BY IDOCK:   -6.10 KCAL/MOL
REMARK 922        TOTAL FREE ENERGY PREDICTED BY IDOCK:   -9.65 KCAL/MOL
REMARK 923 INTER-LIGAND FREE ENERGY PREDICTED BY IDOCK:   -8.46 KCAL/MOL
REMARK 924 INTRA-LIGAND FREE ENERGY PREDICTED BY IDOCK:   -1.20 KCAL/MOL
REMARK 927      BINDING AFFINITY PREDICTED BY RF-SCORE:    0.00 PKD
ROOT
HETATM    1  CA  UNL     1     -11.793  14.081  64.957  1.00  0.00    -0.378 C  
HETATM    2  C   UNL     1     -11.573  15.548  64.424  1.00  0.00    -0.258 C  
HETATM    3  N   UNL     1     -13.264  13.884  65.218  1.00  0.00    -0.721 NA 
HETATM    4  OXT UNL     1     -10.465  16.068  64.748  1.00  0.00    -0.564 OA 
HETATM    5  H2  UNL     1     -13.496  12.920  65.458  1.00  0.00     0.000 HD 
HETATM    6  O   UNL     1     -12.531  16.022  63.753  1.00  0.00    -0.784 OA 
HETATM    7  H1  UNL     1     -13.549  14.549  65.936  1.00  0.00     0.000 HD 
ENDROOT
BRANCH   1   8
HETATM    8  C   UNL     1     -11.366  13.085  63.881  1.00  0.00    -0.460 C  
BRANCH   8   9
HETATM    9  C   UNL     1      -9.897  12.658  63.957  1.00  0.00    -0.006 C  
BRANCH   9  10
HETATM   10  S   UNL     1      -9.772  10.829  64.199  1.00  0.00    -0.336 S  
HETATM   11  C   UNL     1      -8.560  10.566  62.870  1.00  0.00    -0.200 C  
BRANCH  10  12
HETATM   12  C   UNL     1      -8.563  10.882  65.588  1.00  0.00    -0.160 C  
BRANCH  12  13
HETATM   13  C   UNL     1      -9.289  10.986  66.936  1.00  0.00    -0.173 C  
HETATM   14  O   UNL     1      -9.312  12.352  67.395  1.00  0.00    -0.173 OA 
HETATM   15  C   UNL     1     -10.342  12.424  68.378  1.00  0.00    -0.229 C  
HETATM   16  C   UNL     1     -11.475  11.551  67.829  1.00  0.00    -0.286 C  
HETATM   17  H   UNL     1     -11.864   8.968  67.237  1.00  0.00     0.000 HD 
HETATM   18  O   UNL     1     -12.168  10.840  68.862  1.00  0.00    -0.748 OA 
HETATM   19  C   UNL     1     -10.763  10.579  66.876  1.00  0.00    -0.219 C  
HETATM   20  O   UNL     1     -10.950   9.222  67.274  1.00  0.00    -0.166 OA 
HETATM   21  H   UNL     1     -12.870  10.298  68.522  1.00  0.00     0.000 HD 
BRANCH  15  22
HETATM   22  N   UNL     1     -10.672  13.812  68.630  1.00  0.00    -0.253 NA 
HETATM   23  C   UNL     1     -11.921  14.373  68.599  1.00  0.00    -0.297 A  
HETATM   24  C   UNL     1     -10.528  15.990  68.580  1.00  0.00    -0.251 A  
HETATM   25  N   UNL     1     -11.871  15.690  68.558  1.00  0.00    -0.315 NA 
HETATM   26  C   UNL     1      -9.824  17.204  68.500  1.00  0.00    -0.297 A  
HETATM   27  N   UNL     1      -8.477  17.178  68.624  1.00  0.00    -0.261 NA 
HETATM   28  N   UNL     1     -10.437  18.428  68.273  1.00  0.00    -0.342 NA 
HETATM   29  H2  UNL     1     -11.158  18.542  68.985  1.00  0.00     0.000 HD 
HETATM   30  C   UNL     1      -7.870  15.982  68.764  1.00  0.00    -0.190 A  
HETATM   31  H1  UNL     1      -9.926  19.308  68.214  1.00  0.00     0.000 HD 
HETATM   32  N   UNL     1      -8.423  14.749  68.766  1.00  0.00    -0.166 NA 
HETATM   33  C   UNL     1      -9.765  14.837  68.687  1.00  0.00    -0.225 A  
ENDBRANCH  15  22
ENDBRANCH  12  13
ENDBRANCH  10  12
ENDBRANCH   9  10
ENDBRANCH   8   9
ENDBRANCH   1   8
TORSDOF 6
ENDMDL
MODEL       40
REMARK 921   NORMALIZED FREE ENERGY PREDICTED BY IDOCK:   -6.08 KCAL/MOL
REMARK 922        TOTAL FREE ENERGY PREDICTED BY IDOCK:   -9.63 KCAL/MOL
REMARK 923 INTER-LIGAND FREE ENERGY PREDICTED BY IDOCK:   -9.29 KCAL/MOL
REMARK 924 INTRA-LIGAND FREE ENERGY PREDICTED BY IDOCK:   -0.34 KCAL/MOL
REMARK 927      BINDING AFFINITY PREDICTED BY RF-SCORE:    0.00 PKD
ROOT
HETATM    1  CA  UNL     1     -11.268   6.789  72.308  1.00  0.00    -0.259 C  
HETATM    2  C   UNL     1     -10.092   6.994  73.338  1.00  0.00    -0.284 C  
HETATM    3  N   UNL     1     -12.064   5.579  72.728  1.00  0.00    -0.477 NA 
HETATM    4  OXT UNL     1      -9.037   7.490  72.844  1.00  0.00    -0.140 OA 
HETATM    5  H2  UNL     1     -12.909   5.452  72.172  1.00  0.00     0.000 HD 
HETATM    6  O   UNL     1     -10.345   6.626  74.519  1.00  0.00    -0.328 OA 
HETATM    7  H1  UNL     1     -11.446   4.769  72.698  1.00  0.00     0.000 HD 
ENDROOT
BRANCH   1   8
HETATM    8  C   UNL     1     -12.193   8.003  72.353  1.00  0.00    -0.337 C  
BRANCH   8   9
HETATM    9  C   UNL     1     -12.429   8.672  70.995  1.00  0.00    -0.098 C  
BRANCH   9  10
HETATM   10  S   UNL     1     -11.238  10.066  70.753  1.00  0.00    -0.341 S  
HETATM   11  C   UNL     1     -10.900   9.696  69.006  1.00  0.00    -0.183 C  
BRANCH  10  12
HETATM   12  C   UNL     1     -12.501  11.374  70.457  1.00  0.00    -0.293 C  
BRANCH  12  13
HETATM   13  C   UNL     1     -11.887  12.770  70.628  1.00  0.00     0.065 C  
HETATM   14  O   UNL     1     -11.212  13.179  69.422  1.00  0.00    -0.226 OA 
HETATM   15  C   UNL     1     -11.066  14.595  69.509  1.00  0.00    -0.266 C  
HETATM   16  C   UNL     1     -12.380  15.092  70.118  1.00  0.00    -0.341 C  
HETATM   17  H   UNL     1     -13.706  14.829  72.430  1.00  0.00     0.000 HD 
HETATM   18  O   UNL     1     -12.187  16.204  71.002  1.00  0.00    -0.543 OA 
HETATM   19  C   UNL     1     -12.919  13.872  70.881  1.00  0.00    -0.246 C  
HETATM   20  O   UNL     1     -13.066  14.145  72.273  1.00  0.00    -0.369 OA 
HETATM   21  H   UNL     1     -13.002  16.513  71.380  1.00  0.00     0.000 HD 
BRANCH  15  22
HETATM   22  N   UNL     1     -10.726  15.125  68.205  1.00  0.00    -0.248 NA 
HETATM   23  C   UNL     1     -10.023  16.273  67.948  1.00  0.00    -0.241 A  
HETATM   24  C   UNL     1     -10.947  15.702  66.110  1.00  0.00    -0.206 A  
HETATM   25  N   UNL     1     -10.143  16.656  66.692  1.00  0.00    -0.290 NA 
HETATM   26  C   UNL     1     -11.487  15.573  64.819  1.00  0.00    -0.313 A  
HETATM   27  N   UNL     1     -12.197  14.459  64.525  1.00  0.00    -0.533 NA 
HETATM   28  N   UNL     1     -11.352  16.542  63.836  1.00  0.00    -1.559 NA 
HETATM   29  H2  UNL     1     -10.355  16.730  63.730  1.00  0.00     0.000 HD 
HETATM   30  C   UNL     1     -12.399  13.552  65.502  1.00  0.00    -0.481 A  
HETATM   31  H1  UNL     1     -11.744  16.448  62.899  1.00  0.00     0.000 HD 
HETATM   32  N   UNL     1     -12.012  13.604  66.795  1.00  0.00    -0.405 NA 
HETATM   33  C   UNL     1     -11.271  14.707  67.020  1.00  0.00    -0.344 A  
ENDBRANCH  15  22
ENDBRANCH  12  13
ENDBRANCH  10  12
ENDBRANCH   9  10
ENDBRANCH   8   9
ENDBRANCH   1   8
TORSDOF 6
ENDMDL
MODEL       41
REMARK 921   NORMALIZED FREE ENERGY PREDICTED BY IDOCK:   -6.07 KCAL/MOL
REMARK 922        TOTAL FREE ENERGY PREDICTED BY IDOCK:   -9.62 KCAL/MOL
REMARK 923 INTER-LIGAND FREE ENERGY PREDICTED BY IDOCK:   -8.88 KCAL/MOL
REMARK 924 INTRA-LIGAND FREE ENERGY PREDICTED BY IDOCK:   -0.75 KCAL/MOL
REMARK 927      BINDING AFFINITY PREDICTED BY RF-SCORE:    0.00 PKD
ROOT
HETATM    1  CA  UNL     1     -11.698  14.450  64.931  1.00  0.00    -0.408 C  
HETATM    2  C   UNL     1     -11.006  15.724  65.550  1.00  0.00    -0.268 C  
HETATM    3  N   UNL     1     -12.534  14.884  63.755  1.00  0.00    -1.062 NA 
HETATM    4  OXT UNL     1     -10.824  15.672  66.802  1.00  0.00    -0.317 OA 
HETATM    5  H2  UNL     1     -12.922  14.097  63.235  1.00  0.00     0.000 HD 
HETATM    6  O   UNL     1     -10.733  16.638  64.724  1.00  0.00    -0.721 OA 
HETATM    7  H1  UNL     1     -13.251  15.524  64.096  1.00  0.00     0.000 HD 
ENDROOT
BRANCH   1   8
HETATM    8  C   UNL     1     -10.625  13.492  64.420  1.00  0.00    -0.394 C  
BRANCH   8   9
HETATM    9  C   UNL     1     -11.169  12.238  63.729  1.00  0.00    -0.440 C  
BRANCH   9  10
HETATM   10  S   UNL     1     -10.155  10.761  64.190  1.00  0.00    -0.338 S  
HETATM   11  C   UNL     1      -8.935  10.973  62.860  1.00  0.00    -0.274 C  
BRANCH  10  12
HETATM   12  C   UNL     1      -9.176  11.583  65.517  1.00  0.00    -0.142 C  
BRANCH  12  13
HETATM   13  C   UNL     1      -9.005  10.648  66.722  1.00  0.00    -0.138 C  
HETATM   14  O   UNL     1      -9.974  10.957  67.744  1.00  0.00    -0.171 OA 
HETATM   15  C   UNL     1     -10.036   9.812  68.591  1.00  0.00    -0.167 C  
HETATM   16  C   UNL     1      -9.953   8.612  67.643  1.00  0.00    -0.194 C  
HETATM   17  H   UNL     1      -8.177   7.569  65.931  1.00  0.00     0.000 HD 
HETATM   18  O   UNL     1      -9.212   7.520  68.203  1.00  0.00    -0.138 OA 
HETATM   19  C   UNL     1      -9.248   9.172  66.398  1.00  0.00    -0.183 C  
HETATM   20  O   UNL     1      -8.026   8.485  66.132  1.00  0.00    -0.098 OA 
HETATM   21  H   UNL     1      -9.161   6.776  67.616  1.00  0.00     0.000 HD 
BRANCH  15  22
HETATM   22  N   UNL     1     -11.220   9.889  69.421  1.00  0.00    -0.194 NA 
HETATM   23  C   UNL     1     -11.912  11.025  69.751  1.00  0.00    -0.356 A  
HETATM   24  C   UNL     1     -12.588   9.494  71.077  1.00  0.00    -0.253 A  
HETATM   25  N   UNL     1     -12.741  10.824  70.757  1.00  0.00    -0.361 NA 
HETATM   26  C   UNL     1     -13.142   8.689  72.087  1.00  0.00    -0.383 A  
HETATM   27  N   UNL     1     -12.843   7.369  72.098  1.00  0.00    -0.151 NA 
HETATM   28  N   UNL     1     -13.961   9.183  73.092  1.00  0.00    -1.161 NA 
HETATM   29  H2  UNL     1     -14.732   9.676  72.640  1.00  0.00     0.000 HD 
HETATM   30  C   UNL     1     -11.983   6.900  71.171  1.00  0.00    -0.366 A  
HETATM   31  H1  UNL     1     -14.363   8.598  73.825  1.00  0.00     0.000 HD 
HETATM   32  N   UNL     1     -11.320   7.583  70.212  1.00  0.00    -0.242 NA 
HETATM   33  C   UNL     1     -11.690   8.879  70.217  1.00  0.00     0.045 A  
ENDBRANCH  15  22
ENDBRANCH  12  13
ENDBRANCH  10  12
ENDBRANCH   9  10
ENDBRANCH   8   9
ENDBRANCH   1   8
TORSDOF 6
ENDMDL
MODEL       42
REMARK 921   NORMALIZED FREE ENERGY PREDICTED BY IDOCK:   -6.05 KCAL/MOL
REMARK 922        TOTAL FREE ENERGY PREDICTED BY IDOCK:   -9.59 KCAL/MOL
REMARK 923 INTER-LIGAND FREE ENERGY PREDICTED BY IDOCK:   -9.50 KCAL/MOL
REMARK 924 INTRA-LIGAND FREE ENERGY PREDICTED BY IDOCK:   -0.09 KCAL/MOL
REMARK 927      BINDING AFFINITY PREDICTED BY RF-SCORE:    0.00 PKD
ROOT
HETATM    1  CA  UNL     1     -11.588  13.142  64.217  1.00  0.00    -0.392 C  
HETATM    2  C   UNL     1     -12.607  13.116  65.419  1.00  0.00    -0.454 C  
HETATM    3  N   UNL     1     -12.257  13.801  63.038  1.00  0.00    -0.977 NA 
HETATM    4  OXT UNL     1     -12.489  12.121  66.193  1.00  0.00    -0.384 OA 
HETATM    5  H2  UNL     1     -11.618  13.954  62.258  1.00  0.00     0.000 HD 
HETATM    6  O   UNL     1     -13.420  14.082  65.452  1.00  0.00    -0.679 OA 
HETATM    7  H1  UNL     1     -13.067  13.238  62.780  1.00  0.00     0.000 HD 
ENDROOT
BRANCH   1   8
HETATM    8  C   UNL     1     -10.375  13.984  64.604  1.00  0.00    -0.337 C  
BRANCH   8   9
HETATM    9  C   UNL     1     -10.668  15.476  64.784  1.00  0.00    -0.304 C  
BRANCH   9  10
HETATM   10  S   UNL     1      -9.566  16.194  66.083  1.00  0.00    -0.349 S  
HETATM   11  C   UNL     1     -10.779  17.409  66.681  1.00  0.00    -0.084 C  
BRANCH  10  12
HETATM   12  C   UNL     1      -9.891  14.914  67.368  1.00  0.00    -0.221 C  
BRANCH  12  13
HETATM   13  C   UNL     1     -10.886  15.435  68.414  1.00  0.00    -0.268 C  
HETATM   14  O   UNL     1     -11.747  14.372  68.867  1.00  0.00    -0.286 OA 
HETATM   15  C   UNL     1     -12.311  14.816  70.100  1.00  0.00    -0.330 C  
HETATM   16  C   UNL     1     -11.166  15.532  70.823  1.00  0.00    -0.354 C  
HETATM   17  H   UNL     1      -9.642  17.701  70.442  1.00  0.00     0.000 HD 
HETATM   18  O   UNL     1     -11.617  16.670  71.570  1.00  0.00    -0.606 OA 
HETATM   19  C   UNL     1     -10.222  15.960  69.690  1.00  0.00    -0.280 C  
HETATM   20  O   UNL     1     -10.054  17.375  69.650  1.00  0.00    -0.046 OA 
HETATM   21  H   UNL     1     -10.908  17.114  72.019  1.00  0.00     0.000 HD 
BRANCH  15  22
HETATM   22  N   UNL     1     -12.899  13.690  70.794  1.00  0.00    -0.247 NA 
HETATM   23  C   UNL     1     -13.679  13.742  71.920  1.00  0.00    -0.426 A  
HETATM   24  C   UNL     1     -13.081  11.706  71.688  1.00  0.00    -0.351 A  
HETATM   25  N   UNL     1     -13.801  12.560  72.492  1.00  0.00    -0.251 NA 
HETATM   26  C   UNL     1     -12.778  10.337  71.786  1.00  0.00    -0.433 A  
HETATM   27  N   UNL     1     -12.092   9.753  70.776  1.00  0.00    -0.289 NA 
HETATM   28  N   UNL     1     -13.124   9.556  72.880  1.00  0.00    -0.388 NA 
HETATM   29  H2  UNL     1     -14.130   9.654  73.017  1.00  0.00     0.000 HD 
HETATM   30  C   UNL     1     -11.684  10.526  69.749  1.00  0.00    -0.281 A  
HETATM   31  H1  UNL     1     -12.904   8.562  72.951  1.00  0.00     0.000 HD 
HETATM   32  N   UNL     1     -11.833  11.859  69.584  1.00  0.00    -0.328 NA 
HETATM   33  C   UNL     1     -12.562  12.378  70.592  1.00  0.00    -0.153 A  
ENDBRANCH  15  22
ENDBRANCH  12  13
ENDBRANCH  10  12
ENDBRANCH   9  10
ENDBRANCH   8   9
ENDBRANCH   1   8
TORSDOF 6
ENDMDL
MODEL       43
REMARK 921   NORMALIZED FREE ENERGY PREDICTED BY IDOCK:   -6.05 KCAL/MOL
REMARK 922        TOTAL FREE ENERGY PREDICTED BY IDOCK:   -9.59 KCAL/MOL
REMARK 923 INTER-LIGAND FREE ENERGY PREDICTED BY IDOCK:   -8.95 KCAL/MOL
REMARK 924 INTRA-LIGAND FREE ENERGY PREDICTED BY IDOCK:   -0.64 KCAL/MOL
REMARK 927      BINDING AFFINITY PREDICTED BY RF-SCORE:    0.00 PKD
ROOT
HETATM    1  CA  UNL     1     -11.400  16.031  65.641  1.00  0.00     0.194 C  
HETATM    2  C   UNL     1     -10.213  16.810  66.325  1.00  0.00    -0.332 C  
HETATM    3  N   UNL     1     -11.171  16.025  64.151  1.00  0.00    -1.115 NA 
HETATM    4  OXT UNL     1     -10.529  17.435  67.380  1.00  0.00    -0.337 OA 
HETATM    5  H2  UNL     1     -11.841  15.440  63.652  1.00  0.00     0.000 HD 
HETATM    6  O   UNL     1      -9.103  16.723  65.730  1.00  0.00    -0.515 OA 
HETATM    7  H1  UNL     1     -11.173  16.992  63.827  1.00  0.00     0.000 HD 
ENDROOT
BRANCH   1   8
HETATM    8  C   UNL     1     -11.398  14.583  66.126  1.00  0.00    -0.348 C  
BRANCH   8   9
HETATM    9  C   UNL     1     -11.985  13.578  65.130  1.00  0.00    -0.368 C  
BRANCH   9  10
HETATM   10  S   UNL     1     -11.016  12.004  65.161  1.00  0.00    -0.317 S  
HETATM   11  C   UNL     1     -10.335  12.191  63.487  1.00  0.00    -0.441 C  
BRANCH  10  12
HETATM   12  C   UNL     1      -9.556  12.671  66.065  1.00  0.00    -0.188 C  
BRANCH  12  13
HETATM   13  C   UNL     1      -9.237  11.808  67.293  1.00  0.00    -0.173 C  
HETATM   14  O   UNL     1     -10.302  11.890  68.261  1.00  0.00    -0.189 OA 
HETATM   15  C   UNL     1     -10.142  10.766  69.124  1.00  0.00    -0.205 C  
HETATM   16  C   UNL     1      -9.737   9.613  68.201  1.00  0.00    -0.146 C  
HETATM   17  H   UNL     1      -7.682   8.999  66.596  1.00  0.00     0.000 HD 
HETATM   18  O   UNL     1      -8.794   8.724  68.815  1.00  0.00    -0.133 OA 
HETATM   19  C   UNL     1      -9.116  10.314  66.983  1.00  0.00    -0.139 C  
HETATM   20  O   UNL     1      -7.758   9.926  66.788  1.00  0.00    -0.098 OA 
HETATM   21  H   UNL     1      -8.543   8.009  68.243  1.00  0.00     0.000 HD 
BRANCH  15  22
HETATM   22  N   UNL     1     -11.354  10.572  69.893  1.00  0.00    -0.286 NA 
HETATM   23  C   UNL     1     -12.162  11.554  70.402  1.00  0.00    -0.355 A  
HETATM   24  C   UNL     1     -12.726   9.737  71.372  1.00  0.00    -0.387 A  
HETATM   25  N   UNL     1     -12.999  11.085  71.308  1.00  0.00    -0.395 NA 
HETATM   26  C   UNL     1     -13.231   8.703  72.179  1.00  0.00    -0.383 A  
HETATM   27  N   UNL     1     -12.805   7.439  71.950  1.00  0.00    -0.302 NA 
HETATM   28  N   UNL     1     -14.125   8.914  73.219  1.00  0.00    -1.248 NA 
HETATM   29  H2  UNL     1     -14.925   9.415  72.833  1.00  0.00     0.000 HD 
HETATM   30  C   UNL     1     -11.875   7.241  70.993  1.00  0.00    -0.318 A  
HETATM   31  H1  UNL     1     -14.491   8.163  73.804  1.00  0.00     0.000 HD 
HETATM   32  N   UNL     1     -11.252   8.156  70.218  1.00  0.00    -0.227 NA 
HETATM   33  C   UNL     1     -11.747   9.387  70.455  1.00  0.00    -0.198 A  
ENDBRANCH  15  22
ENDBRANCH  12  13
ENDBRANCH  10  12
ENDBRANCH   9  10
ENDBRANCH   8   9
ENDBRANCH   1   8
TORSDOF 6
ENDMDL
MODEL       44
REMARK 921   NORMALIZED FREE ENERGY PREDICTED BY IDOCK:   -6.03 KCAL/MOL
REMARK 922        TOTAL FREE ENERGY PREDICTED BY IDOCK:   -9.57 KCAL/MOL
REMARK 923 INTER-LIGAND FREE ENERGY PREDICTED BY IDOCK:   -8.70 KCAL/MOL
REMARK 924 INTRA-LIGAND FREE ENERGY PREDICTED BY IDOCK:   -0.86 KCAL/MOL
REMARK 927      BINDING AFFINITY PREDICTED BY RF-SCORE:    0.00 PKD
ROOT
HETATM    1  CA  UNL     1     -11.838  10.139  69.581  1.00  0.00    -0.045 C  
HETATM    2  C   UNL     1     -12.180  10.943  70.893  1.00  0.00    -0.381 C  
HETATM    3  N   UNL     1     -12.270  10.959  68.393  1.00  0.00    -0.810 NA 
HETATM    4  OXT UNL     1     -12.478  10.224  71.892  1.00  0.00    -0.374 OA 
HETATM    5  H2  UNL     1     -11.977  10.551  67.505  1.00  0.00     0.000 HD 
HETATM    6  O   UNL     1     -12.126  12.199  70.780  1.00  0.00    -0.347 OA 
HETATM    7  H1  UNL     1     -13.280  11.092  68.452  1.00  0.00     0.000 HD 
ENDROOT
BRANCH   1   8
HETATM    8  C   UNL     1     -10.327   9.939  69.493  1.00  0.00    -0.248 C  
BRANCH   8   9
HETATM    9  C   UNL     1      -9.621  10.862  68.495  1.00  0.00    -0.187 C  
BRANCH   9  10
HETATM   10  S   UNL     1      -8.674   9.864  67.259  1.00  0.00    -0.128 S  
HETATM   11  C   UNL     1     -10.132   9.027  66.566  1.00  0.00    -0.283 C  
BRANCH  10  12
HETATM   12  C   UNL     1      -8.549  11.180  65.975  1.00  0.00    -0.154 C  
BRANCH  12  13
HETATM   13  C   UNL     1      -9.918  11.830  65.730  1.00  0.00    -0.238 C  
HETATM   14  O   UNL     1      -9.962  13.151  66.304  1.00  0.00    -0.274 OA 
HETATM   15  C   UNL     1     -11.051  13.822  65.673  1.00  0.00    -0.295 C  
HETATM   16  C   UNL     1     -10.987  13.388  64.206  1.00  0.00    -0.369 C  
HETATM   17  H   UNL     1     -11.240  11.118  62.807  1.00  0.00     0.000 HD 
HETATM   18  O   UNL     1     -12.288  13.233  63.624  1.00  0.00    -0.665 OA 
HETATM   19  C   UNL     1     -10.242  12.045  64.249  1.00  0.00    -0.318 C  
HETATM   20  O   UNL     1     -11.039  10.984  63.726  1.00  0.00    -0.229 OA 
HETATM   21  H   UNL     1     -12.249  12.963  62.714  1.00  0.00     0.000 HD 
BRANCH  15  22
HETATM   22  N   UNL     1     -10.950  15.245  65.923  1.00  0.00    -0.337 NA 
HETATM   23  C   UNL     1     -10.622  16.212  65.009  1.00  0.00    -0.276 A  
HETATM   24  C   UNL     1     -10.452  17.114  66.937  1.00  0.00    -0.274 A  
HETATM   25  N   UNL     1     -10.306  17.354  65.590  1.00  0.00    -0.624 NA 
HETATM   26  C   UNL     1     -10.213  17.904  68.075  1.00  0.00    -0.376 A  
HETATM   27  N   UNL     1     -10.529  17.398  69.290  1.00  0.00    -0.283 NA 
HETATM   28  N   UNL     1      -9.643  19.167  68.019  1.00  0.00    -0.316 NA 
HETATM   29  H2  UNL     1     -10.205  19.725  67.376  1.00  0.00     0.000 HD 
HETATM   30  C   UNL     1     -11.008  16.139  69.354  1.00  0.00    -0.333 A  
HETATM   31  H1  UNL     1      -9.469  19.740  68.845  1.00  0.00     0.000 HD 
HETATM   32  N   UNL     1     -11.196  15.255  68.350  1.00  0.00    -0.293 NA 
HETATM   33  C   UNL     1     -10.911  15.825  67.163  1.00  0.00    -0.244 A  
ENDBRANCH  15  22
ENDBRANCH  12  13
ENDBRANCH  10  12
ENDBRANCH   9  10
ENDBRANCH   8   9
ENDBRANCH   1   8
TORSDOF 6
ENDMDL
MODEL       45
REMARK 921   NORMALIZED FREE ENERGY PREDICTED BY IDOCK:   -6.02 KCAL/MOL
REMARK 922        TOTAL FREE ENERGY PREDICTED BY IDOCK:   -9.55 KCAL/MOL
REMARK 923 INTER-LIGAND FREE ENERGY PREDICTED BY IDOCK:   -9.10 KCAL/MOL
REMARK 924 INTRA-LIGAND FREE ENERGY PREDICTED BY IDOCK:   -0.45 KCAL/MOL
REMARK 927      BINDING AFFINITY PREDICTED BY RF-SCORE:    0.00 PKD
ROOT
HETATM    1  CA  UNL     1     -11.822  11.970  64.046  1.00  0.00    -0.408 C  
HETATM    2  C   UNL     1     -12.192  13.464  64.387  1.00  0.00    -0.389 C  
HETATM    3  N   UNL     1     -12.740  11.488  62.952  1.00  0.00    -0.839 NA 
HETATM    4  OXT UNL     1     -12.011  13.792  65.596  1.00  0.00    -0.349 OA 
HETATM    5  H2  UNL     1     -12.484  10.565  62.602  1.00  0.00     0.000 HD 
HETATM    6  O   UNL     1     -12.633  14.140  63.416  1.00  0.00    -0.818 OA 
HETATM    7  H1  UNL     1     -13.696  11.525  63.304  1.00  0.00     0.000 HD 
ENDROOT
BRANCH   1   8
HETATM    8  C   UNL     1     -10.389  11.913  63.521  1.00  0.00    -0.495 C  
BRANCH   8   9
HETATM    9  C   UNL     1      -9.721  10.540  63.643  1.00  0.00    -0.318 C  
BRANCH   9  10
HETATM   10  S   UNL     1      -9.686   9.999  65.411  1.00  0.00    -0.315 S  
HETATM   11  C   UNL     1      -8.568   8.593  65.134  1.00  0.00    -0.173 C  
BRANCH  10  12
HETATM   12  C   UNL     1      -8.398  11.193  65.971  1.00  0.00    -0.115 C  
BRANCH  12  13
HETATM   13  C   UNL     1      -8.410  11.324  67.500  1.00  0.00    -0.131 C  
HETATM   14  O   UNL     1      -9.758  11.255  68.005  1.00  0.00    -0.169 OA 
HETATM   15  C   UNL     1      -9.647  10.949  69.393  1.00  0.00     0.036 C  
HETATM   16  C   UNL     1      -8.509   9.928  69.484  1.00  0.00    -0.176 C  
HETATM   17  H   UNL     1      -5.876   9.861  68.996  1.00  0.00     0.000 HD 
HETATM   18  O   UNL     1      -7.717  10.094  70.667  1.00  0.00    -0.428 OA 
HETATM   19  C   UNL     1      -7.673  10.193  68.223  1.00  0.00    -0.088 C  
HETATM   20  O   UNL     1      -6.334  10.562  68.547  1.00  0.00    -0.050 OA 
HETATM   21  H   UNL     1      -7.011   9.462  70.724  1.00  0.00     0.000 HD 
BRANCH  15  22
HETATM   22  N   UNL     1     -10.935  10.515  69.895  1.00  0.00    -0.288 NA 
HETATM   23  C   UNL     1     -12.150  11.091  69.631  1.00  0.00    -0.340 A  
HETATM   24  C   UNL     1     -12.445   9.784  71.293  1.00  0.00    -0.367 A  
HETATM   25  N   UNL     1     -13.084  10.678  70.465  1.00  0.00    -0.228 NA 
HETATM   26  C   UNL     1     -12.874   9.051  72.414  1.00  0.00    -0.385 A  
HETATM   27  N   UNL     1     -12.010   8.180  72.985  1.00  0.00    -0.172 NA 
HETATM   28  N   UNL     1     -14.131   9.194  72.982  1.00  0.00    -1.124 NA 
HETATM   29  H2  UNL     1     -14.817   9.045  72.242  1.00  0.00     0.000 HD 
HETATM   30  C   UNL     1     -10.759   8.098  72.485  1.00  0.00    -0.349 A  
HETATM   31  H1  UNL     1     -14.442   8.662  73.796  1.00  0.00     0.000 HD 
HETATM   32  N   UNL     1     -10.204   8.807  71.478  1.00  0.00    -0.271 NA 
HETATM   33  C   UNL     1     -11.120   9.622  70.917  1.00  0.00    -0.352 A  
ENDBRANCH  15  22
ENDBRANCH  12  13
ENDBRANCH  10  12
ENDBRANCH   9  10
ENDBRANCH   8   9
ENDBRANCH   1   8
TORSDOF 6
ENDMDL
MODEL       46
REMARK 921   NORMALIZED FREE ENERGY PREDICTED BY IDOCK:   -6.02 KCAL/MOL
REMARK 922        TOTAL FREE ENERGY PREDICTED BY IDOCK:   -9.55 KCAL/MOL
REMARK 923 INTER-LIGAND FREE ENERGY PREDICTED BY IDOCK:   -9.19 KCAL/MOL
REMARK 924 INTRA-LIGAND FREE ENERGY PREDICTED BY IDOCK:   -0.36 KCAL/MOL
REMARK 927      BINDING AFFINITY PREDICTED BY RF-SCORE:    0.00 PKD
ROOT
HETATM    1  CA  UNL     1      -7.989  20.402  67.210  1.00  0.00    -0.335 C  
HETATM    2  C   UNL     1      -6.493  19.929  67.054  1.00  0.00    -0.192 C  
HETATM    3  N   UNL     1      -8.683  20.236  65.883  1.00  0.00    -0.552 NA 
HETATM    4  OXT UNL     1      -5.663  20.547  67.784  1.00  0.00    -0.200 OA 
HETATM    5  H2  UNL     1      -9.685  20.417  65.937  1.00  0.00     0.000 HD 
HETATM    6  O   UNL     1      -6.310  19.004  66.214  1.00  0.00    -0.175 OA 
HETATM    7  H1  UNL     1      -8.211  20.832  65.203  1.00  0.00     0.000 HD 
ENDROOT
BRANCH   1   8
HETATM    8  C   UNL     1      -8.695  19.511  68.228  1.00  0.00    -0.380 C  
BRANCH   8   9
HETATM    9  C   UNL     1      -8.089  18.112  68.377  1.00  0.00    -0.303 C  
BRANCH   9  10
HETATM   10  S   UNL     1      -9.345  16.821  67.959  1.00  0.00    -0.233 S  
HETATM   11  C   UNL     1     -10.764  17.956  67.972  1.00  0.00    -0.294 C  
BRANCH  10  12
HETATM   12  C   UNL     1      -9.069  16.840  66.137  1.00  0.00    -0.253 C  
BRANCH  12  13
HETATM   13  C   UNL     1      -9.732  15.625  65.475  1.00  0.00    -0.251 C  
HETATM   14  O   UNL     1      -9.600  14.457  66.310  1.00  0.00    -0.289 OA 
HETATM   15  C   UNL     1     -10.582  13.529  65.854  1.00  0.00    -0.284 C  
HETATM   16  C   UNL     1     -11.816  14.381  65.541  1.00  0.00    -0.357 C  
HETATM   17  H   UNL     1     -12.487  16.327  63.827  1.00  0.00     0.000 HD 
HETATM   18  O   UNL     1     -12.541  13.897  64.403  1.00  0.00    -0.647 OA 
HETATM   19  C   UNL     1     -11.242  15.780  65.271  1.00  0.00    -0.190 C  
HETATM   20  O   UNL     1     -11.550  16.230  63.954  1.00  0.00    -0.987 OA 
HETATM   21  H   UNL     1     -13.306  14.425  64.208  1.00  0.00     0.000 HD 
BRANCH  15  22
HETATM   22  N   UNL     1     -10.760  12.489  66.846  1.00  0.00    -0.239 NA 
HETATM   23  C   UNL     1     -10.783  11.139  66.618  1.00  0.00    -0.269 A  
HETATM   24  C   UNL     1     -11.556  11.435  68.585  1.00  0.00    -0.320 A  
HETATM   25  N   UNL     1     -11.268  10.471  67.646  1.00  0.00    -0.378 NA 
HETATM   26  C   UNL     1     -12.145  11.375  69.860  1.00  0.00    -0.330 A  
HETATM   27  N   UNL     1     -12.229  12.513  70.587  1.00  0.00    -0.351 NA 
HETATM   28  N   UNL     1     -12.669  10.211  70.403  1.00  0.00    -0.544 NA 
HETATM   29  H2  UNL     1     -11.934   9.505  70.375  1.00  0.00     0.000 HD 
HETATM   30  C   UNL     1     -11.793  13.662  70.030  1.00  0.00    -0.308 A  
HETATM   31  H1  UNL     1     -13.097  10.168  71.329  1.00  0.00     0.000 HD 
HETATM   32  N   UNL     1     -11.294  13.863  68.791  1.00  0.00    -0.259 NA 
HETATM   33  C   UNL     1     -11.190  12.693  68.131  1.00  0.00    -0.269 A  
ENDBRANCH  15  22
ENDBRANCH  12  13
ENDBRANCH  10  12
ENDBRANCH   9  10
ENDBRANCH   8   9
ENDBRANCH   1   8
TORSDOF 6
ENDMDL
MODEL       47
REMARK 921   NORMALIZED FREE ENERGY PREDICTED BY IDOCK:   -6.02 KCAL/MOL
REMARK 922        TOTAL FREE ENERGY PREDICTED BY IDOCK:   -9.55 KCAL/MOL
REMARK 923 INTER-LIGAND FREE ENERGY PREDICTED BY IDOCK:   -8.62 KCAL/MOL
REMARK 924 INTRA-LIGAND FREE ENERGY PREDICTED BY IDOCK:   -0.93 KCAL/MOL
REMARK 927      BINDING AFFINITY PREDICTED BY RF-SCORE:    0.00 PKD
ROOT
HETATM    1  CA  UNL     1      -8.096  19.291  67.464  1.00  0.00    -0.276 C  
HETATM    2  C   UNL     1      -9.537  19.924  67.553  1.00  0.00    -0.370 C  
HETATM    3  N   UNL     1      -7.471  19.335  68.834  1.00  0.00    -0.359 NA 
HETATM    4  OXT UNL     1      -9.917  20.525  66.505  1.00  0.00    -0.381 OA 
HETATM    5  H2  UNL     1      -6.580  18.839  68.877  1.00  0.00     0.000 HD 
HETATM    6  O   UNL     1     -10.124  19.764  68.659  1.00  0.00    -0.438 OA 
HETATM    7  H1  UNL     1      -7.391  20.312  69.114  1.00  0.00     0.000 HD 
ENDROOT
BRANCH   1   8
HETATM    8  C   UNL     1      -8.215  17.828  67.044  1.00  0.00    -0.239 C  
BRANCH   8   9
HETATM    9  C   UNL     1      -8.354  16.842  68.208  1.00  0.00    -0.224 C  
BRANCH   9  10
HETATM   10  S   UNL     1      -9.701  15.624  67.859  1.00  0.00    -0.211 S  
HETATM   11  C   UNL     1     -10.929  16.416  68.939  1.00  0.00    -0.332 C  
BRANCH  10  12
HETATM   12  C   UNL     1     -10.273  16.388  66.283  1.00  0.00    -0.330 C  
BRANCH  12  13
HETATM   13  C   UNL     1     -10.457  15.319  65.197  1.00  0.00    -0.411 C  
HETATM   14  O   UNL     1     -10.022  14.031  65.675  1.00  0.00    -0.311 OA 
HETATM   15  C   UNL     1     -10.614  13.065  64.810  1.00  0.00    -0.362 C  
HETATM   16  C   UNL     1     -12.028  13.589  64.540  1.00  0.00    -0.410 C  
HETATM   17  H   UNL     1     -13.153  15.714  63.361  1.00  0.00     0.000 HD 
HETATM   18  O   UNL     1     -12.467  13.318  63.203  1.00  0.00    -0.760 OA 
HETATM   19  C   UNL     1     -11.915  15.101  64.785  1.00  0.00    -0.250 C  
HETATM   20  O   UNL     1     -12.248  15.849  63.617  1.00  0.00    -0.681 OA 
HETATM   21  H   UNL     1     -13.344  13.643  63.035  1.00  0.00     0.000 HD 
BRANCH  15  22
HETATM   22  N   UNL     1     -10.525  11.753  65.418  1.00  0.00    -0.262 NA 
HETATM   23  C   UNL     1     -10.916  11.414  66.686  1.00  0.00    -0.285 A  
HETATM   24  C   UNL     1      -9.703   9.808  65.973  1.00  0.00    -0.255 A  
HETATM   25  N   UNL     1     -10.428  10.246  67.058  1.00  0.00    -0.242 NA 
HETATM   26  C   UNL     1      -8.903   8.672  65.760  1.00  0.00    -0.193 A  
HETATM   27  N   UNL     1      -8.367   8.481  64.533  1.00  0.00    -0.154 NA 
HETATM   28  N   UNL     1      -8.613   7.747  66.753  1.00  0.00    -0.128 NA 
HETATM   29  H2  UNL     1      -9.501   7.425  67.136  1.00  0.00     0.000 HD 
HETATM   30  C   UNL     1      -8.580   9.419  63.588  1.00  0.00    -0.208 A  
HETATM   31  H1  UNL     1      -8.032   6.923  66.598  1.00  0.00     0.000 HD 
HETATM   32  N   UNL     1      -9.249  10.588  63.694  1.00  0.00    -0.245 NA 
HETATM   33  C   UNL     1      -9.800  10.703  64.919  1.00  0.00    -0.302 A  
ENDBRANCH  15  22
ENDBRANCH  12  13
ENDBRANCH  10  12
ENDBRANCH   9  10
ENDBRANCH   8   9
ENDBRANCH   1   8
TORSDOF 6
ENDMDL
MODEL       48
REMARK 921   NORMALIZED FREE ENERGY PREDICTED BY IDOCK:   -6.01 KCAL/MOL
REMARK 922        TOTAL FREE ENERGY PREDICTED BY IDOCK:   -9.54 KCAL/MOL
REMARK 923 INTER-LIGAND FREE ENERGY PREDICTED BY IDOCK:   -8.47 KCAL/MOL
REMARK 924 INTRA-LIGAND FREE ENERGY PREDICTED BY IDOCK:   -1.07 KCAL/MOL
REMARK 927      BINDING AFFINITY PREDICTED BY RF-SCORE:    0.00 PKD
ROOT
HETATM    1  CA  UNL     1     -11.976  15.808  69.802  1.00  0.00    -0.322 C  
HETATM    2  C   UNL     1     -12.788  15.196  71.007  1.00  0.00    -0.412 C  
HETATM    3  N   UNL     1     -10.512  15.803  70.161  1.00  0.00    -0.307 NA 
HETATM    4  OXT UNL     1     -13.949  15.676  71.160  1.00  0.00    -0.564 OA 
HETATM    5  H2  UNL     1      -9.915  16.081  69.382  1.00  0.00     0.000 HD 
HETATM    6  O   UNL     1     -12.174  14.316  71.672  1.00  0.00    -0.340 OA 
HETATM    7  H1  UNL     1     -10.387  16.392  70.984  1.00  0.00     0.000 HD 
ENDROOT
BRANCH   1   8
HETATM    8  C   UNL     1     -12.164  14.927  68.569  1.00  0.00    -0.084 C  
BRANCH   8   9
HETATM    9  C   UNL     1     -11.126  15.149  67.465  1.00  0.00    -0.319 C  
BRANCH   9  10
HETATM   10  S   UNL     1     -11.042  13.671  66.357  1.00  0.00    -0.307 S  
HETATM   11  C   UNL     1     -10.771  14.619  64.831  1.00  0.00    -0.427 C  
BRANCH  10  12
HETATM   12  C   UNL     1      -9.274  13.265  66.678  1.00  0.00    -0.215 C  
BRANCH  12  13
HETATM   13  C   UNL     1      -9.152  11.949  67.458  1.00  0.00    -0.178 C  
HETATM   14  O   UNL     1     -10.091  11.918  68.550  1.00  0.00    -0.211 OA 
HETATM   15  C   UNL     1     -10.218  10.548  68.927  1.00  0.00    -0.208 C  
HETATM   16  C   UNL     1     -10.218   9.773  67.606  1.00  0.00    -0.213 C  
HETATM   17  H   UNL     1      -8.524   9.326  65.580  1.00  0.00     0.000 HD 
HETATM   18  O   UNL     1      -9.542   8.513  67.711  1.00  0.00    -0.149 OA 
HETATM   19  C   UNL     1      -9.489  10.707  66.628  1.00  0.00    -0.167 C  
HETATM   20  O   UNL     1      -8.315  10.097  66.095  1.00  0.00    -0.125 OA 
HETATM   21  H   UNL     1      -9.542   8.032  66.892  1.00  0.00     0.000 HD 
BRANCH  15  22
HETATM   22  N   UNL     1     -11.389  10.384  69.763  1.00  0.00    -0.270 NA 
HETATM   23  C   UNL     1     -12.185  11.384  70.257  1.00  0.00    -0.349 A  
HETATM   24  C   UNL     1     -12.678   9.617  71.350  1.00  0.00    -0.374 A  
HETATM   25  N   UNL     1     -12.971  10.956  71.227  1.00  0.00    -0.403 NA 
HETATM   26  C   UNL     1     -13.130   8.623  72.235  1.00  0.00    -0.372 A  
HETATM   27  N   UNL     1     -12.699   7.353  72.054  1.00  0.00    -0.252 NA 
HETATM   28  N   UNL     1     -13.975   8.881  73.304  1.00  0.00    -1.217 NA 
HETATM   29  H2  UNL     1     -14.800   9.352  72.932  1.00  0.00     0.000 HD 
HETATM   30  C   UNL     1     -11.813   7.113  71.065  1.00  0.00    -0.333 A  
HETATM   31  H1  UNL     1     -14.303   8.159  73.946  1.00  0.00     0.000 HD 
HETATM   32  N   UNL     1     -11.240   7.990  70.213  1.00  0.00    -0.233 NA 
HETATM   33  C   UNL     1     -11.739   9.227  70.407  1.00  0.00    -0.114 A  
ENDBRANCH  15  22
ENDBRANCH  12  13
ENDBRANCH  10  12
ENDBRANCH   9  10
ENDBRANCH   8   9
ENDBRANCH   1   8
TORSDOF 6
ENDMDL
MODEL       49
REMARK 921   NORMALIZED FREE ENERGY PREDICTED BY IDOCK:   -6.00 KCAL/MOL
REMARK 922        TOTAL FREE ENERGY PREDICTED BY IDOCK:   -9.52 KCAL/MOL
REMARK 923 INTER-LIGAND FREE ENERGY PREDICTED BY IDOCK:   -8.80 KCAL/MOL
REMARK 924 INTRA-LIGAND FREE ENERGY PREDICTED BY IDOCK:   -0.72 KCAL/MOL
REMARK 927      BINDING AFFINITY PREDICTED BY RF-SCORE:    0.00 PKD
ROOT
HETATM    1  CA  UNL     1     -12.212  12.044  64.200  1.00  0.00    -0.359 C  
HETATM    2  C   UNL     1     -12.636  13.562  64.212  1.00  0.00    -0.142 C  
HETATM    3  N   UNL     1     -12.649  11.437  62.891  1.00  0.00    -0.847 NA 
HETATM    4  OXT UNL     1     -12.928  14.021  65.355  1.00  0.00    -0.726 OA 
HETATM    5  H2  UNL     1     -12.307  10.484  62.766  1.00  0.00     0.000 HD 
HETATM    6  O   UNL     1     -12.643  14.124  63.081  1.00  0.00    -0.686 OA 
HETATM    7  H1  UNL     1     -13.665  11.502  62.836  1.00  0.00     0.000 HD 
ENDROOT
BRANCH   1   8
HETATM    8  C   UNL     1     -10.691  11.945  64.283  1.00  0.00    -0.388 C  
BRANCH   8   9
HETATM    9  C   UNL     1     -10.161  10.540  64.583  1.00  0.00    -0.338 C  
BRANCH   9  10
HETATM   10  S   UNL     1     -10.120  10.245  66.408  1.00  0.00    -0.229 S  
HETATM   11  C   UNL     1      -9.200   8.681  66.305  1.00  0.00    -0.202 C  
BRANCH  10  12
HETATM   12  C   UNL     1      -8.672  11.326  66.765  1.00  0.00    -0.166 C  
BRANCH  12  13
HETATM   13  C   UNL     1      -8.966  12.252  67.952  1.00  0.00    -0.186 C  
HETATM   14  O   UNL     1      -8.436  13.571  67.710  1.00  0.00    -0.157 OA 
HETATM   15  C   UNL     1      -9.110  14.443  68.615  1.00  0.00    -0.178 C  
HETATM   16  C   UNL     1     -10.561  13.952  68.631  1.00  0.00    -0.257 C  
HETATM   17  H   UNL     1     -11.890  11.745  69.363  1.00  0.00     0.000 HD 
HETATM   18  O   UNL     1     -11.164  14.067  69.926  1.00  0.00    -0.430 OA 
HETATM   19  C   UNL     1     -10.459  12.481  68.202  1.00  0.00    -0.229 C  
HETATM   20  O   UNL     1     -10.963  11.604  69.207  1.00  0.00    -0.232 OA 
HETATM   21  H   UNL     1     -12.064  13.763  69.937  1.00  0.00     0.000 HD 
BRANCH  15  22
HETATM   22  N   UNL     1      -8.905  15.816  68.205  1.00  0.00    -0.176 NA 
HETATM   23  C   UNL     1      -8.310  16.807  68.940  1.00  0.00    -0.222 A  
HETATM   24  C   UNL     1      -9.316  17.771  67.323  1.00  0.00    -0.254 A  
HETATM   25  N   UNL     1      -8.547  18.004  68.440  1.00  0.00    -0.286 NA 
HETATM   26  C   UNL     1      -9.936  18.630  66.399  1.00  0.00    -0.388 A  
HETATM   27  N   UNL     1     -10.580  18.084  65.341  1.00  0.00    -0.580 NA 
HETATM   28  N   UNL     1      -9.944  20.011  66.529  1.00  0.00    -0.450 NA 
HETATM   29  H2  UNL     1      -8.974  20.313  66.620  1.00  0.00     0.000 HD 
HETATM   30  C   UNL     1     -10.643  16.739  65.255  1.00  0.00    -0.168 A  
HETATM   31  H1  UNL     1     -10.394  20.634  65.858  1.00  0.00     0.000 HD 
HETATM   32  N   UNL     1     -10.170  15.815  66.118  1.00  0.00    -0.296 NA 
HETATM   33  C   UNL     1      -9.500  16.411  67.124  1.00  0.00    -0.231 A  
ENDBRANCH  15  22
ENDBRANCH  12  13
ENDBRANCH  10  12
ENDBRANCH   9  10
ENDBRANCH   8   9
ENDBRANCH   1   8
TORSDOF 6
ENDMDL
MODEL       50
REMARK 921   NORMALIZED FREE ENERGY PREDICTED BY IDOCK:   -5.99 KCAL/MOL
REMARK 922        TOTAL FREE ENERGY PREDICTED BY IDOCK:   -9.51 KCAL/MOL
REMARK 923 INTER-LIGAND FREE ENERGY PREDICTED BY IDOCK:   -8.87 KCAL/MOL
REMARK 924 INTRA-LIGAND FREE ENERGY PREDICTED BY IDOCK:   -0.63 KCAL/MOL
REMARK 927      BINDING AFFINITY PREDICTED BY RF-SCORE:    0.00 PKD
ROOT
HETATM    1  CA  UNL     1     -10.400   5.833  66.845  1.00  0.00    -0.251 C  
HETATM    2  C   UNL     1      -9.064   6.152  66.072  1.00  0.00    -0.121 C  
HETATM    3  N   UNL     1     -10.963   4.540  66.313  1.00  0.00    -0.323 NA 
HETATM    4  OXT UNL     1      -8.824   7.385  65.917  1.00  0.00    -0.164 OA 
HETATM    5  H2  UNL     1     -11.768   4.212  66.845  1.00  0.00     0.000 HD 
HETATM    6  O   UNL     1      -8.410   5.140  65.694  1.00  0.00    -0.115 OA 
HETATM    7  H1  UNL     1     -11.170   4.670  65.323  1.00  0.00     0.000 HD 
ENDROOT
BRANCH   1   8
HETATM    8  C   UNL     1     -10.089   5.638  68.328  1.00  0.00    -0.217 C  
BRANCH   8   9
HETATM    9  C   UNL     1     -11.127   6.242  69.279  1.00  0.00    -0.393 C  
BRANCH   9  10
HETATM   10  S   UNL     1     -10.437   7.742  70.112  1.00  0.00    -0.235 S  
HETATM   11  C   UNL     1      -8.708   7.400  69.667  1.00  0.00    -0.137 C  
BRANCH  10  12
HETATM   12  C   UNL     1     -10.784   8.923  68.741  1.00  0.00    -0.090 C  
BRANCH  12  13
HETATM   13  C   UNL     1     -10.569  10.370  69.204  1.00  0.00    -0.228 C  
HETATM   14  O   UNL     1     -10.125  11.193  68.108  1.00  0.00    -0.169 OA 
HETATM   15  C   UNL     1     -10.370  12.543  68.499  1.00  0.00    -0.222 C  
HETATM   16  C   UNL     1     -11.722  12.507  69.218  1.00  0.00    -0.321 C  
HETATM   17  H   UNL     1     -12.748  11.407  71.435  1.00  0.00     0.000 HD 
HETATM   18  O   UNL     1     -11.779  13.421  70.321  1.00  0.00    -0.490 OA 
HETATM   19  C   UNL     1     -11.844  11.054  69.704  1.00  0.00    -0.342 C  
HETATM   20  O   UNL     1     -11.957  10.982  71.124  1.00  0.00    -0.279 OA 
HETATM   21  H   UNL     1     -12.617  13.399  70.767  1.00  0.00     0.000 HD 
BRANCH  15  22
HETATM   22  N   UNL     1     -10.289  13.404  67.337  1.00  0.00    -0.239 NA 
HETATM   23  C   UNL     1      -9.492  14.509  67.195  1.00  0.00    -0.231 A  
HETATM   24  C   UNL     1     -10.933  14.592  65.622  1.00  0.00    -0.335 A  
HETATM   25  N   UNL     1      -9.861  15.257  66.173  1.00  0.00    -0.285 NA 
HETATM   26  C   UNL     1     -11.797  14.899  64.557  1.00  0.00    -0.396 A  
HETATM   27  N   UNL     1     -12.734  13.990  64.202  1.00  0.00    -0.624 NA 
HETATM   28  N   UNL     1     -11.756  16.101  63.864  1.00  0.00    -1.452 NA 
HETATM   29  H2  UNL     1     -10.801  16.223  63.526  1.00  0.00     0.000 HD 
HETATM   30  C   UNL     1     -12.830  12.855  64.925  1.00  0.00    -0.295 A  
HETATM   31  H1  UNL     1     -12.383  16.324  63.091  1.00  0.00     0.000 HD 
HETATM   32  N   UNL     1     -12.125  12.487  66.017  1.00  0.00    -0.612 NA 
HETATM   33  C   UNL     1     -11.178  13.405  66.295  1.00  0.00    -0.305 A  
ENDBRANCH  15  22
ENDBRANCH  12  13
ENDBRANCH  10  12
ENDBRANCH   9  10
ENDBRANCH   8   9
ENDBRANCH   1   8
TORSDOF 6
ENDMDL
MODEL       51
REMARK 921   NORMALIZED FREE ENERGY PREDICTED BY IDOCK:   -5.98 KCAL/MOL
REMARK 922        TOTAL FREE ENERGY PREDICTED BY IDOCK:   -9.49 KCAL/MOL
REMARK 923 INTER-LIGAND FREE ENERGY PREDICTED BY IDOCK:   -8.76 KCAL/MOL
REMARK 924 INTRA-LIGAND FREE ENERGY PREDICTED BY IDOCK:   -0.74 KCAL/MOL
REMARK 927      BINDING AFFINITY PREDICTED BY RF-SCORE:    0.00 PKD
ROOT
HETATM    1  CA  UNL     1      -9.055  17.922  67.120  1.00  0.00    -0.251 C  
HETATM    2  C   UNL     1     -10.296  18.757  66.624  1.00  0.00    -0.420 C  
HETATM    3  N   UNL     1      -8.295  18.747  68.126  1.00  0.00    -0.296 NA 
HETATM    4  OXT UNL     1     -10.637  18.537  65.425  1.00  0.00    -0.589 OA 
HETATM    5  H2  UNL     1      -7.541  18.226  68.574  1.00  0.00     0.000 HD 
HETATM    6  O   UNL     1     -10.785  19.547  67.479  1.00  0.00    -0.465 OA 
HETATM    7  H1  UNL     1      -7.966  19.591  67.657  1.00  0.00     0.000 HD 
ENDROOT
BRANCH   1   8
HETATM    8  C   UNL     1      -9.547  16.657  67.820  1.00  0.00    -0.236 C  
BRANCH   8   9
HETATM    9  C   UNL     1     -11.000  16.283  67.511  1.00  0.00    -0.207 C  
BRANCH   9  10
HETATM   10  S   UNL     1     -11.083  14.588  66.778  1.00  0.00    -0.332 S  
HETATM   11  C   UNL     1     -10.804  15.131  65.066  1.00  0.00    -0.440 C  
BRANCH  10  12
HETATM   12  C   UNL     1      -9.340  14.114  67.142  1.00  0.00    -0.237 C  
BRANCH  12  13
HETATM   13  C   UNL     1      -9.264  12.661  67.630  1.00  0.00    -0.191 C  
HETATM   14  O   UNL     1     -10.130  12.461  68.765  1.00  0.00    -0.168 OA 
HETATM   15  C   UNL     1     -10.331  11.053  68.869  1.00  0.00    -0.205 C  
HETATM   16  C   UNL     1     -10.474  10.566  67.424  1.00  0.00    -0.244 C  
HETATM   17  H   UNL     1      -8.953  10.447  65.222  1.00  0.00     0.000 HD 
HETATM   18  O   UNL     1      -9.886   9.274  67.220  1.00  0.00    -0.161 OA 
HETATM   19  C   UNL     1      -9.744  11.637  66.598  1.00  0.00    -0.202 C  
HETATM   20  O   UNL     1      -8.656  11.082  65.862  1.00  0.00    -0.176 OA 
HETATM   21  H   UNL     1      -9.975   8.972  66.324  1.00  0.00     0.000 HD 
BRANCH  15  22
HETATM   22  N   UNL     1     -11.453  10.790  69.745  1.00  0.00    -0.284 NA 
HETATM   23  C   UNL     1     -12.278  11.722  70.316  1.00  0.00    -0.299 A  
HETATM   24  C   UNL     1     -12.628   9.886  71.349  1.00  0.00    -0.398 A  
HETATM   25  N   UNL     1     -12.997  11.211  71.298  1.00  0.00    -0.390 NA 
HETATM   26  C   UNL     1     -12.987   8.832  72.206  1.00  0.00    -0.408 A  
HETATM   27  N   UNL     1     -12.498   7.597  71.950  1.00  0.00    -0.311 NA 
HETATM   28  N   UNL     1     -13.797   8.998  73.320  1.00  0.00    -1.163 NA 
HETATM   29  H2  UNL     1     -14.661   9.438  73.004  1.00  0.00     0.000 HD 
HETATM   30  C   UNL     1     -11.645   7.447  70.916  1.00  0.00    -0.291 A  
HETATM   31  H1  UNL     1     -14.057   8.232  73.943  1.00  0.00     0.000 HD 
HETATM   32  N   UNL     1     -11.158   8.391  70.081  1.00  0.00    -0.223 NA 
HETATM   33  C   UNL     1     -11.713   9.589  70.351  1.00  0.00    -0.170 A  
ENDBRANCH  15  22
ENDBRANCH  12  13
ENDBRANCH  10  12
ENDBRANCH   9  10
ENDBRANCH   8   9
ENDBRANCH   1   8
TORSDOF 6
ENDMDL
MODEL       52
REMARK 921   NORMALIZED FREE ENERGY PREDICTED BY IDOCK:   -5.96 KCAL/MOL
REMARK 922        TOTAL FREE ENERGY PREDICTED BY IDOCK:   -9.47 KCAL/MOL
REMARK 923 INTER-LIGAND FREE ENERGY PREDICTED BY IDOCK:   -8.16 KCAL/MOL
REMARK 924 INTRA-LIGAND FREE ENERGY PREDICTED BY IDOCK:   -1.30 KCAL/MOL
REMARK 927      BINDING AFFINITY PREDICTED BY RF-SCORE:    0.00 PKD
ROOT
HETATM    1  CA  UNL     1     -10.684  14.878  68.093  1.00  0.00    -0.251 C  
HETATM    2  C   UNL     1     -10.927  16.251  68.829  1.00  0.00    -0.343 C  
HETATM    3  N   UNL     1     -10.129  13.893  69.090  1.00  0.00    -0.433 NA 
HETATM    4  OXT UNL     1     -10.771  17.275  68.102  1.00  0.00    -0.377 OA 
HETATM    5  H2  UNL     1     -10.053  12.950  68.711  1.00  0.00     0.000 HD 
HETATM    6  O   UNL     1     -11.233  16.156  70.050  1.00  0.00    -0.334 OA 
HETATM    7  H1  UNL     1      -9.238  14.256  69.428  1.00  0.00     0.000 HD 
ENDROOT
BRANCH   1   8
HETATM    8  C   UNL     1     -12.018  14.336  67.586  1.00  0.00    -0.400 C  
BRANCH   8   9
HETATM    9  C   UNL     1     -12.151  14.298  66.060  1.00  0.00    -0.408 C  
BRANCH   9  10
HETATM   10  S   UNL     1     -11.932  12.570  65.440  1.00  0.00    -0.411 S  
HETATM   11  C   UNL     1     -12.037  13.009  63.679  1.00  0.00    -0.531 C  
BRANCH  10  12
HETATM   12  C   UNL     1     -10.092  12.539  65.545  1.00  0.00    -0.265 C  
BRANCH  12  13
HETATM   13  C   UNL     1      -9.607  11.218  66.157  1.00  0.00    -0.214 C  
HETATM   14  O   UNL     1     -10.063  11.091  67.518  1.00  0.00    -0.175 OA 
HETATM   15  C   UNL     1      -9.955   9.708  67.847  1.00  0.00    -0.166 C  
HETATM   16  C   UNL     1     -10.404   8.965  66.585  1.00  0.00    -0.223 C  
HETATM   17  H   UNL     1      -9.570   8.694  64.054  1.00  0.00     0.000 HD 
HETATM   18  O   UNL     1      -9.662   7.757  66.368  1.00  0.00    -0.329 OA 
HETATM   19  C   UNL     1     -10.154   9.973  65.453  1.00  0.00    -0.247 C  
HETATM   20  O   UNL     1      -9.231   9.466  64.491  1.00  0.00    -0.216 OA 
HETATM   21  H   UNL     1      -9.940   7.296  65.585  1.00  0.00     0.000 HD 
BRANCH  15  22
HETATM   22  N   UNL     1     -10.714   9.437  69.051  1.00  0.00    -0.214 NA 
HETATM   23  C   UNL     1     -11.350  10.360  69.839  1.00  0.00    -0.302 A  
HETATM   24  C   UNL     1     -11.253   8.554  70.973  1.00  0.00    -0.268 A  
HETATM   25  N   UNL     1     -11.681   9.862  71.014  1.00  0.00    -0.351 NA 
HETATM   26  C   UNL     1     -11.260   7.522  71.927  1.00  0.00    -0.248 A  
HETATM   27  N   UNL     1     -10.824   6.296  71.555  1.00  0.00    -0.245 NA 
HETATM   28  N   UNL     1     -11.667   7.701  73.241  1.00  0.00    -0.601 NA 
HETATM   29  H2  UNL     1     -12.607   8.096  73.217  1.00  0.00     0.000 HD 
HETATM   30  C   UNL     1     -10.351   6.138  70.301  1.00  0.00    -0.214 A  
HETATM   31  H1  UNL     1     -11.671   6.951  73.933  1.00  0.00     0.000 HD 
HETATM   32  N   UNL     1     -10.211   7.066  69.329  1.00  0.00    -0.180 NA 
HETATM   33  C   UNL     1     -10.703   8.252  69.737  1.00  0.00    -0.221 A  
ENDBRANCH  15  22
ENDBRANCH  12  13
ENDBRANCH  10  12
ENDBRANCH   9  10
ENDBRANCH   8   9
ENDBRANCH   1   8
TORSDOF 6
ENDMDL
MODEL       53
REMARK 921   NORMALIZED FREE ENERGY PREDICTED BY IDOCK:   -5.95 KCAL/MOL
REMARK 922        TOTAL FREE ENERGY PREDICTED BY IDOCK:   -9.46 KCAL/MOL
REMARK 923 INTER-LIGAND FREE ENERGY PREDICTED BY IDOCK:   -8.87 KCAL/MOL
REMARK 924 INTRA-LIGAND FREE ENERGY PREDICTED BY IDOCK:   -0.58 KCAL/MOL
REMARK 927      BINDING AFFINITY PREDICTED BY RF-SCORE:    0.00 PKD
ROOT
HETATM    1  CA  UNL     1      -9.981  20.195  66.785  1.00  0.00    -0.469 C  
HETATM    2  C   UNL     1      -8.432  19.948  66.630  1.00  0.00    -0.335 C  
HETATM    3  N   UNL     1     -10.686  19.547  65.622  1.00  0.00    -0.435 NA 
HETATM    4  OXT UNL     1      -7.699  20.875  67.085  1.00  0.00    -0.316 OA 
HETATM    5  H2  UNL     1     -11.702  19.569  65.716  1.00  0.00     0.000 HD 
HETATM    6  O   UNL     1      -8.117  18.865  66.062  1.00  0.00    -0.431 OA 
HETATM    7  H1  UNL     1     -10.359  19.993  64.766  1.00  0.00     0.000 HD 
ENDROOT
BRANCH   1   8
HETATM    8  C   UNL     1     -10.471  19.528  68.068  1.00  0.00    -0.528 C  
BRANCH   8   9
HETATM    9  C   UNL     1      -9.467  18.562  68.706  1.00  0.00    -0.305 C  
BRANCH   9  10
HETATM   10  S   UNL     1      -9.898  16.815  68.277  1.00  0.00    -0.269 S  
HETATM   11  C   UNL     1      -8.489  16.074  69.153  1.00  0.00    -0.247 C  
BRANCH  10  12
HETATM   12  C   UNL     1     -11.140  16.569  69.616  1.00  0.00    -0.235 C  
BRANCH  12  13
HETATM   13  C   UNL     1     -11.922  15.267  69.398  1.00  0.00    -0.315 C  
HETATM   14  O   UNL     1     -11.591  14.685  68.121  1.00  0.00    -0.305 OA 
HETATM   15  C   UNL     1     -11.998  13.320  68.189  1.00  0.00    -0.304 C  
HETATM   16  C   UNL     1     -11.626  12.866  69.604  1.00  0.00    -0.248 C  
HETATM   17  H   UNL     1     -12.328  13.468  72.118  1.00  0.00     0.000 HD 
HETATM   18  O   UNL     1     -12.580  11.947  70.153  1.00  0.00    -0.105 OA 
HETATM   19  C   UNL     1     -11.592  14.170  70.414  1.00  0.00    -0.171 C  
HETATM   20  O   UNL     1     -12.532  14.149  71.487  1.00  0.00    -0.336 OA 
HETATM   21  H   UNL     1     -12.350  11.666  71.030  1.00  0.00     0.000 HD 
BRANCH  15  22
HETATM   22  N   UNL     1     -11.391  12.581  67.102  1.00  0.00    -0.304 NA 
HETATM   23  C   UNL     1     -10.237  11.846  67.159  1.00  0.00    -0.208 A  
HETATM   24  C   UNL     1     -10.683  12.116  65.089  1.00  0.00    -0.292 A  
HETATM   25  N   UNL     1      -9.775  11.555  65.958  1.00  0.00    -0.219 NA 
HETATM   26  C   UNL     1     -10.726  12.206  63.687  1.00  0.00    -0.467 A  
HETATM   27  N   UNL     1     -11.813  12.769  63.109  1.00  0.00    -0.409 NA 
HETATM   28  N   UNL     1      -9.699  11.770  62.863  1.00  0.00    -0.554 NA 
HETATM   29  H2  UNL     1      -9.515  10.794  63.098  1.00  0.00     0.000 HD 
HETATM   30  C   UNL     1     -12.777  13.268  63.910  1.00  0.00     0.012 A  
HETATM   31  H1  UNL     1      -9.731  11.835  61.845  1.00  0.00     0.000 HD 
HETATM   32  N   UNL     1     -12.810  13.322  65.260  1.00  0.00    -0.658 NA 
HETATM   33  C   UNL     1     -11.730  12.706  65.780  1.00  0.00    -0.419 A  
ENDBRANCH  15  22
ENDBRANCH  12  13
ENDBRANCH  10  12
ENDBRANCH   9  10
ENDBRANCH   8   9
ENDBRANCH   1   8
TORSDOF 6
ENDMDL
MODEL       54
REMARK 921   NORMALIZED FREE ENERGY PREDICTED BY IDOCK:   -5.95 KCAL/MOL
REMARK 922        TOTAL FREE ENERGY PREDICTED BY IDOCK:   -9.45 KCAL/MOL
REMARK 923 INTER-LIGAND FREE ENERGY PREDICTED BY IDOCK:   -9.27 KCAL/MOL
REMARK 924 INTRA-LIGAND FREE ENERGY PREDICTED BY IDOCK:   -0.18 KCAL/MOL
REMARK 927      BINDING AFFINITY PREDICTED BY RF-SCORE:    0.00 PKD
ROOT
HETATM    1  CA  UNL     1     -11.683  13.521  64.508  1.00  0.00    -0.397 C  
HETATM    2  C   UNL     1     -11.875  12.127  63.797  1.00  0.00    -0.500 C  
HETATM    3  N   UNL     1     -12.455  14.560  63.736  1.00  0.00    -1.065 NA 
HETATM    4  OXT UNL     1     -10.882  11.346  63.887  1.00  0.00    -0.364 OA 
HETATM    5  H2  UNL     1     -12.469  15.467  64.203  1.00  0.00     0.000 HD 
HETATM    6  O   UNL     1     -12.985  11.970  63.217  1.00  0.00    -0.736 OA 
HETATM    7  H1  UNL     1     -12.066  14.607  62.794  1.00  0.00     0.000 HD 
ENDROOT
BRANCH   1   8
HETATM    8  C   UNL     1     -12.264  13.450  65.918  1.00  0.00    -0.502 C  
BRANCH   8   9
HETATM    9  C   UNL     1     -11.226  13.232  67.023  1.00  0.00    -0.292 C  
BRANCH   9  10
HETATM   10  S   UNL     1     -11.290  11.486  67.627  1.00  0.00    -0.283 S  
HETATM   11  C   UNL     1      -9.487  11.270  67.707  1.00  0.00    -0.170 C  
BRANCH  10  12
HETATM   12  C   UNL     1     -11.540  11.886  69.408  1.00  0.00    -0.325 C  
BRANCH  12  13
HETATM   13  C   UNL     1     -12.334  10.775  70.107  1.00  0.00    -0.325 C  
HETATM   14  O   UNL     1     -11.718   9.491  69.880  1.00  0.00    -0.078 OA 
HETATM   15  C   UNL     1     -12.235   8.620  70.884  1.00  0.00    -0.100 C  
HETATM   16  C   UNL     1     -12.295   9.471  72.155  1.00  0.00    -0.260 C  
HETATM   17  H   UNL     1     -13.599  11.649  73.011  1.00  0.00     0.000 HD 
HETATM   18  O   UNL     1     -13.431   9.157  72.971  1.00  0.00    -0.845 OA 
HETATM   19  C   UNL     1     -12.378  10.913  71.631  1.00  0.00    -0.142 C  
HETATM   20  O   UNL     1     -13.571  11.563  72.065  1.00  0.00    -0.302 OA 
HETATM   21  H   UNL     1     -13.469   9.685  73.760  1.00  0.00     0.000 HD 
BRANCH  15  22
HETATM   22  N   UNL     1     -11.417   7.426  70.953  1.00  0.00    -0.280 NA 
HETATM   23  C   UNL     1     -11.299   6.461  69.988  1.00  0.00    -0.430 A  
HETATM   24  C   UNL     1     -10.475   5.637  71.777  1.00  0.00    -0.228 A  
HETATM   25  N   UNL     1     -10.742   5.360  70.456  1.00  0.00    -0.240 NA 
HETATM   26  C   UNL     1      -9.944   4.861  72.822  1.00  0.00    -0.161 A  
HETATM   27  N   UNL     1      -9.731   5.452  74.021  1.00  0.00    -0.152 NA 
HETATM   28  N   UNL     1      -9.651   3.511  72.696  1.00  0.00    -0.127 NA 
HETATM   29  H2  UNL     1      -9.026   3.410  71.896  1.00  0.00     0.000 HD 
HETATM   30  C   UNL     1     -10.090   6.744  74.171  1.00  0.00    -0.350 A  
HETATM   31  H1  UNL     1      -9.266   2.948  73.455  1.00  0.00     0.000 HD 
HETATM   32  N   UNL     1     -10.687   7.563  73.277  1.00  0.00    -0.393 NA 
HETATM   33  C   UNL     1     -10.831   6.939  72.091  1.00  0.00    -0.225 A  
ENDBRANCH  15  22
ENDBRANCH  12  13
ENDBRANCH  10  12
ENDBRANCH   9  10
ENDBRANCH   8   9
ENDBRANCH   1   8
TORSDOF 6
ENDMDL
MODEL       55
REMARK 921   NORMALIZED FREE ENERGY PREDICTED BY IDOCK:   -5.95 KCAL/MOL
REMARK 922        TOTAL FREE ENERGY PREDICTED BY IDOCK:   -9.45 KCAL/MOL
REMARK 923 INTER-LIGAND FREE ENERGY PREDICTED BY IDOCK:   -8.80 KCAL/MOL
REMARK 924 INTRA-LIGAND FREE ENERGY PREDICTED BY IDOCK:   -0.65 KCAL/MOL
REMARK 927      BINDING AFFINITY PREDICTED BY RF-SCORE:    0.00 PKD
ROOT
HETATM    1  CA  UNL     1      -8.535  10.706  63.870  1.00  0.00    -0.059 C  
HETATM    2  C   UNL     1      -8.362   9.145  63.734  1.00  0.00    -0.182 C  
HETATM    3  N   UNL     1      -8.167  11.343  62.554  1.00  0.00    -0.586 NA 
HETATM    4  OXT UNL     1      -8.013   8.557  64.799  1.00  0.00    -0.126 OA 
HETATM    5  H2  UNL     1      -8.363  12.344  62.533  1.00  0.00     0.000 HD 
HETATM    6  O   UNL     1      -8.582   8.682  62.581  1.00  0.00    -0.192 OA 
HETATM    7  H1  UNL     1      -7.189  11.129  62.362  1.00  0.00     0.000 HD 
ENDROOT
BRANCH   1   8
HETATM    8  C   UNL     1      -9.999  11.028  64.158  1.00  0.00    -0.385 C  
BRANCH   8   9
HETATM    9  C   UNL     1     -10.216  12.089  65.242  1.00  0.00    -0.271 C  
BRANCH   9  10
HETATM   10  S   UNL     1     -11.178  13.514  64.560  1.00  0.00    -0.379 S  
HETATM   11  C   UNL     1     -12.447  12.491  63.757  1.00  0.00    -0.455 C  
BRANCH  10  12
HETATM   12  C   UNL     1     -12.132  13.878  66.094  1.00  0.00    -0.448 C  
BRANCH  12  13
HETATM   13  C   UNL     1     -11.193  14.319  67.225  1.00  0.00    -0.318 C  
HETATM   14  O   UNL     1     -10.602  15.599  66.923  1.00  0.00    -0.303 OA 
HETATM   15  C   UNL     1     -10.120  16.116  68.162  1.00  0.00    -0.237 C  
HETATM   16  C   UNL     1     -11.193  15.745  69.190  1.00  0.00    -0.322 C  
HETATM   17  H   UNL     1     -12.237  13.510  70.234  1.00  0.00     0.000 HD 
HETATM   18  O   UNL     1     -10.636  15.413  70.468  1.00  0.00    -0.412 OA 
HETATM   19  C   UNL     1     -11.899  14.531  68.567  1.00  0.00    -0.320 C  
HETATM   20  O   UNL     1     -11.799  13.379  69.401  1.00  0.00    -0.300 OA 
HETATM   21  H   UNL     1     -11.301  15.182  71.106  1.00  0.00     0.000 HD 
BRANCH  15  22
HETATM   22  N   UNL     1      -9.837  17.529  68.017  1.00  0.00    -0.285 NA 
HETATM   23  C   UNL     1     -10.620  18.457  67.383  1.00  0.00    -0.413 A  
HETATM   24  C   UNL     1      -8.706  19.362  67.657  1.00  0.00    -0.309 A  
HETATM   25  N   UNL     1      -9.964  19.575  67.141  1.00  0.00    -0.349 NA 
HETATM   26  C   UNL     1      -7.537  20.142  67.664  1.00  0.00    -0.304 A  
HETATM   27  N   UNL     1      -6.454  19.676  68.330  1.00  0.00    -0.247 NA 
HETATM   28  N   UNL     1      -7.425  21.355  67.001  1.00  0.00    -0.813 NA 
HETATM   29  H2  UNL     1      -8.187  21.949  67.326  1.00  0.00     0.000 HD 
HETATM   30  C   UNL     1      -6.533  18.460  68.909  1.00  0.00    -0.239 A  
HETATM   31  H1  UNL     1      -6.576  21.921  67.007  1.00  0.00     0.000 HD 
HETATM   32  N   UNL     1      -7.561  17.583  68.895  1.00  0.00    -0.255 NA 
HETATM   33  C   UNL     1      -8.624  18.117  68.261  1.00  0.00    -0.288 A  
ENDBRANCH  15  22
ENDBRANCH  12  13
ENDBRANCH  10  12
ENDBRANCH   9  10
ENDBRANCH   8   9
ENDBRANCH   1   8
TORSDOF 6
ENDMDL
MODEL       56
REMARK 921   NORMALIZED FREE ENERGY PREDICTED BY IDOCK:   -5.92 KCAL/MOL
REMARK 922        TOTAL FREE ENERGY PREDICTED BY IDOCK:   -9.41 KCAL/MOL
REMARK 923 INTER-LIGAND FREE ENERGY PREDICTED BY IDOCK:   -8.48 KCAL/MOL
REMARK 924 INTRA-LIGAND FREE ENERGY PREDICTED BY IDOCK:   -0.93 KCAL/MOL
REMARK 927      BINDING AFFINITY PREDICTED BY RF-SCORE:    0.00 PKD
ROOT
HETATM    1  CA  UNL     1     -11.768  14.134  65.074  1.00  0.00    -0.376 C  
HETATM    2  C   UNL     1     -11.442  15.589  64.560  1.00  0.00    -0.308 C  
HETATM    3  N   UNL     1     -13.248  14.044  65.343  1.00  0.00    -0.691 NA 
HETATM    4  OXT UNL     1     -10.296  16.020  64.883  1.00  0.00    -0.543 OA 
HETATM    5  H2  UNL     1     -13.549  13.097  65.571  1.00  0.00     0.000 HD 
HETATM    6  O   UNL     1     -12.367  16.144  63.903  1.00  0.00    -0.895 OA 
HETATM    7  H1  UNL     1     -13.477  14.717  66.074  1.00  0.00     0.000 HD 
ENDROOT
BRANCH   1   8
HETATM    8  C   UNL     1     -11.424  13.126  63.980  1.00  0.00    -0.455 C  
BRANCH   8   9
HETATM    9  C   UNL     1     -10.007  12.549  64.070  1.00  0.00    -0.198 C  
BRANCH   9  10
HETATM   10  S   UNL     1     -10.037  10.726  63.761  1.00  0.00    -0.277 S  
HETATM   11  C   UNL     1      -8.879  10.774  62.361  1.00  0.00    -0.300 C  
BRANCH  10  12
HETATM   12  C   UNL     1      -8.800  10.273  65.050  1.00  0.00    -0.187 C  
BRANCH  12  13
HETATM   13  C   UNL     1      -9.008  11.110  66.319  1.00  0.00    -0.193 C  
HETATM   14  O   UNL     1      -9.881  10.426  67.240  1.00  0.00    -0.169 OA 
HETATM   15  C   UNL     1      -9.671  11.035  68.513  1.00  0.00    -0.189 C  
HETATM   16  C   UNL     1      -8.162  11.284  68.588  1.00  0.00    -0.146 C  
HETATM   17  H   UNL     1      -6.339  12.760  67.295  1.00  0.00     0.000 HD 
HETATM   18  O   UNL     1      -7.842  12.502  69.273  1.00  0.00    -0.309 OA 
HETATM   19  C   UNL     1      -7.724  11.351  67.118  1.00  0.00    -0.152 C  
HETATM   20  O   UNL     1      -7.136  12.611  66.800  1.00  0.00     0.120 OA 
HETATM   21  H   UNL     1      -6.907  12.658  69.320  1.00  0.00     0.000 HD 
BRANCH  15  22
HETATM   22  N   UNL     1     -10.232  10.191  69.548  1.00  0.00    -0.223 NA 
HETATM   23  C   UNL     1     -10.003   8.851  69.721  1.00  0.00    -0.191 A  
HETATM   24  C   UNL     1     -11.701   9.339  70.920  1.00  0.00    -0.296 A  
HETATM   25  N   UNL     1     -10.881   8.302  70.538  1.00  0.00    -0.230 NA 
HETATM   26  C   UNL     1     -12.852   9.393  71.725  1.00  0.00    -0.399 A  
HETATM   27  N   UNL     1     -13.407  10.602  71.977  1.00  0.00    -0.400 NA 
HETATM   28  N   UNL     1     -13.466   8.268  72.255  1.00  0.00    -0.535 NA 
HETATM   29  H2  UNL     1     -12.756   7.752  72.776  1.00  0.00     0.000 HD 
HETATM   30  C   UNL     1     -12.861  11.691  71.397  1.00  0.00    -0.356 A  
HETATM   31  H1  UNL     1     -14.301   8.308  72.839  1.00  0.00     0.000 HD 
HETATM   32  N   UNL     1     -11.819  11.757  70.540  1.00  0.00    -0.285 NA 
HETATM   33  C   UNL     1     -11.278  10.535  70.363  1.00  0.00    -0.298 A  
ENDBRANCH  15  22
ENDBRANCH  12  13
ENDBRANCH  10  12
ENDBRANCH   9  10
ENDBRANCH   8   9
ENDBRANCH   1   8
TORSDOF 6
ENDMDL
MODEL       57
REMARK 921   NORMALIZED FREE ENERGY PREDICTED BY IDOCK:   -5.91 KCAL/MOL
REMARK 922        TOTAL FREE ENERGY PREDICTED BY IDOCK:   -9.40 KCAL/MOL
REMARK 923 INTER-LIGAND FREE ENERGY PREDICTED BY IDOCK:   -9.02 KCAL/MOL
REMARK 924 INTRA-LIGAND FREE ENERGY PREDICTED BY IDOCK:   -0.38 KCAL/MOL
REMARK 927      BINDING AFFINITY PREDICTED BY RF-SCORE:    0.00 PKD
ROOT
HETATM    1  CA  UNL     1      -9.126   7.885  67.056  1.00  0.00    -0.137 C  
HETATM    2  C   UNL     1     -10.462   7.394  67.734  1.00  0.00    -0.232 C  
HETATM    3  N   UNL     1      -8.790   6.945  65.928  1.00  0.00    -0.264 NA 
HETATM    4  OXT UNL     1     -10.542   7.627  68.976  1.00  0.00    -0.216 OA 
HETATM    5  H2  UNL     1      -7.998   7.265  65.371  1.00  0.00     0.000 HD 
HETATM    6  O   UNL     1     -11.276   6.821  66.958  1.00  0.00    -0.393 OA 
HETATM    7  H1  UNL     1      -8.644   6.016  66.324  1.00  0.00     0.000 HD 
ENDROOT
BRANCH   1   8
HETATM    8  C   UNL     1      -9.344   9.276  66.464  1.00  0.00    -0.231 C  
BRANCH   8   9
HETATM    9  C   UNL     1      -9.559  10.382  67.502  1.00  0.00    -0.156 C  
BRANCH   9  10
HETATM   10  S   UNL     1     -10.899  11.529  66.948  1.00  0.00    -0.296 S  
HETATM   11  C   UNL     1     -11.700  11.650  68.574  1.00  0.00    -0.315 C  
BRANCH  10  12
HETATM   12  C   UNL     1      -9.914  13.082  67.075  1.00  0.00    -0.242 C  
BRANCH  12  13
HETATM   13  C   UNL     1     -10.695  14.268  66.493  1.00  0.00    -0.297 C  
HETATM   14  O   UNL     1     -10.297  15.498  67.130  1.00  0.00    -0.261 OA 
HETATM   15  C   UNL     1     -10.720  16.549  66.264  1.00  0.00    -0.146 C  
HETATM   16  C   UNL     1     -10.433  16.036  64.849  1.00  0.00    -0.092 C  
HETATM   17  H   UNL     1     -11.272  14.045  63.266  1.00  0.00     0.000 HD 
HETATM   18  O   UNL     1     -11.425  16.455  63.903  1.00  0.00    -1.569 OA 
HETATM   19  C   UNL     1     -10.433  14.507  65.003  1.00  0.00    -0.429 C  
HETATM   20  O   UNL     1     -11.434  13.897  64.190  1.00  0.00    -0.342 OA 
HETATM   21  H   UNL     1     -11.248  16.137  63.026  1.00  0.00     0.000 HD 
BRANCH  15  22
HETATM   22  N   UNL     1     -10.058  17.781  66.642  1.00  0.00    -0.334 NA 
HETATM   23  C   UNL     1     -10.657  18.991  66.874  1.00  0.00    -0.436 A  
HETATM   24  C   UNL     1      -8.567  19.376  66.673  1.00  0.00    -0.329 A  
HETATM   25  N   UNL     1      -9.785  19.980  66.889  1.00  0.00    -0.396 NA 
HETATM   26  C   UNL     1      -7.267  19.887  66.521  1.00  0.00    -0.254 A  
HETATM   27  N   UNL     1      -6.241  19.014  66.388  1.00  0.00    -0.177 NA 
HETATM   28  N   UNL     1      -6.981  21.243  66.474  1.00  0.00    -0.684 NA 
HETATM   29  H2  UNL     1      -7.376  21.666  67.314  1.00  0.00     0.000 HD 
HETATM   30  C   UNL     1      -6.524  17.695  66.352  1.00  0.00    -0.237 A  
HETATM   31  H1  UNL     1      -6.036  21.614  66.363  1.00  0.00     0.000 HD 
HETATM   32  N   UNL     1      -7.731  17.089  66.397  1.00  0.00    -0.290 NA 
HETATM   33  C   UNL     1      -8.708  18.000  66.577  1.00  0.00    -0.260 A  
ENDBRANCH  15  22
ENDBRANCH  12  13
ENDBRANCH  10  12
ENDBRANCH   9  10
ENDBRANCH   8   9
ENDBRANCH   1   8
TORSDOF 6
ENDMDL
MODEL       58
REMARK 921   NORMALIZED FREE ENERGY PREDICTED BY IDOCK:   -5.91 KCAL/MOL
REMARK 922        TOTAL FREE ENERGY PREDICTED BY IDOCK:   -9.40 KCAL/MOL
REMARK 923 INTER-LIGAND FREE ENERGY PREDICTED BY IDOCK:   -8.06 KCAL/MOL
REMARK 924 INTRA-LIGAND FREE ENERGY PREDICTED BY IDOCK:   -1.33 KCAL/MOL
REMARK 927      BINDING AFFINITY PREDICTED BY RF-SCORE:    0.00 PKD
ROOT
HETATM    1  CA  UNL     1      -9.479   5.796  68.312  1.00  0.00    -0.118 C  
HETATM    2  C   UNL     1     -10.544   5.793  67.150  1.00  0.00    -0.291 C  
HETATM    3  N   UNL     1      -9.210   7.225  68.709  1.00  0.00    -0.138 NA 
HETATM    4  OXT UNL     1     -10.417   4.848  66.317  1.00  0.00    -0.287 OA 
HETATM    5  H2  UNL     1      -8.614   7.299  69.533  1.00  0.00     0.000 HD 
HETATM    6  O   UNL     1     -11.380   6.739  67.188  1.00  0.00    -0.330 OA 
HETATM    7  H1  UNL     1      -8.825   7.711  67.899  1.00  0.00     0.000 HD 
ENDROOT
BRANCH   1   8
HETATM    8  C   UNL     1     -10.055   5.069  69.524  1.00  0.00    -0.301 C  
BRANCH   8   9
HETATM    9  C   UNL     1      -9.519   5.559  70.873  1.00  0.00    -0.166 C  
BRANCH   9  10
HETATM   10  S   UNL     1     -10.919   5.913  72.028  1.00  0.00    -0.272 S  
HETATM   11  C   UNL     1     -10.096   7.297  72.871  1.00  0.00    -0.227 C  
BRANCH  10  12
HETATM   12  C   UNL     1     -11.909   6.932  70.854  1.00  0.00    -0.376 C  
BRANCH  12  13
HETATM   13  C   UNL     1     -11.858   8.415  71.247  1.00  0.00    -0.289 C  
HETATM   14  O   UNL     1     -11.499   9.227  70.112  1.00  0.00    -0.216 OA 
HETATM   15  C   UNL     1     -11.895  10.559  70.435  1.00  0.00    -0.340 C  
HETATM   16  C   UNL     1     -13.239  10.409  71.153  1.00  0.00    -0.310 C  
HETATM   17  H   UNL     1     -14.156   9.312  73.418  1.00  0.00     0.000 HD 
HETATM   18  O   UNL     1     -13.406  11.364  72.209  1.00  0.00    -0.629 OA 
HETATM   19  C   UNL     1     -13.205   8.978  71.709  1.00  0.00    -0.389 C  
HETATM   20  O   UNL     1     -13.320   8.963  73.131  1.00  0.00    -0.229 OA 
HETATM   21  H   UNL     1     -14.240  11.272  72.654  1.00  0.00     0.000 HD 
BRANCH  15  22
HETATM   22  N   UNL     1     -11.899  11.366  69.233  1.00  0.00    -0.325 NA 
HETATM   23  C   UNL     1     -11.603  10.942  67.965  1.00  0.00    -0.215 A  
HETATM   24  C   UNL     1     -11.567  13.076  67.916  1.00  0.00    -0.342 A  
HETATM   25  N   UNL     1     -11.386  11.951  67.143  1.00  0.00    -0.329 NA 
HETATM   26  C   UNL     1     -11.425  14.448  67.645  1.00  0.00    -0.346 A  
HETATM   27  N   UNL     1     -11.753  15.334  68.614  1.00  0.00    -0.354 NA 
HETATM   28  N   UNL     1     -10.940  14.941  66.443  1.00  0.00    -0.332 NA 
HETATM   29  H2  UNL     1     -11.513  14.544  65.699  1.00  0.00     0.000 HD 
HETATM   30  C   UNL     1     -12.148  14.856  69.812  1.00  0.00    -0.314 A  
HETATM   31  H1  UNL     1     -10.837  15.937  66.247  1.00  0.00     0.000 HD 
HETATM   32  N   UNL     1     -12.238  13.572  70.220  1.00  0.00    -0.350 NA 
HETATM   33  C   UNL     1     -11.947  12.735  69.205  1.00  0.00    -0.246 A  
ENDBRANCH  15  22
ENDBRANCH  12  13
ENDBRANCH  10  12
ENDBRANCH   9  10
ENDBRANCH   8   9
ENDBRANCH   1   8
TORSDOF 6
ENDMDL
MODEL       59
REMARK 921   NORMALIZED FREE ENERGY PREDICTED BY IDOCK:   -5.89 KCAL/MOL
REMARK 922        TOTAL FREE ENERGY PREDICTED BY IDOCK:   -9.38 KCAL/MOL
REMARK 923 INTER-LIGAND FREE ENERGY PREDICTED BY IDOCK:   -8.50 KCAL/MOL
REMARK 924 INTRA-LIGAND FREE ENERGY PREDICTED BY IDOCK:   -0.88 KCAL/MOL
REMARK 927      BINDING AFFINITY PREDICTED BY RF-SCORE:    0.00 PKD
ROOT
HETATM    1  CA  UNL     1     -11.954  12.131  64.320  1.00  0.00    -0.380 C  
HETATM    2  C   UNL     1     -12.588  13.574  64.348  1.00  0.00    -0.174 C  
HETATM    3  N   UNL     1     -12.195  11.531  62.958  1.00  0.00    -0.941 NA 
HETATM    4  OXT UNL     1     -13.033  13.935  65.478  1.00  0.00    -0.673 OA 
HETATM    5  H2  UNL     1     -11.713  10.641  62.829  1.00  0.00     0.000 HD 
HETATM    6  O   UNL     1     -12.585  14.182  63.242  1.00  0.00    -0.766 OA 
HETATM    7  H1  UNL     1     -13.202  11.458  62.819  1.00  0.00     0.000 HD 
ENDROOT
BRANCH   1   8
HETATM    8  C   UNL     1     -10.446  12.240  64.529  1.00  0.00    -0.339 C  
BRANCH   8   9
HETATM    9  C   UNL     1      -9.944  11.654  65.852  1.00  0.00    -0.231 C  
BRANCH   9  10
HETATM   10  S   UNL     1     -10.169  12.877  67.221  1.00  0.00    -0.235 S  
HETATM   11  C   UNL     1     -11.375  11.877  68.143  1.00  0.00    -0.288 C  
BRANCH  10  12
HETATM   12  C   UNL     1      -8.686  12.380  68.195  1.00  0.00    -0.190 C  
BRANCH  12  13
HETATM   13  C   UNL     1      -7.529  13.360  67.960  1.00  0.00    -0.139 C  
HETATM   14  O   UNL     1      -7.934  14.418  67.069  1.00  0.00    -0.162 OA 
HETATM   15  C   UNL     1      -6.993  15.474  67.252  1.00  0.00    -0.171 C  
HETATM   16  C   UNL     1      -6.721  15.505  68.759  1.00  0.00    -0.114 C  
HETATM   17  H   UNL     1      -5.652  13.886  70.605  1.00  0.00     0.000 HD 
HETATM   18  O   UNL     1      -5.358  15.828  69.063  1.00  0.00    -0.102 OA 
HETATM   19  C   UNL     1      -7.066  14.083  69.227  1.00  0.00    -0.054 C  
HETATM   20  O   UNL     1      -5.940  13.437  69.819  1.00  0.00    -0.110 OA 
HETATM   21  H   UNL     1      -5.189  15.848  69.997  1.00  0.00     0.000 HD 
BRANCH  15  22
HETATM   22  N   UNL     1      -7.517  16.693  66.672  1.00  0.00    -0.255 NA 
HETATM   23  C   UNL     1      -6.817  17.615  65.941  1.00  0.00    -0.218 A  
HETATM   24  C   UNL     1      -8.657  18.547  66.491  1.00  0.00    -0.276 A  
HETATM   25  N   UNL     1      -7.474  18.753  65.820  1.00  0.00    -0.483 NA 
HETATM   26  C   UNL     1      -9.749  19.386  66.773  1.00  0.00    -0.350 A  
HETATM   27  N   UNL     1     -10.822  18.859  67.407  1.00  0.00    -0.441 NA 
HETATM   28  N   UNL     1      -9.773  20.737  66.459  1.00  0.00    -0.591 NA 
HETATM   29  H2  UNL     1      -9.577  20.820  65.461  1.00  0.00     0.000 HD 
HETATM   30  C   UNL     1     -10.769  17.565  67.787  1.00  0.00    -0.332 A  
HETATM   31  H1  UNL     1     -10.565  21.346  66.664  1.00  0.00     0.000 HD 
HETATM   32  N   UNL     1      -9.751  16.687  67.655  1.00  0.00    -0.247 NA 
HETATM   33  C   UNL     1      -8.731  17.250  66.977  1.00  0.00    -0.231 A  
ENDBRANCH  15  22
ENDBRANCH  12  13
ENDBRANCH  10  12
ENDBRANCH   9  10
ENDBRANCH   8   9
ENDBRANCH   1   8
TORSDOF 6
ENDMDL
MODEL       60
REMARK 921   NORMALIZED FREE ENERGY PREDICTED BY IDOCK:   -5.87 KCAL/MOL
REMARK 922        TOTAL FREE ENERGY PREDICTED BY IDOCK:   -9.35 KCAL/MOL
REMARK 923 INTER-LIGAND FREE ENERGY PREDICTED BY IDOCK:   -8.02 KCAL/MOL
REMARK 924 INTRA-LIGAND FREE ENERGY PREDICTED BY IDOCK:   -1.32 KCAL/MOL
REMARK 927      BINDING AFFINITY PREDICTED BY RF-SCORE:    0.00 PKD
ROOT
HETATM    1  CA  UNL     1     -11.884  12.931  64.771  1.00  0.00    -0.363 C  
HETATM    2  C   UNL     1     -11.979  14.462  64.407  1.00  0.00    -0.452 C  
HETATM    3  N   UNL     1     -13.226  12.295  64.513  1.00  0.00    -0.712 NA 
HETATM    4  OXT UNL     1     -11.245  15.219  65.108  1.00  0.00    -0.367 OA 
HETATM    5  H2  UNL     1     -13.208  11.281  64.619  1.00  0.00     0.000 HD 
HETATM    6  O   UNL     1     -12.783  14.741  63.475  1.00  0.00    -0.593 OA 
HETATM    7  H1  UNL     1     -13.910  12.744  65.123  1.00  0.00     0.000 HD 
ENDROOT
BRANCH   1   8
HETATM    8  C   UNL     1     -10.860  12.260  63.859  1.00  0.00    -0.464 C  
BRANCH   8   9
HETATM    9  C   UNL     1      -9.669  11.636  64.593  1.00  0.00    -0.185 C  
BRANCH   9  10
HETATM   10  S   UNL     1     -10.257  10.396  65.833  1.00  0.00    -0.202 S  
HETATM   11  C   UNL     1      -9.071   9.104  65.356  1.00  0.00    -0.214 C  
BRANCH  10  12
HETATM   12  C   UNL     1      -9.298  11.054  67.262  1.00  0.00    -0.156 C  
BRANCH  12  13
HETATM   13  C   UNL     1      -8.601  12.370  66.888  1.00  0.00    -0.171 C  
HETATM   14  O   UNL     1      -9.379  13.499  67.332  1.00  0.00    -0.211 OA 
HETATM   15  C   UNL     1      -8.489  14.614  67.345  1.00  0.00    -0.204 C  
HETATM   16  C   UNL     1      -7.166  14.058  67.879  1.00  0.00    -0.159 C  
HETATM   17  H   UNL     1      -5.325  12.269  67.115  1.00  0.00     0.000 HD 
HETATM   18  O   UNL     1      -6.026  14.662  67.254  1.00  0.00    -0.300 OA 
HETATM   19  C   UNL     1      -7.237  12.558  67.557  1.00  0.00    -0.147 C  
HETATM   20  O   UNL     1      -6.172  12.152  66.700  1.00  0.00    -0.148 OA 
HETATM   21  H   UNL     1      -5.205  14.317  67.586  1.00  0.00     0.000 HD 
BRANCH  15  22
HETATM   22  N   UNL     1      -9.081  15.695  68.105  1.00  0.00    -0.180 NA 
HETATM   23  C   UNL     1     -10.306  15.686  68.718  1.00  0.00    -0.218 A  
HETATM   24  C   UNL     1      -9.672  17.723  68.657  1.00  0.00    -0.346 A  
HETATM   25  N   UNL     1     -10.699  16.898  69.057  1.00  0.00    -0.328 NA 
HETATM   26  C   UNL     1      -9.509  19.119  68.683  1.00  0.00    -0.405 A  
HETATM   27  N   UNL     1      -8.329  19.639  68.275  1.00  0.00    -0.330 NA 
HETATM   28  N   UNL     1     -10.508  19.996  69.082  1.00  0.00    -0.527 NA 
HETATM   29  H2  UNL     1     -10.809  19.709  70.013  1.00  0.00     0.000 HD 
HETATM   30  C   UNL     1      -7.384  18.795  67.810  1.00  0.00    -0.233 A  
HETATM   31  H1  UNL     1     -10.389  21.009  69.100  1.00  0.00     0.000 HD 
HETATM   32  N   UNL     1      -7.453  17.455  67.653  1.00  0.00    -0.181 NA 
HETATM   33  C   UNL     1      -8.628  16.987  68.118  1.00  0.00    -0.228 A  
ENDBRANCH  15  22
ENDBRANCH  12  13
ENDBRANCH  10  12
ENDBRANCH   9  10
ENDBRANCH   8   9
ENDBRANCH   1   8
TORSDOF 6
ENDMDL
MODEL       61
REMARK 921   NORMALIZED FREE ENERGY PREDICTED BY IDOCK:   -5.87 KCAL/MOL
REMARK 922        TOTAL FREE ENERGY PREDICTED BY IDOCK:   -9.34 KCAL/MOL
REMARK 923 INTER-LIGAND FREE ENERGY PREDICTED BY IDOCK:   -8.42 KCAL/MOL
REMARK 924 INTRA-LIGAND FREE ENERGY PREDICTED BY IDOCK:   -0.92 KCAL/MOL
REMARK 927      BINDING AFFINITY PREDICTED BY RF-SCORE:    0.00 PKD
ROOT
HETATM    1  CA  UNL     1     -10.170  17.259  66.373  1.00  0.00    -0.331 C  
HETATM    2  C   UNL     1      -8.703  17.749  66.676  1.00  0.00    -0.261 C  
HETATM    3  N   UNL     1     -10.703  18.042  65.201  1.00  0.00    -0.565 NA 
HETATM    4  OXT UNL     1      -8.370  17.699  67.897  1.00  0.00    -0.225 OA 
HETATM    5  H2  UNL     1     -11.607  17.700  64.877  1.00  0.00     0.000 HD 
HETATM    6  O   UNL     1      -8.051  18.141  65.669  1.00  0.00    -0.488 OA 
HETATM    7  H1  UNL     1     -10.725  19.027  65.464  1.00  0.00     0.000 HD 
ENDROOT
BRANCH   1   8
HETATM    8  C   UNL     1     -10.137  15.784  65.980  1.00  0.00    -0.359 C  
BRANCH   8   9
HETATM    9  C   UNL     1     -10.957  15.439  64.733  1.00  0.00    -0.393 C  
BRANCH   9  10
HETATM   10  S   UNL     1     -12.199  14.127  65.126  1.00  0.00    -0.444 S  
HETATM   11  C   UNL     1     -12.046  13.268  63.531  1.00  0.00    -0.482 C  
BRANCH  10  12
HETATM   12  C   UNL     1     -11.059  13.032  66.072  1.00  0.00    -0.278 C  
BRANCH  12  13
HETATM   13  C   UNL     1     -11.743  12.501  67.339  1.00  0.00    -0.366 C  
HETATM   14  O   UNL     1     -11.376  11.128  67.576  1.00  0.00    -0.354 OA 
HETATM   15  C   UNL     1     -11.680  10.865  68.944  1.00  0.00    -0.306 C  
HETATM   16  C   UNL     1     -11.268  12.137  69.692  1.00  0.00    -0.067 C  
HETATM   17  H   UNL     1     -12.000  14.713  69.755  1.00  0.00     0.000 HD 
HETATM   18  O   UNL     1     -12.148  12.441  70.782  1.00  0.00    -0.456 OA 
HETATM   19  C   UNL     1     -11.327  13.234  68.617  1.00  0.00    -0.288 C  
HETATM   20  O   UNL     1     -12.257  14.258  68.962  1.00  0.00    -0.311 OA 
HETATM   21  H   UNL     1     -11.893  13.230  71.246  1.00  0.00     0.000 HD 
BRANCH  15  22
HETATM   22  N   UNL     1     -11.025   9.642  69.357  1.00  0.00    -0.219 NA 
HETATM   23  C   UNL     1     -10.136   8.903  68.621  1.00  0.00    -0.188 A  
HETATM   24  C   UNL     1     -10.755   7.666  70.248  1.00  0.00    -0.239 A  
HETATM   25  N   UNL     1      -9.957   7.698  69.127  1.00  0.00    -0.176 NA 
HETATM   26  C   UNL     1     -11.047   6.654  71.178  1.00  0.00    -0.279 A  
HETATM   27  N   UNL     1     -11.831   6.957  72.238  1.00  0.00    -0.264 NA 
HETATM   28  N   UNL     1     -10.593   5.349  71.052  1.00  0.00    -0.229 NA 
HETATM   29  H2  UNL     1      -9.578   5.388  70.956  1.00  0.00     0.000 HD 
HETATM   30  C   UNL     1     -12.340   8.204  72.321  1.00  0.00    -0.323 A  
HETATM   31  H1  UNL     1     -10.805   4.614  71.727  1.00  0.00     0.000 HD 
HETATM   32  N   UNL     1     -12.208   9.230  71.451  1.00  0.00    -0.329 NA 
HETATM   33  C   UNL     1     -11.381   8.887  70.444  1.00  0.00    -0.202 A  
ENDBRANCH  15  22
ENDBRANCH  12  13
ENDBRANCH  10  12
ENDBRANCH   9  10
ENDBRANCH   8   9
ENDBRANCH   1   8
TORSDOF 6
ENDMDL
MODEL       62
REMARK 921   NORMALIZED FREE ENERGY PREDICTED BY IDOCK:   -5.86 KCAL/MOL
REMARK 922        TOTAL FREE ENERGY PREDICTED BY IDOCK:   -9.34 KCAL/MOL
REMARK 923 INTER-LIGAND FREE ENERGY PREDICTED BY IDOCK:   -8.33 KCAL/MOL
REMARK 924 INTRA-LIGAND FREE ENERGY PREDICTED BY IDOCK:   -1.01 KCAL/MOL
REMARK 927      BINDING AFFINITY PREDICTED BY RF-SCORE:    0.00 PKD
ROOT
HETATM    1  CA  UNL     1     -13.227  10.355  71.222  1.00  0.00    -0.339 C  
HETATM    2  C   UNL     1     -13.527   8.974  71.921  1.00  0.00    -0.425 C  
HETATM    3  N   UNL     1     -13.226  11.433  72.275  1.00  0.00    -0.509 NA 
HETATM    4  OXT UNL     1     -14.163   8.146  71.206  1.00  0.00    -0.337 OA 
HETATM    5  H2  UNL     1     -12.926  12.338  71.912  1.00  0.00     0.000 HD 
HETATM    6  O   UNL     1     -13.107   8.874  73.108  1.00  0.00    -0.201 OA 
HETATM    7  H1  UNL     1     -14.154  11.464  72.696  1.00  0.00     0.000 HD 
ENDROOT
BRANCH   1   8
HETATM    8  C   UNL     1     -11.837  10.308  70.591  1.00  0.00    -0.439 C  
BRANCH   8   9
HETATM    9  C   UNL     1     -11.794  10.723  69.117  1.00  0.00    -0.275 C  
BRANCH   9  10
HETATM   10  S   UNL     1     -10.075  11.205  68.637  1.00  0.00    -0.201 S  
HETATM   11  C   UNL     1     -10.064  10.264  67.082  1.00  0.00    -0.210 C  
BRANCH  10  12
HETATM   12  C   UNL     1     -10.510  12.837  67.901  1.00  0.00    -0.220 C  
BRANCH  12  13
HETATM   13  C   UNL     1     -10.414  13.950  68.953  1.00  0.00    -0.187 C  
HETATM   14  O   UNL     1      -9.786  15.122  68.395  1.00  0.00    -0.213 OA 
HETATM   15  C   UNL     1     -10.127  16.204  69.259  1.00  0.00    -0.260 C  
HETATM   16  C   UNL     1     -11.589  15.959  69.643  1.00  0.00    -0.336 C  
HETATM   17  H   UNL     1     -12.995  14.112  70.980  1.00  0.00     0.000 HD 
HETATM   18  O   UNL     1     -11.871  16.343  70.995  1.00  0.00    -0.589 OA 
HETATM   19  C   UNL     1     -11.773  14.446  69.453  1.00  0.00    -0.317 C  
HETATM   20  O   UNL     1     -12.151  13.805  70.669  1.00  0.00    -0.335 OA 
HETATM   21  H   UNL     1     -12.778  16.191  71.234  1.00  0.00     0.000 HD 
BRANCH  15  22
HETATM   22  N   UNL     1      -9.843  17.459  68.594  1.00  0.00    -0.307 NA 
HETATM   23  C   UNL     1     -10.744  18.259  67.942  1.00  0.00    -0.311 A  
HETATM   24  C   UNL     1      -8.803  18.932  67.363  1.00  0.00    -0.273 A  
HETATM   25  N   UNL     1     -10.149  19.155  67.180  1.00  0.00    -0.349 NA 
HETATM   26  C   UNL     1      -7.657  19.512  66.792  1.00  0.00    -0.249 A  
HETATM   27  N   UNL     1      -6.442  19.118  67.240  1.00  0.00    -0.189 NA 
HETATM   28  N   UNL     1      -7.705  20.450  65.770  1.00  0.00    -0.542 NA 
HETATM   29  H2  UNL     1      -8.304  21.212  66.087  1.00  0.00     0.000 HD 
HETATM   30  C   UNL     1      -6.389  18.148  68.176  1.00  0.00    -0.190 A  
HETATM   31  H1  UNL     1      -6.873  20.870  65.356  1.00  0.00     0.000 HD 
HETATM   32  N   UNL     1      -7.407  17.456  68.733  1.00  0.00    -0.250 NA 
HETATM   33  C   UNL     1      -8.591  17.921  68.287  1.00  0.00    -0.275 A  
ENDBRANCH  15  22
ENDBRANCH  12  13
ENDBRANCH  10  12
ENDBRANCH   9  10
ENDBRANCH   8   9
ENDBRANCH   1   8
TORSDOF 6
ENDMDL
MODEL       63
REMARK 921   NORMALIZED FREE ENERGY PREDICTED BY IDOCK:   -5.85 KCAL/MOL
REMARK 922        TOTAL FREE ENERGY PREDICTED BY IDOCK:   -9.32 KCAL/MOL
REMARK 923 INTER-LIGAND FREE ENERGY PREDICTED BY IDOCK:   -8.62 KCAL/MOL
REMARK 924 INTRA-LIGAND FREE ENERGY PREDICTED BY IDOCK:   -0.70 KCAL/MOL
REMARK 927      BINDING AFFINITY PREDICTED BY RF-SCORE:    0.00 PKD
ROOT
HETATM    1  CA  UNL     1     -13.441   9.050  71.714  1.00  0.00    -0.411 C  
HETATM    2  C   UNL     1     -12.271   7.996  71.777  1.00  0.00    -0.316 C  
HETATM    3  N   UNL     1     -13.943   9.290  73.115  1.00  0.00    -1.020 NA 
HETATM    4  OXT UNL     1     -12.180   7.245  70.762  1.00  0.00    -0.296 OA 
HETATM    5  H2  UNL     1     -14.626  10.046  73.165  1.00  0.00     0.000 HD 
HETATM    6  O   UNL     1     -11.581   8.025  72.834  1.00  0.00    -0.397 OA 
HETATM    7  H1  UNL     1     -14.305   8.407  73.476  1.00  0.00     0.000 HD 
ENDROOT
BRANCH   1   8
HETATM    8  C   UNL     1     -12.900  10.372  71.173  1.00  0.00    -0.511 C  
BRANCH   8   9
HETATM    9  C   UNL     1     -13.163  11.583  72.074  1.00  0.00    -0.337 C  
BRANCH   9  10
HETATM   10  S   UNL     1     -13.279  13.124  71.059  1.00  0.00     0.168 S  
HETATM   11  C   UNL     1     -12.625  14.225  72.349  1.00  0.00    -0.233 C  
BRANCH  10  12
HETATM   12  C   UNL     1     -11.696  12.895  70.145  1.00  0.00    -0.159 C  
BRANCH  12  13
HETATM   13  C   UNL     1     -11.726  13.654  68.811  1.00  0.00    -0.348 C  
HETATM   14  O   UNL     1     -10.884  14.822  68.873  1.00  0.00    -0.237 OA 
HETATM   15  C   UNL     1     -10.628  15.200  67.522  1.00  0.00    -0.269 C  
HETATM   16  C   UNL     1     -10.425  13.879  66.773  1.00  0.00    -0.270 C  
HETATM   17  H   UNL     1     -11.880  11.715  66.163  1.00  0.00     0.000 HD 
HETATM   18  O   UNL     1     -10.954  13.919  65.441  1.00  0.00    -0.300 OA 
HETATM   19  C   UNL     1     -11.176  12.849  67.630  1.00  0.00    -0.278 C  
HETATM   20  O   UNL     1     -12.221  12.214  66.896  1.00  0.00    -0.537 OA 
HETATM   21  H   UNL     1     -10.829  13.100  64.976  1.00  0.00     0.000 HD 
BRANCH  15  22
HETATM   22  N   UNL     1      -9.519  16.131  67.484  1.00  0.00    -0.222 NA 
HETATM   23  C   UNL     1      -8.199  15.837  67.699  1.00  0.00    -0.151 A  
HETATM   24  C   UNL     1      -8.374  17.962  67.807  1.00  0.00    -0.241 A  
HETATM   25  N   UNL     1      -7.478  16.922  67.908  1.00  0.00    -0.166 NA 
HETATM   26  C   UNL     1      -8.243  19.350  67.983  1.00  0.00    -0.318 A  
HETATM   27  N   UNL     1      -9.316  20.137  67.737  1.00  0.00    -0.351 NA 
HETATM   28  N   UNL     1      -7.074  19.956  68.422  1.00  0.00    -0.296 NA 
HETATM   29  H2  UNL     1      -6.325  19.658  67.798  1.00  0.00     0.000 HD 
HETATM   30  C   UNL     1     -10.477  19.545  67.388  1.00  0.00    -0.471 A  
HETATM   31  H1  UNL     1      -6.979  20.964  68.550  1.00  0.00     0.000 HD 
HETATM   32  N   UNL     1     -10.751  18.227  67.274  1.00  0.00    -0.382 NA 
HETATM   33  C   UNL     1      -9.639  17.496  67.483  1.00  0.00    -0.265 A  
ENDBRANCH  15  22
ENDBRANCH  12  13
ENDBRANCH  10  12
ENDBRANCH   9  10
ENDBRANCH   8   9
ENDBRANCH   1   8
TORSDOF 6
ENDMDL
MODEL       64
REMARK 921   NORMALIZED FREE ENERGY PREDICTED BY IDOCK:   -5.84 KCAL/MOL
REMARK 922        TOTAL FREE ENERGY PREDICTED BY IDOCK:   -9.31 KCAL/MOL
REMARK 923 INTER-LIGAND FREE ENERGY PREDICTED BY IDOCK:   -9.18 KCAL/MOL
REMARK 924 INTRA-LIGAND FREE ENERGY PREDICTED BY IDOCK:   -0.13 KCAL/MOL
REMARK 927      BINDING AFFINITY PREDICTED BY RF-SCORE:    0.00 PKD
ROOT
HETATM    1  CA  UNL     1     -12.870   8.900  71.510  1.00  0.00    -0.334 C  
HETATM    2  C   UNL     1     -12.031   7.579  71.693  1.00  0.00    -0.302 C  
HETATM    3  N   UNL     1     -13.468   9.275  72.842  1.00  0.00    -0.770 NA 
HETATM    4  OXT UNL     1     -12.009   6.821  70.680  1.00  0.00    -0.386 OA 
HETATM    5  H2  UNL     1     -13.932  10.183  72.824  1.00  0.00     0.000 HD 
HETATM    6  O   UNL     1     -11.499   7.437  72.829  1.00  0.00    -0.310 OA 
HETATM    7  H1  UNL     1     -14.089   8.520  73.132  1.00  0.00     0.000 HD 
ENDROOT
BRANCH   1   8
HETATM    8  C   UNL     1     -11.940  10.030  71.074  1.00  0.00    -0.469 C  
BRANCH   8   9
HETATM    9  C   UNL     1     -12.282  10.646  69.714  1.00  0.00    -0.247 C  
BRANCH   9  10
HETATM   10  S   UNL     1     -10.787  11.449  68.980  1.00  0.00    -0.211 S  
HETATM   11  C   UNL     1      -9.759   9.950  69.009  1.00  0.00    -0.193 C  
BRANCH  10  12
HETATM   12  C   UNL     1     -11.317  11.314  67.220  1.00  0.00    -0.255 C  
BRANCH  12  13
HETATM   13  C   UNL     1     -11.904  12.644  66.727  1.00  0.00    -0.370 C  
HETATM   14  O   UNL     1     -11.148  13.756  67.246  1.00  0.00    -0.292 OA 
HETATM   15  C   UNL     1     -11.467  14.874  66.421  1.00  0.00    -0.280 C  
HETATM   16  C   UNL     1     -11.537  14.309  64.999  1.00  0.00    -0.367 C  
HETATM   17  H   UNL     1     -13.039  12.553  63.645  1.00  0.00     0.000 HD 
HETATM   18  O   UNL     1     -12.555  14.937  64.209  1.00  0.00    -0.699 OA 
HETATM   19  C   UNL     1     -11.846  12.819  65.207  1.00  0.00    -0.403 C  
HETATM   20  O   UNL     1     -13.075  12.444  64.588  1.00  0.00    -0.825 OA 
HETATM   21  H   UNL     1     -12.599  14.587  63.328  1.00  0.00     0.000 HD 
BRANCH  15  22
HETATM   22  N   UNL     1     -10.499  15.928  66.642  1.00  0.00    -0.303 NA 
HETATM   23  C   UNL     1     -10.133  16.900  65.749  1.00  0.00    -0.229 A  
HETATM   24  C   UNL     1      -8.669  16.920  67.303  1.00  0.00    -0.194 A  
HETATM   25  N   UNL     1      -9.023  17.513  66.113  1.00  0.00    -0.491 NA 
HETATM   26  C   UNL     1      -7.564  17.085  68.155  1.00  0.00    -0.194 A  
HETATM   27  N   UNL     1      -7.535  16.390  69.316  1.00  0.00    -0.233 NA 
HETATM   28  N   UNL     1      -6.486  17.905  67.856  1.00  0.00    -0.180 NA 
HETATM   29  H2  UNL     1      -6.858  18.834  67.659  1.00  0.00     0.000 HD 
HETATM   30  C   UNL     1      -8.542  15.530  69.573  1.00  0.00    -0.218 A  
HETATM   31  H1  UNL     1      -5.684  18.025  68.475  1.00  0.00     0.000 HD 
HETATM   32  N   UNL     1      -9.605  15.219  68.799  1.00  0.00    -0.205 NA 
HETATM   33  C   UNL     1      -9.608  15.972  67.681  1.00  0.00    -0.218 A  
ENDBRANCH  15  22
ENDBRANCH  12  13
ENDBRANCH  10  12
ENDBRANCH   9  10
ENDBRANCH   8   9
ENDBRANCH   1   8
TORSDOF 6
ENDMDL
MODEL       65
REMARK 921   NORMALIZED FREE ENERGY PREDICTED BY IDOCK:   -5.84 KCAL/MOL
REMARK 922        TOTAL FREE ENERGY PREDICTED BY IDOCK:   -9.31 KCAL/MOL
REMARK 923 INTER-LIGAND FREE ENERGY PREDICTED BY IDOCK:   -8.62 KCAL/MOL
REMARK 924 INTRA-LIGAND FREE ENERGY PREDICTED BY IDOCK:   -0.69 KCAL/MOL
REMARK 927      BINDING AFFINITY PREDICTED BY RF-SCORE:    0.00 PKD
ROOT
HETATM    1  CA  UNL     1      -8.344   9.739  63.919  1.00  0.00    -0.173 C  
HETATM    2  C   UNL     1      -7.215   8.653  64.098  1.00  0.00    -0.092 C  
HETATM    3  N   UNL     1      -9.343   9.227  62.913  1.00  0.00    -0.498 NA 
HETATM    4  OXT UNL     1      -6.068   9.121  64.358  1.00  0.00    -0.069 OA 
HETATM    5  H2  UNL     1     -10.162   9.828  62.831  1.00  0.00     0.000 HD 
HETATM    6  O   UNL     1      -7.593   7.458  63.947  1.00  0.00    -0.097 OA 
HETATM    7  H1  UNL     1      -8.858   9.097  62.025  1.00  0.00     0.000 HD 
ENDROOT
BRANCH   1   8
HETATM    8  C   UNL     1      -9.069   9.934  65.248  1.00  0.00    -0.256 C  
BRANCH   8   9
HETATM    9  C   UNL     1     -10.532  10.370  65.116  1.00  0.00    -0.088 C  
BRANCH   9  10
HETATM   10  S   UNL     1     -10.628  12.133  64.569  1.00  0.00    -0.332 S  
HETATM   11  C   UNL     1     -11.926  11.854  63.327  1.00  0.00    -0.337 C  
BRANCH  10  12
HETATM   12  C   UNL     1     -11.740  12.714  65.918  1.00  0.00    -0.420 C  
BRANCH  12  13
HETATM   13  C   UNL     1     -11.806  14.247  65.945  1.00  0.00    -0.380 C  
HETATM   14  O   UNL     1     -10.825  14.780  66.857  1.00  0.00    -0.302 OA 
HETATM   15  C   UNL     1     -10.657  16.151  66.502  1.00  0.00    -0.268 C  
HETATM   16  C   UNL     1     -10.692  16.171  64.971  1.00  0.00    -0.337 C  
HETATM   17  H   UNL     1     -12.452  15.618  63.030  1.00  0.00     0.000 HD 
HETATM   18  O   UNL     1     -11.338  17.341  64.453  1.00  0.00    -1.052 OA 
HETATM   19  C   UNL     1     -11.476  14.903  64.602  1.00  0.00    -0.379 C  
HETATM   20  O   UNL     1     -12.657  15.210  63.864  1.00  0.00    -0.794 OA 
HETATM   21  H   UNL     1     -11.359  17.354  63.504  1.00  0.00     0.000 HD 
BRANCH  15  22
HETATM   22  N   UNL     1      -9.453  16.665  67.121  1.00  0.00    -0.227 NA 
HETATM   23  C   UNL     1      -8.608  15.981  67.955  1.00  0.00    -0.164 A  
HETATM   24  C   UNL     1      -8.109  18.048  68.146  1.00  0.00    -0.273 A  
HETATM   25  N   UNL     1      -7.788  16.788  68.599  1.00  0.00    -0.230 NA 
HETATM   26  C   UNL     1      -7.642  19.328  68.488  1.00  0.00    -0.333 A  
HETATM   27  N   UNL     1      -8.114  20.393  67.798  1.00  0.00    -0.237 NA 
HETATM   28  N   UNL     1      -6.740  19.562  69.515  1.00  0.00    -0.333 NA 
HETATM   29  H2  UNL     1      -5.922  18.978  69.340  1.00  0.00     0.000 HD 
HETATM   30  C   UNL     1      -9.051  20.179  66.852  1.00  0.00    -0.356 A  
HETATM   31  H1  UNL     1      -6.401  20.492  69.763  1.00  0.00     0.000 HD 
HETATM   32  N   UNL     1      -9.641  19.016  66.497  1.00  0.00    -0.338 NA 
HETATM   33  C   UNL     1      -9.102  17.988  67.180  1.00  0.00    -0.256 A  
ENDBRANCH  15  22
ENDBRANCH  12  13
ENDBRANCH  10  12
ENDBRANCH   9  10
ENDBRANCH   8   9
ENDBRANCH   1   8
TORSDOF 6
ENDMDL
MODEL       66
REMARK 921   NORMALIZED FREE ENERGY PREDICTED BY IDOCK:   -5.83 KCAL/MOL
REMARK 922        TOTAL FREE ENERGY PREDICTED BY IDOCK:   -9.30 KCAL/MOL
REMARK 923 INTER-LIGAND FREE ENERGY PREDICTED BY IDOCK:   -8.52 KCAL/MOL
REMARK 924 INTRA-LIGAND FREE ENERGY PREDICTED BY IDOCK:   -0.77 KCAL/MOL
REMARK 927      BINDING AFFINITY PREDICTED BY RF-SCORE:    0.00 PKD
ROOT
HETATM    1  CA  UNL     1     -11.642  13.616  64.384  1.00  0.00    -0.393 C  
HETATM    2  C   UNL     1     -11.939  12.205  63.746  1.00  0.00    -0.513 C  
HETATM    3  N   UNL     1     -12.399  14.660  63.604  1.00  0.00    -1.089 NA 
HETATM    4  OXT UNL     1     -10.983  11.378  63.824  1.00  0.00    -0.381 OA 
HETATM    5  H2  UNL     1     -12.344  15.586  64.029  1.00  0.00     0.000 HD 
HETATM    6  O   UNL     1     -13.083  12.082  63.228  1.00  0.00    -0.701 OA 
HETATM    7  H1  UNL     1     -12.055  14.647  62.644  1.00  0.00     0.000 HD 
ENDROOT
BRANCH   1   8
HETATM    8  C   UNL     1     -12.156  13.636  65.822  1.00  0.00    -0.463 C  
BRANCH   8   9
HETATM    9  C   UNL     1     -11.827  12.378  66.632  1.00  0.00    -0.325 C  
BRANCH   9  10
HETATM   10  S   UNL     1     -10.937  12.832  68.188  1.00  0.00    -0.262 S  
HETATM   11  C   UNL     1     -11.681  11.516  69.197  1.00  0.00    -0.329 C  
BRANCH  10  12
HETATM   12  C   UNL     1      -9.368  11.947  67.801  1.00  0.00    -0.184 C  
BRANCH  12  13
HETATM   13  C   UNL     1      -8.211  12.942  67.635  1.00  0.00    -0.177 C  
HETATM   14  O   UNL     1      -8.715  14.278  67.444  1.00  0.00    -0.185 OA 
HETATM   15  C   UNL     1      -7.631  15.157  67.735  1.00  0.00    -0.155 C  
HETATM   16  C   UNL     1      -6.929  14.534  68.945  1.00  0.00    -0.110 C  
HETATM   17  H   UNL     1      -5.592  12.281  69.506  1.00  0.00     0.000 HD 
HETATM   18  O   UNL     1      -5.506  14.703  68.901  1.00  0.00    -0.085 OA 
HETATM   19  C   UNL     1      -7.307  13.046  68.866  1.00  0.00    -0.017 C  
HETATM   20  O   UNL     1      -6.153  12.217  68.742  1.00  0.00    -0.061 OA 
HETATM   21  H   UNL     1      -5.071  14.316  69.651  1.00  0.00     0.000 HD 
BRANCH  15  22
HETATM   22  N   UNL     1      -8.135  16.503  67.914  1.00  0.00    -0.161 NA 
HETATM   23  C   UNL     1      -9.205  16.878  68.683  1.00  0.00    -0.265 A  
HETATM   24  C   UNL     1      -8.754  18.538  67.420  1.00  0.00    -0.261 A  
HETATM   25  N   UNL     1      -9.611  18.101  68.403  1.00  0.00    -0.322 NA 
HETATM   26  C   UNL     1      -8.696  19.724  66.667  1.00  0.00    -0.354 A  
HETATM   27  N   UNL     1      -7.666  19.892  65.805  1.00  0.00    -0.329 NA 
HETATM   28  N   UNL     1      -9.655  20.723  66.743  1.00  0.00    -0.663 NA 
HETATM   29  H2  UNL     1      -9.738  20.990  67.724  1.00  0.00     0.000 HD 
HETATM   30  C   UNL     1      -6.775  18.888  65.669  1.00  0.00    -0.275 A  
HETATM   31  H1  UNL     1      -9.613  21.584  66.197  1.00  0.00     0.000 HD 
HETATM   32  N   UNL     1      -6.773  17.675  66.263  1.00  0.00    -0.255 NA 
HETATM   33  C   UNL     1      -7.789  17.581  67.143  1.00  0.00    -0.207 A  
ENDBRANCH  15  22
ENDBRANCH  12  13
ENDBRANCH  10  12
ENDBRANCH   9  10
ENDBRANCH   8   9
ENDBRANCH   1   8
TORSDOF 6
ENDMDL
MODEL       67
REMARK 921   NORMALIZED FREE ENERGY PREDICTED BY IDOCK:   -5.83 KCAL/MOL
REMARK 922        TOTAL FREE ENERGY PREDICTED BY IDOCK:   -9.29 KCAL/MOL
REMARK 923 INTER-LIGAND FREE ENERGY PREDICTED BY IDOCK:   -8.48 KCAL/MOL
REMARK 924 INTRA-LIGAND FREE ENERGY PREDICTED BY IDOCK:   -0.81 KCAL/MOL
REMARK 927      BINDING AFFINITY PREDICTED BY RF-SCORE:    0.00 PKD
ROOT
HETATM    1  CA  UNL     1      -7.514  10.300  68.271  1.00  0.00    -0.086 C  
HETATM    2  C   UNL     1      -6.824   9.789  69.593  1.00  0.00    -0.072 C  
HETATM    3  N   UNL     1      -6.953   9.522  67.108  1.00  0.00    -0.084 NA 
HETATM    4  OXT UNL     1      -6.679  10.672  70.489  1.00  0.00    -0.312 OA 
HETATM    5  H2  UNL     1      -7.435   9.720  66.232  1.00  0.00     0.000 HD 
HETATM    6  O   UNL     1      -6.491   8.571  69.586  1.00  0.00    -0.039 OA 
HETATM    7  H1  UNL     1      -5.951   9.708  67.058  1.00  0.00     0.000 HD 
ENDROOT
BRANCH   1   8
HETATM    8  C   UNL     1      -9.013  10.022  68.346  1.00  0.00    -0.121 C  
BRANCH   8   9
HETATM    9  C   UNL     1      -9.879  11.263  68.584  1.00  0.00    -0.202 C  
BRANCH   9  10
HETATM   10  S   UNL     1      -9.840  12.365  67.099  1.00  0.00    -0.207 S  
HETATM   11  C   UNL     1     -10.108  11.033  65.893  1.00  0.00    -0.249 C  
BRANCH  10  12
HETATM   12  C   UNL     1     -11.593  12.921  67.202  1.00  0.00    -0.363 C  
BRANCH  12  13
HETATM   13  C   UNL     1     -11.755  14.321  66.594  1.00  0.00    -0.400 C  
HETATM   14  O   UNL     1     -10.692  15.190  67.032  1.00  0.00    -0.295 OA 
HETATM   15  C   UNL     1     -10.666  16.281  66.114  1.00  0.00    -0.197 C  
HETATM   16  C   UNL     1     -10.920  15.650  64.742  1.00  0.00    -0.400 C  
HETATM   17  H   UNL     1     -12.899  14.327  63.514  1.00  0.00     0.000 HD 
HETATM   18  O   UNL     1     -11.708  16.490  63.890  1.00  0.00    -1.527 OA 
HETATM   19  C   UNL     1     -11.664  14.345  65.066  1.00  0.00    -0.389 C  
HETATM   20  O   UNL     1     -12.955  14.312  64.462  1.00  0.00    -0.574 OA 
HETATM   21  H   UNL     1     -11.866  16.099  63.039  1.00  0.00     0.000 HD 
BRANCH  15  22
HETATM   22  N   UNL     1      -9.422  17.007  66.263  1.00  0.00    -0.345 NA 
HETATM   23  C   UNL     1      -8.166  16.466  66.341  1.00  0.00    -0.331 A  
HETATM   24  C   UNL     1      -7.995  18.494  66.984  1.00  0.00    -0.236 A  
HETATM   25  N   UNL     1      -7.279  17.336  66.783  1.00  0.00    -0.190 NA 
HETATM   26  C   UNL     1      -7.641  19.754  67.496  1.00  0.00    -0.275 A  
HETATM   27  N   UNL     1      -8.573  20.735  67.501  1.00  0.00    -0.190 NA 
HETATM   28  N   UNL     1      -6.389  20.039  68.022  1.00  0.00    -0.237 NA 
HETATM   29  H2  UNL     1      -5.699  19.796  67.311  1.00  0.00     0.000 HD 
HETATM   30  C   UNL     1      -9.815  20.439  67.065  1.00  0.00    -0.453 A  
HETATM   31  H1  UNL     1      -6.132  20.954  68.394  1.00  0.00     0.000 HD 
HETATM   32  N   UNL     1     -10.299  19.253  66.637  1.00  0.00    -0.403 NA 
HETATM   33  C   UNL     1      -9.319  18.329  66.608  1.00  0.00    -0.303 A  
ENDBRANCH  15  22
ENDBRANCH  12  13
ENDBRANCH  10  12
ENDBRANCH   9  10
ENDBRANCH   8   9
ENDBRANCH   1   8
TORSDOF 6
ENDMDL
MODEL       68
REMARK 921   NORMALIZED FREE ENERGY PREDICTED BY IDOCK:   -5.82 KCAL/MOL
REMARK 922        TOTAL FREE ENERGY PREDICTED BY IDOCK:   -9.28 KCAL/MOL
REMARK 923 INTER-LIGAND FREE ENERGY PREDICTED BY IDOCK:   -8.72 KCAL/MOL
REMARK 924 INTRA-LIGAND FREE ENERGY PREDICTED BY IDOCK:   -0.56 KCAL/MOL
REMARK 927      BINDING AFFINITY PREDICTED BY RF-SCORE:    0.00 PKD
ROOT
HETATM    1  CA  UNL     1     -10.616  15.147  68.078  1.00  0.00    -0.258 C  
HETATM    2  C   UNL     1     -10.840  16.507  68.842  1.00  0.00    -0.336 C  
HETATM    3  N   UNL     1      -9.870  14.205  68.989  1.00  0.00    -0.413 NA 
HETATM    4  OXT UNL     1     -10.848  17.534  68.101  1.00  0.00    -0.361 OA 
HETATM    5  H2  UNL     1      -9.789  13.265  68.602  1.00  0.00     0.000 HD 
HETATM    6  O   UNL     1     -10.969  16.403  70.093  1.00  0.00    -0.349 OA 
HETATM    7  H1  UNL     1      -8.965  14.624  69.202  1.00  0.00     0.000 HD 
ENDROOT
BRANCH   1   8
HETATM    8  C   UNL     1     -11.971  14.520  67.758  1.00  0.00    -0.345 C  
BRANCH   8   9
HETATM    9  C   UNL     1     -12.199  14.222  66.273  1.00  0.00    -0.410 C  
BRANCH   9  10
HETATM   10  S   UNL     1     -11.904  12.430  65.927  1.00  0.00    -0.346 S  
HETATM   11  C   UNL     1     -11.912  12.604  64.118  1.00  0.00    -0.426 C  
BRANCH  10  12
HETATM   12  C   UNL     1     -10.074  12.471  66.140  1.00  0.00    -0.251 C  
BRANCH  12  13
HETATM   13  C   UNL     1      -9.562  11.134  66.690  1.00  0.00    -0.190 C  
HETATM   14  O   UNL     1      -9.943  10.974  68.071  1.00  0.00    -0.166 OA 
HETATM   15  C   UNL     1      -9.823   9.582  68.357  1.00  0.00    -0.158 C  
HETATM   16  C   UNL     1     -10.345   8.873  67.104  1.00  0.00    -0.281 C  
HETATM   17  H   UNL     1      -9.653   8.664  64.524  1.00  0.00     0.000 HD 
HETATM   18  O   UNL     1      -9.622   7.669  66.815  1.00  0.00    -0.182 OA 
HETATM   19  C   UNL     1     -10.153   9.909  65.986  1.00  0.00    -0.244 C  
HETATM   20  O   UNL     1      -9.287   9.424  64.961  1.00  0.00    -0.251 OA 
HETATM   21  H   UNL     1      -9.945   7.229  66.037  1.00  0.00     0.000 HD 
BRANCH  15  22
HETATM   22  N   UNL     1     -10.516   9.283  69.594  1.00  0.00    -0.216 NA 
HETATM   23  C   UNL     1     -10.685   8.045  70.156  1.00  0.00    -0.244 A  
HETATM   24  C   UNL     1     -12.045   9.355  71.151  1.00  0.00    -0.328 A  
HETATM   25  N   UNL     1     -11.611   8.050  71.095  1.00  0.00    -0.280 NA 
HETATM   26  C   UNL     1     -13.050   9.991  71.900  1.00  0.00    -0.460 A  
HETATM   27  N   UNL     1     -13.193  11.331  71.782  1.00  0.00    -0.436 NA 
HETATM   28  N   UNL     1     -13.923   9.311  72.736  1.00  0.00    -0.925 NA 
HETATM   29  H2  UNL     1     -13.358   8.768  73.389  1.00  0.00     0.000 HD 
HETATM   30  C   UNL     1     -12.400  11.985  70.908  1.00  0.00    -0.285 A  
HETATM   31  H1  UNL     1     -14.653   9.773  73.280  1.00  0.00     0.000 HD 
HETATM   32  N   UNL     1     -11.466  11.479  70.073  1.00  0.00    -0.261 NA 
HETATM   33  C   UNL     1     -11.334  10.151  70.267  1.00  0.00    -0.315 A  
ENDBRANCH  15  22
ENDBRANCH  12  13
ENDBRANCH  10  12
ENDBRANCH   9  10
ENDBRANCH   8   9
ENDBRANCH   1   8
TORSDOF 6
ENDMDL
MODEL       69
REMARK 921   NORMALIZED FREE ENERGY PREDICTED BY IDOCK:   -5.81 KCAL/MOL
REMARK 922        TOTAL FREE ENERGY PREDICTED BY IDOCK:   -9.26 KCAL/MOL
REMARK 923 INTER-LIGAND FREE ENERGY PREDICTED BY IDOCK:   -8.19 KCAL/MOL
REMARK 924 INTRA-LIGAND FREE ENERGY PREDICTED BY IDOCK:   -1.07 KCAL/MOL
REMARK 927      BINDING AFFINITY PREDICTED BY RF-SCORE:    0.00 PKD
ROOT
HETATM    1  CA  UNL     1     -10.239   8.139  68.538  1.00  0.00    -0.208 C  
HETATM    2  C   UNL     1      -8.713   8.382  68.850  1.00  0.00    -0.136 C  
HETATM    3  N   UNL     1     -11.058   9.014  69.453  1.00  0.00    -0.434 NA 
HETATM    4  OXT UNL     1      -7.971   7.370  68.680  1.00  0.00    -0.119 OA 
HETATM    5  H2  UNL     1     -12.053   8.993  69.230  1.00  0.00     0.000 HD 
HETATM    6  O   UNL     1      -8.426   9.547  69.240  1.00  0.00    -0.123 OA 
HETATM    7  H1  UNL     1     -10.863   8.735  70.414  1.00  0.00     0.000 HD 
ENDROOT
BRANCH   1   8
HETATM    8  C   UNL     1     -10.532   8.556  67.099  1.00  0.00    -0.370 C  
BRANCH   8   9
HETATM    9  C   UNL     1      -9.298   8.623  66.193  1.00  0.00    -0.226 C  
BRANCH   9  10
HETATM   10  S   UNL     1      -8.970  10.370  65.684  1.00  0.00    -0.185 S  
HETATM   11  C   UNL     1      -9.472  10.137  63.952  1.00  0.00    -0.275 C  
BRANCH  10  12
HETATM   12  C   UNL     1     -10.567  11.068  66.281  1.00  0.00    -0.237 C  
BRANCH  12  13
HETATM   13  C   UNL     1     -10.322  12.227  67.256  1.00  0.00    -0.214 C  
HETATM   14  O   UNL     1     -10.163  13.467  66.540  1.00  0.00    -0.271 OA 
HETATM   15  C   UNL     1     -10.377  14.506  67.493  1.00  0.00    -0.244 C  
HETATM   16  C   UNL     1     -11.538  14.013  68.362  1.00  0.00    -0.331 C  
HETATM   17  H   UNL     1     -12.011  12.001  70.066  1.00  0.00     0.000 HD 
HETATM   18  O   UNL     1     -11.397  14.400  69.735  1.00  0.00    -0.249 OA 
HETATM   19  C   UNL     1     -11.488  12.485  68.214  1.00  0.00    -0.308 C  
HETATM   20  O   UNL     1     -11.288  11.841  69.471  1.00  0.00    -0.262 OA 
HETATM   21  H   UNL     1     -12.117  14.094  70.274  1.00  0.00     0.000 HD 
BRANCH  15  22
HETATM   22  N   UNL     1     -10.587  15.760  66.799  1.00  0.00    -0.310 NA 
HETATM   23  C   UNL     1     -10.744  15.929  65.449  1.00  0.00    -0.399 A  
HETATM   24  C   UNL     1     -10.358  17.865  66.263  1.00  0.00    -0.364 A  
HETATM   25  N   UNL     1     -10.602  17.190  65.089  1.00  0.00    -0.682 NA 
HETATM   26  C   UNL     1     -10.066  19.211  66.543  1.00  0.00    -0.406 A  
HETATM   27  N   UNL     1      -9.945  19.590  67.837  1.00  0.00    -0.369 NA 
HETATM   28  N   UNL     1      -9.869  20.169  65.560  1.00  0.00    -0.470 NA 
HETATM   29  H2  UNL     1     -10.690  20.157  64.955  1.00  0.00     0.000 HD 
HETATM   30  C   UNL     1     -10.057  18.645  68.794  1.00  0.00    -0.353 A  
HETATM   31  H1  UNL     1      -9.656  21.146  65.763  1.00  0.00     0.000 HD 
HETATM   32  N   UNL     1     -10.245  17.315  68.649  1.00  0.00    -0.331 NA 
HETATM   33  C   UNL     1     -10.405  17.002  67.348  1.00  0.00    -0.319 A  
ENDBRANCH  15  22
ENDBRANCH  12  13
ENDBRANCH  10  12
ENDBRANCH   9  10
ENDBRANCH   8   9
ENDBRANCH   1   8
TORSDOF 6
ENDMDL
MODEL       70
REMARK 921   NORMALIZED FREE ENERGY PREDICTED BY IDOCK:   -5.80 KCAL/MOL
REMARK 922        TOTAL FREE ENERGY PREDICTED BY IDOCK:   -9.26 KCAL/MOL
REMARK 923 INTER-LIGAND FREE ENERGY PREDICTED BY IDOCK:   -9.23 KCAL/MOL
REMARK 924 INTRA-LIGAND FREE ENERGY PREDICTED BY IDOCK:   -0.03 KCAL/MOL
REMARK 927      BINDING AFFINITY PREDICTED BY RF-SCORE:    0.00 PKD
ROOT
HETATM    1  CA  UNL     1     -13.129   8.868  71.845  1.00  0.00    -0.386 C  
HETATM    2  C   UNL     1     -11.938   7.885  72.162  1.00  0.00    -0.332 C  
HETATM    3  N   UNL     1     -13.957   9.031  73.093  1.00  0.00    -1.215 NA 
HETATM    4  OXT UNL     1     -11.564   7.174  71.183  1.00  0.00    -0.275 OA 
HETATM    5  H2  UNL     1     -14.681   9.743  72.995  1.00  0.00     0.000 HD 
HETATM    6  O   UNL     1     -11.516   7.921  73.351  1.00  0.00    -0.211 OA 
HETATM    7  H1  UNL     1     -14.334   8.117  73.344  1.00  0.00     0.000 HD 
ENDROOT
BRANCH   1   8
HETATM    8  C   UNL     1     -12.565  10.236  71.469  1.00  0.00    -0.544 C  
BRANCH   8   9
HETATM    9  C   UNL     1     -12.653  10.571  69.976  1.00  0.00    -0.126 C  
BRANCH   9  10
HETATM   10  S   UNL     1     -10.990  11.056  69.330  1.00  0.00    -0.240 S  
HETATM   11  C   UNL     1     -10.424   9.355  69.026  1.00  0.00    -0.217 C  
BRANCH  10  12
HETATM   12  C   UNL     1     -11.529  11.416  67.606  1.00  0.00    -0.273 C  
BRANCH  12  13
HETATM   13  C   UNL     1     -10.451  12.209  66.854  1.00  0.00    -0.225 C  
HETATM   14  O   UNL     1     -10.998  13.434  66.326  1.00  0.00    -0.286 OA 
HETATM   15  C   UNL     1      -9.884  14.278  66.047  1.00  0.00    -0.314 C  
HETATM   16  C   UNL     1      -8.915  14.054  67.212  1.00  0.00    -0.218 C  
HETATM   17  H   UNL     1      -7.464  12.037  68.211  1.00  0.00     0.000 HD 
HETATM   18  O   UNL     1      -7.543  14.095  66.799  1.00  0.00    -0.242 OA 
HETATM   19  C   UNL     1      -9.287  12.660  67.740  1.00  0.00    -0.198 C  
HETATM   20  O   UNL     1      -8.186  11.757  67.661  1.00  0.00    -0.131 OA 
HETATM   21  H   UNL     1      -6.942  13.956  67.521  1.00  0.00     0.000 HD 
BRANCH  15  22
HETATM   22  N   UNL     1     -10.345  15.637  65.853  1.00  0.00    -0.326 NA 
HETATM   23  C   UNL     1     -11.050  16.114  64.779  1.00  0.00    -0.333 A  
HETATM   24  C   UNL     1     -10.330  17.821  65.841  1.00  0.00    -0.254 A  
HETATM   25  N   UNL     1     -11.052  17.433  64.736  1.00  0.00    -0.883 NA 
HETATM   26  C   UNL     1      -9.927  19.079  66.319  1.00  0.00    -0.398 A  
HETATM   27  N   UNL     1      -9.271  19.142  67.501  1.00  0.00    -0.293 NA 
HETATM   28  N   UNL     1     -10.144  20.263  65.629  1.00  0.00    -0.510 NA 
HETATM   29  H2  UNL     1     -11.143  20.320  65.431  1.00  0.00     0.000 HD 
HETATM   30  C   UNL     1      -8.986  17.986  68.137  1.00  0.00    -0.283 A  
HETATM   31  H1  UNL     1      -9.852  21.176  65.976  1.00  0.00     0.000 HD 
HETATM   32  N   UNL     1      -9.238  16.720  67.739  1.00  0.00    -0.220 NA 
HETATM   33  C   UNL     1      -9.932  16.720  66.584  1.00  0.00    -0.293 A  
ENDBRANCH  15  22
ENDBRANCH  12  13
ENDBRANCH  10  12
ENDBRANCH   9  10
ENDBRANCH   8   9
ENDBRANCH   1   8
TORSDOF 6
ENDMDL
MODEL       71
REMARK 921   NORMALIZED FREE ENERGY PREDICTED BY IDOCK:   -5.79 KCAL/MOL
REMARK 922        TOTAL FREE ENERGY PREDICTED BY IDOCK:   -9.25 KCAL/MOL
REMARK 923 INTER-LIGAND FREE ENERGY PREDICTED BY IDOCK:   -8.02 KCAL/MOL
REMARK 924 INTRA-LIGAND FREE ENERGY PREDICTED BY IDOCK:   -1.22 KCAL/MOL
REMARK 927      BINDING AFFINITY PREDICTED BY RF-SCORE:    0.00 PKD
ROOT
HETATM    1  CA  UNL     1      -6.795  17.720  68.378  1.00  0.00    -0.221 C  
HETATM    2  C   UNL     1      -6.692  16.349  69.149  1.00  0.00    -0.205 C  
HETATM    3  N   UNL     1      -5.529  18.501  68.622  1.00  0.00    -0.187 NA 
HETATM    4  OXT UNL     1      -7.795  15.895  69.572  1.00  0.00    -0.226 OA 
HETATM    5  H2  UNL     1      -5.477  19.352  68.062  1.00  0.00     0.000 HD 
HETATM    6  O   UNL     1      -5.523  15.883  69.257  1.00  0.00    -0.109 OA 
HETATM    7  H1  UNL     1      -5.459  18.683  69.623  1.00  0.00     0.000 HD 
ENDROOT
BRANCH   1   8
HETATM    8  C   UNL     1      -6.901  17.448  66.879  1.00  0.00    -0.228 C  
BRANCH   8   9
HETATM    9  C   UNL     1      -8.298  17.670  66.290  1.00  0.00    -0.216 C  
BRANCH   9  10
HETATM   10  S   UNL     1      -9.350  18.620  67.477  1.00  0.00    -0.285 S  
HETATM   11  C   UNL     1     -10.208  19.591  66.202  1.00  0.00    -0.496 C  
BRANCH  10  12
HETATM   12  C   UNL     1     -10.653  17.333  67.683  1.00  0.00    -0.350 C  
BRANCH  12  13
HETATM   13  C   UNL     1     -10.490  16.224  66.635  1.00  0.00    -0.290 C  
HETATM   14  O   UNL     1     -10.498  14.927  67.264  1.00  0.00    -0.257 OA 
HETATM   15  C   UNL     1     -10.780  13.986  66.231  1.00  0.00    -0.289 C  
HETATM   16  C   UNL     1     -11.840  14.662  65.357  1.00  0.00    -0.304 C  
HETATM   17  H   UNL     1     -12.015  16.826  63.788  1.00  0.00     0.000 HD 
HETATM   18  O   UNL     1     -11.678  14.358  63.966  1.00  0.00    -0.644 OA 
HETATM   19  C   UNL     1     -11.632  16.162  65.618  1.00  0.00     0.603 C  
HETATM   20  O   UNL     1     -11.306  16.864  64.419  1.00  0.00    -1.133 OA 
HETATM   21  H   UNL     1     -12.336  14.777  63.423  1.00  0.00     0.000 HD 
BRANCH  15  22
HETATM   22  N   UNL     1     -11.155  12.718  66.823  1.00  0.00    -0.267 NA 
HETATM   23  C   UNL     1     -11.816  12.535  68.008  1.00  0.00    -0.325 A  
HETATM   24  C   UNL     1     -11.005  10.637  67.465  1.00  0.00    -0.310 A  
HETATM   25  N   UNL     1     -11.737  11.288  68.432  1.00  0.00    -0.474 NA 
HETATM   26  C   UNL     1     -10.531   9.318  67.361  1.00  0.00    -0.273 A  
HETATM   27  N   UNL     1      -9.886   8.951  66.229  1.00  0.00    -0.282 NA 
HETATM   28  N   UNL     1     -10.667   8.376  68.370  1.00  0.00    -0.425 NA 
HETATM   29  H2  UNL     1     -11.659   8.324  68.604  1.00  0.00     0.000 HD 
HETATM   30  C   UNL     1      -9.681   9.886  65.278  1.00  0.00    -0.313 A  
HETATM   31  H1  UNL     1     -10.323   7.418  68.293  1.00  0.00     0.000 HD 
HETATM   32  N   UNL     1     -10.005  11.197  65.299  1.00  0.00    -0.245 NA 
HETATM   33  C   UNL     1     -10.685  11.495  66.425  1.00  0.00    -0.273 A  
ENDBRANCH  15  22
ENDBRANCH  12  13
ENDBRANCH  10  12
ENDBRANCH   9  10
ENDBRANCH   8   9
ENDBRANCH   1   8
TORSDOF 6
ENDMDL
MODEL       72
REMARK 921   NORMALIZED FREE ENERGY PREDICTED BY IDOCK:   -5.79 KCAL/MOL
REMARK 922        TOTAL FREE ENERGY PREDICTED BY IDOCK:   -9.24 KCAL/MOL
REMARK 923 INTER-LIGAND FREE ENERGY PREDICTED BY IDOCK:   -8.46 KCAL/MOL
REMARK 924 INTRA-LIGAND FREE ENERGY PREDICTED BY IDOCK:   -0.78 KCAL/MOL
REMARK 927      BINDING AFFINITY PREDICTED BY RF-SCORE:    0.00 PKD
ROOT
HETATM    1  CA  UNL     1     -10.474   9.447  69.276  1.00  0.00    -0.218 C  
HETATM    2  C   UNL     1      -9.324   8.749  70.099  1.00  0.00    -0.169 C  
HETATM    3  N   UNL     1     -10.837  10.738  69.965  1.00  0.00    -0.457 NA 
HETATM    4  OXT UNL     1      -9.345   7.484  70.067  1.00  0.00    -0.154 OA 
HETATM    5  H2  UNL     1     -11.496  11.299  69.426  1.00  0.00     0.000 HD 
HETATM    6  O   UNL     1      -8.538   9.537  70.694  1.00  0.00    -0.211 OA 
HETATM    7  H1  UNL     1     -11.181  10.512  70.898  1.00  0.00     0.000 HD 
ENDROOT
BRANCH   1   8
HETATM    8  C   UNL     1      -9.959   9.785  67.879  1.00  0.00    -0.196 C  
BRANCH   8   9
HETATM    9  C   UNL     1      -9.682  11.273  67.646  1.00  0.00    -0.171 C  
BRANCH   9  10
HETATM   10  S   UNL     1      -9.913  11.697  65.861  1.00  0.00    -0.240 S  
HETATM   11  C   UNL     1     -10.033   9.975  65.294  1.00  0.00    -0.298 C  
BRANCH  10  12
HETATM   12  C   UNL     1     -11.724  12.023  65.953  1.00  0.00    -0.242 C  
BRANCH  12  13
HETATM   13  C   UNL     1     -12.020  13.510  65.720  1.00  0.00    -0.403 C  
HETATM   14  O   UNL     1     -11.408  14.316  66.746  1.00  0.00    -0.324 OA 
HETATM   15  C   UNL     1     -11.356  15.645  66.230  1.00  0.00     0.075 C  
HETATM   16  C   UNL     1     -10.983  15.481  64.753  1.00  0.00    -0.399 C  
HETATM   17  H   UNL     1     -12.060  14.393  62.555  1.00  0.00     0.000 HD 
HETATM   18  O   UNL     1     -11.633  16.445  63.914  1.00  0.00    -1.564 OA 
HETATM   19  C   UNL     1     -11.444  14.056  64.410  1.00  0.00    -0.344 C  
HETATM   20  O   UNL     1     -12.417  14.054  63.367  1.00  0.00    -0.826 OA 
HETATM   21  H   UNL     1     -11.402  16.344  62.998  1.00  0.00     0.000 HD 
BRANCH  15  22
HETATM   22  N   UNL     1     -10.450  16.439  67.033  1.00  0.00    -0.301 NA 
HETATM   23  C   UNL     1     -10.651  17.725  67.459  1.00  0.00    -0.359 A  
HETATM   24  C   UNL     1      -8.579  17.303  67.755  1.00  0.00    -0.225 A  
HETATM   25  N   UNL     1      -9.537  18.282  67.894  1.00  0.00    -0.281 NA 
HETATM   26  C   UNL     1      -7.193  17.291  67.986  1.00  0.00    -0.190 A  
HETATM   27  N   UNL     1      -6.521  16.128  67.820  1.00  0.00    -0.134 NA 
HETATM   28  N   UNL     1      -6.470  18.418  68.349  1.00  0.00    -0.207 NA 
HETATM   29  H2  UNL     1      -6.912  18.806  69.183  1.00  0.00     0.000 HD 
HETATM   30  C   UNL     1      -7.206  15.049  67.388  1.00  0.00    -0.194 A  
HETATM   31  H1  UNL     1      -5.464  18.409  68.516  1.00  0.00     0.000 HD 
HETATM   32  N   UNL     1      -8.511  14.957  67.049  1.00  0.00    -0.225 NA 
HETATM   33  C   UNL     1      -9.138  16.128  67.278  1.00  0.00    -0.203 A  
ENDBRANCH  15  22
ENDBRANCH  12  13
ENDBRANCH  10  12
ENDBRANCH   9  10
ENDBRANCH   8   9
ENDBRANCH   1   8
TORSDOF 6
ENDMDL
MODEL       73
REMARK 921   NORMALIZED FREE ENERGY PREDICTED BY IDOCK:   -5.69 KCAL/MOL
REMARK 922        TOTAL FREE ENERGY PREDICTED BY IDOCK:   -9.10 KCAL/MOL
REMARK 923 INTER-LIGAND FREE ENERGY PREDICTED BY IDOCK:   -8.28 KCAL/MOL
REMARK 924 INTRA-LIGAND FREE ENERGY PREDICTED BY IDOCK:   -0.82 KCAL/MOL
REMARK 927      BINDING AFFINITY PREDICTED BY RF-SCORE:    0.00 PKD
ROOT
HETATM    1  CA  UNL     1      -7.389  15.635  68.751  1.00  0.00    -0.144 C  
HETATM    2  C   UNL     1      -5.863  15.895  68.456  1.00  0.00    -0.103 C  
HETATM    3  N   UNL     1      -7.503  14.880  70.050  1.00  0.00    -0.339 NA 
HETATM    4  OXT UNL     1      -5.557  15.917  67.228  1.00  0.00    -0.305 OA 
HETATM    5  H2  UNL     1      -8.468  14.776  70.362  1.00  0.00     0.000 HD 
HETATM    6  O   UNL     1      -5.137  16.035  69.480  1.00  0.00    -0.106 OA 
HETATM    7  H1  UNL     1      -7.025  13.986  69.938  1.00  0.00     0.000 HD 
ENDROOT
BRANCH   1   8
HETATM    8  C   UNL     1      -8.104  16.974  68.918  1.00  0.00    -0.210 C  
BRANCH   8   9
HETATM    9  C   UNL     1      -9.371  17.128  68.070  1.00  0.00    -0.254 C  
BRANCH   9  10
HETATM   10  S   UNL     1     -10.001  15.468  67.551  1.00  0.00    -0.232 S  
HETATM   11  C   UNL     1     -11.633  15.657  68.328  1.00  0.00    -0.319 C  
BRANCH  10  12
HETATM   12  C   UNL     1     -10.512  15.958  65.850  1.00  0.00    -0.359 C  
BRANCH  12  13
HETATM   13  C   UNL     1     -10.713  14.720  64.966  1.00  0.00    -0.433 C  
HETATM   14  O   UNL     1     -10.051  13.575  65.539  1.00  0.00    -0.295 OA 
HETATM   15  C   UNL     1     -10.635  12.429  64.924  1.00  0.00    -0.294 C  
HETATM   16  C   UNL     1     -12.129  12.753  64.820  1.00  0.00    -0.432 C  
HETATM   17  H   UNL     1     -13.677  14.538  63.560  1.00  0.00     0.000 HD 
HETATM   18  O   UNL     1     -12.720  12.232  63.623  1.00  0.00    -0.713 OA 
HETATM   19  C   UNL     1     -12.176  14.288  64.833  1.00  0.00    -0.440 C  
HETATM   20  O   UNL     1     -12.770  14.806  63.644  1.00  0.00    -0.713 OA 
HETATM   21  H   UNL     1     -13.646  12.433  63.558  1.00  0.00     0.000 HD 
BRANCH  15  22
HETATM   22  N   UNL     1     -10.290  11.245  65.683  1.00  0.00    -0.249 NA 
HETATM   23  C   UNL     1      -9.907  10.032  65.175  1.00  0.00    -0.318 A  
HETATM   24  C   UNL     1     -10.388   9.706  67.229  1.00  0.00    -0.249 A  
HETATM   25  N   UNL     1      -9.965   9.076  66.081  1.00  0.00    -0.284 NA 
HETATM   26  C   UNL     1     -10.699   9.230  68.514  1.00  0.00    -0.142 A  
HETATM   27  N   UNL     1     -11.027  10.128  69.473  1.00  0.00    -0.242 NA 
HETATM   28  N   UNL     1     -10.712   7.884  68.847  1.00  0.00    -0.393 NA 
HETATM   29  H2  UNL     1      -9.802   7.500  68.594  1.00  0.00     0.000 HD 
HETATM   30  C   UNL     1     -11.093  11.432  69.133  1.00  0.00    -0.258 A  
HETATM   31  H1  UNL     1     -10.938   7.539  69.780  1.00  0.00     0.000 HD 
HETATM   32  N   UNL     1     -10.907  11.999  67.921  1.00  0.00    -0.206 NA 
HETATM   33  C   UNL     1     -10.538  11.068  67.019  1.00  0.00    -0.256 A  
ENDBRANCH  15  22
ENDBRANCH  12  13
ENDBRANCH  10  12
ENDBRANCH   9  10
ENDBRANCH   8   9
ENDBRANCH   1   8
TORSDOF 6
ENDMDL
MODEL       74
REMARK 921   NORMALIZED FREE ENERGY PREDICTED BY IDOCK:   -5.68 KCAL/MOL
REMARK 922        TOTAL FREE ENERGY PREDICTED BY IDOCK:   -9.09 KCAL/MOL
REMARK 923 INTER-LIGAND FREE ENERGY PREDICTED BY IDOCK:   -8.37 KCAL/MOL
REMARK 924 INTRA-LIGAND FREE ENERGY PREDICTED BY IDOCK:   -0.73 KCAL/MOL
REMARK 927      BINDING AFFINITY PREDICTED BY RF-SCORE:    0.00 PKD
ROOT
HETATM    1  CA  UNL     1     -12.300   7.910  71.459  1.00  0.00    -0.315 C  
HETATM    2  C   UNL     1     -11.771   6.435  71.633  1.00  0.00    -0.313 C  
HETATM    3  N   UNL     1     -13.389   8.150  72.472  1.00  0.00    -0.557 NA 
HETATM    4  OXT UNL     1     -11.375   5.885  70.564  1.00  0.00    -0.291 OA 
HETATM    5  H2  UNL     1     -13.701   9.120  72.494  1.00  0.00     0.000 HD 
HETATM    6  O   UNL     1     -11.822   5.985  72.812  1.00  0.00    -0.180 OA 
HETATM    7  H1  UNL     1     -14.148   7.496  72.280  1.00  0.00     0.000 HD 
ENDROOT
BRANCH   1   8
HETATM    8  C   UNL     1     -11.163   8.889  71.746  1.00  0.00    -0.432 C  
BRANCH   8   9
HETATM    9  C   UNL     1     -10.965   9.964  70.674  1.00  0.00    -0.337 C  
BRANCH   9  10
HETATM   10  S   UNL     1      -9.287   9.809  69.913  1.00  0.00    -0.219 S  
HETATM   11  C   UNL     1      -8.588   8.796  71.251  1.00  0.00    -0.203 C  
BRANCH  10  12
HETATM   12  C   UNL     1      -9.697   8.416  68.778  1.00  0.00    -0.164 C  
BRANCH  12  13
HETATM   13  C   UNL     1      -9.177   8.699  67.362  1.00  0.00    -0.136 C  
HETATM   14  O   UNL     1     -10.189   9.353  66.572  1.00  0.00    -0.258 OA 
HETATM   15  C   UNL     1      -9.509   9.954  65.472  1.00  0.00    -0.252 C  
HETATM   16  C   UNL     1      -8.211  10.511  66.066  1.00  0.00    -0.150 C  
HETATM   17  H   UNL     1      -6.004   9.545  67.238  1.00  0.00     0.000 HD 
HETATM   18  O   UNL     1      -7.103  10.398  65.163  1.00  0.00    -0.188 OA 
HETATM   19  C   UNL     1      -7.983   9.657  67.323  1.00  0.00    -0.106 C  
HETATM   20  O   UNL     1      -6.745   8.951  67.262  1.00  0.00    -0.064 OA 
HETATM   21  H   UNL     1      -6.298  10.743  65.531  1.00  0.00     0.000 HD 
BRANCH  15  22
HETATM   22  N   UNL     1     -10.382  10.916  64.832  1.00  0.00    -0.308 NA 
HETATM   23  C   UNL     1     -10.434  11.207  63.494  1.00  0.00    -0.358 A  
HETATM   24  C   UNL     1     -11.489  12.768  64.497  1.00  0.00    -0.342 A  
HETATM   25  N   UNL     1     -11.088  12.327  63.257  1.00  0.00    -0.395 NA 
HETATM   26  C   UNL     1     -12.168  13.923  64.922  1.00  0.00    -0.422 A  
HETATM   27  N   UNL     1     -12.487  14.039  66.232  1.00  0.00    -0.454 NA 
HETATM   28  N   UNL     1     -12.506  14.965  64.071  1.00  0.00    -1.008 NA 
HETATM   29  H2  UNL     1     -13.041  14.566  63.300  1.00  0.00     0.000 HD 
HETATM   30  C   UNL     1     -12.090  13.066  67.077  1.00  0.00    -0.267 A  
HETATM   31  H1  UNL     1     -12.998  15.804  64.379  1.00  0.00     0.000 HD 
HETATM   32  N   UNL     1     -11.360  11.961  66.808  1.00  0.00    -0.346 NA 
HETATM   33  C   UNL     1     -11.112  11.872  65.486  1.00  0.00    -0.304 A  
ENDBRANCH  15  22
ENDBRANCH  12  13
ENDBRANCH  10  12
ENDBRANCH   9  10
ENDBRANCH   8   9
ENDBRANCH   1   8
TORSDOF 6
ENDMDL
MODEL       75
REMARK 921   NORMALIZED FREE ENERGY PREDICTED BY IDOCK:   -5.68 KCAL/MOL
REMARK 922        TOTAL FREE ENERGY PREDICTED BY IDOCK:   -9.09 KCAL/MOL
REMARK 923 INTER-LIGAND FREE ENERGY PREDICTED BY IDOCK:   -8.18 KCAL/MOL
REMARK 924 INTRA-LIGAND FREE ENERGY PREDICTED BY IDOCK:   -0.91 KCAL/MOL
REMARK 927      BINDING AFFINITY PREDICTED BY RF-SCORE:    0.00 PKD
ROOT
HETATM    1  CA  UNL     1      -7.179  18.497  68.724  1.00  0.00    -0.296 C  
HETATM    2  C   UNL     1      -6.401  17.200  69.170  1.00  0.00    -0.220 C  
HETATM    3  N   UNL     1      -6.604  19.676  69.466  1.00  0.00    -0.340 NA 
HETATM    4  OXT UNL     1      -7.095  16.141  69.170  1.00  0.00    -0.184 OA 
HETATM    5  H2  UNL     1      -6.983  20.567  69.144  1.00  0.00     0.000 HD 
HETATM    6  O   UNL     1      -5.192  17.382  69.482  1.00  0.00    -0.159 OA 
HETATM    7  H1  UNL     1      -6.750  19.523  70.464  1.00  0.00     0.000 HD 
ENDROOT
BRANCH   1   8
HETATM    8  C   UNL     1      -6.961  18.726  67.230  1.00  0.00    -0.210 C  
BRANCH   8   9
HETATM    9  C   UNL     1      -8.223  18.585  66.375  1.00  0.00    -0.268 C  
BRANCH   9  10
HETATM   10  S   UNL     1      -9.659  19.397  67.212  1.00  0.00    -0.344 S  
HETATM   11  C   UNL     1     -10.468  19.934  65.676  1.00  0.00    -0.341 C  
BRANCH  10  12
HETATM   12  C   UNL     1     -10.654  17.866  67.458  1.00  0.00    -0.376 C  
BRANCH  12  13
HETATM   13  C   UNL     1     -10.169  16.748  66.524  1.00  0.00    -0.316 C  
HETATM   14  O   UNL     1      -9.762  15.593  67.284  1.00  0.00    -0.217 OA 
HETATM   15  C   UNL     1      -9.753  14.499  66.370  1.00  0.00    -0.296 C  
HETATM   16  C   UNL     1     -10.986  14.711  65.486  1.00  0.00    -0.340 C  
HETATM   17  H   UNL     1     -11.854  16.520  63.712  1.00  0.00     0.000 HD 
HETATM   18  O   UNL     1     -10.761  14.313  64.127  1.00  0.00    -0.528 OA 
HETATM   19  C   UNL     1     -11.252  16.221  65.578  1.00  0.00     0.101 C  
HETATM   20  O   UNL     1     -11.182  16.847  64.299  1.00  0.00    -1.204 OA 
HETATM   21  H   UNL     1     -11.525  14.445  63.579  1.00  0.00     0.000 HD 
BRANCH  15  22
HETATM   22  N   UNL     1      -9.704  13.254  67.109  1.00  0.00    -0.230 NA 
HETATM   23  C   UNL     1      -9.042  12.112  66.740  1.00  0.00    -0.205 A  
HETATM   24  C   UNL     1     -10.379  11.561  68.311  1.00  0.00    -0.197 A  
HETATM   25  N   UNL     1      -9.434  11.066  67.441  1.00  0.00    -0.159 NA 
HETATM   26  C   UNL     1     -11.204  10.946  69.268  1.00  0.00    -0.265 A  
HETATM   27  N   UNL     1     -11.998  11.729  70.035  1.00  0.00    -0.341 NA 
HETATM   28  N   UNL     1     -11.267   9.572  69.452  1.00  0.00    -0.431 NA 
HETATM   29  H2  UNL     1     -10.315   9.245  69.617  1.00  0.00     0.000 HD 
HETATM   30  C   UNL     1     -12.000  13.059  69.805  1.00  0.00    -0.308 A  
HETATM   31  H1  UNL     1     -11.866   9.126  70.147  1.00  0.00     0.000 HD 
HETATM   32  N   UNL     1     -11.326  13.753  68.862  1.00  0.00    -0.270 NA 
HETATM   33  C   UNL     1     -10.518  12.932  68.162  1.00  0.00    -0.237 A  
ENDBRANCH  15  22
ENDBRANCH  12  13
ENDBRANCH  10  12
ENDBRANCH   9  10
ENDBRANCH   8   9
ENDBRANCH   1   8
TORSDOF 6
ENDMDL
MODEL       76
REMARK 921   NORMALIZED FREE ENERGY PREDICTED BY IDOCK:   -5.66 KCAL/MOL
REMARK 922        TOTAL FREE ENERGY PREDICTED BY IDOCK:   -9.07 KCAL/MOL
REMARK 923 INTER-LIGAND FREE ENERGY PREDICTED BY IDOCK:   -7.52 KCAL/MOL
REMARK 924 INTRA-LIGAND FREE ENERGY PREDICTED BY IDOCK:   -1.54 KCAL/MOL
REMARK 927      BINDING AFFINITY PREDICTED BY RF-SCORE:    0.00 PKD
ROOT
HETATM    1  CA  UNL     1      -8.916   9.487  64.800  1.00  0.00    -0.218 C  
HETATM    2  C   UNL     1      -7.662   9.937  65.643  1.00  0.00    -0.121 C  
HETATM    3  N   UNL     1     -10.085   9.317  65.736  1.00  0.00    -0.376 NA 
HETATM    4  OXT UNL     1      -6.550   9.528  65.198  1.00  0.00    -0.076 OA 
HETATM    5  H2  UNL     1     -10.960   9.136  65.245  1.00  0.00     0.000 HD 
HETATM    6  O   UNL     1      -7.926  10.637  66.661  1.00  0.00    -0.123 OA 
HETATM    7  H1  UNL     1      -9.849   8.585  66.406  1.00  0.00     0.000 HD 
ENDROOT
BRANCH   1   8
HETATM    8  C   UNL     1      -9.268  10.583  63.798  1.00  0.00    -0.292 C  
BRANCH   8   9
HETATM    9  C   UNL     1     -10.733  11.029  63.832  1.00  0.00    -0.240 C  
BRANCH   9  10
HETATM   10  S   UNL     1     -10.841  12.867  63.995  1.00  0.00    -0.377 S  
HETATM   11  C   UNL     1     -12.561  12.884  64.581  1.00  0.00    -0.391 C  
BRANCH  10  12
HETATM   12  C   UNL     1     -10.046  12.979  65.654  1.00  0.00    -0.268 C  
BRANCH  12  13
HETATM   13  C   UNL     1     -11.093  12.843  66.767  1.00  0.00    -0.281 C  
HETATM   14  O   UNL     1     -10.864  11.646  67.536  1.00  0.00    -0.213 OA 
HETATM   15  C   UNL     1     -11.568  11.820  68.763  1.00  0.00    -0.307 C  
HETATM   16  C   UNL     1     -11.350  13.289  69.140  1.00  0.00    -0.282 C  
HETATM   17  H   UNL     1     -11.973  15.695  68.142  1.00  0.00     0.000 HD 
HETATM   18  O   UNL     1     -12.501  13.871  69.764  1.00  0.00    -0.311 OA 
HETATM   19  C   UNL     1     -11.048  13.974  67.799  1.00  0.00    -0.267 C  
HETATM   20  O   UNL     1     -12.001  14.993  67.502  1.00  0.00    -0.272 OA 
HETATM   21  H   UNL     1     -12.367  14.782  69.998  1.00  0.00     0.000 HD 
BRANCH  15  22
HETATM   22  N   UNL     1     -11.110  10.840  69.726  1.00  0.00    -0.273 NA 
HETATM   23  C   UNL     1      -9.982  10.068  69.630  1.00  0.00    -0.236 A  
HETATM   24  C   UNL     1     -11.179   9.206  71.173  1.00  0.00    -0.325 A  
HETATM   25  N   UNL     1      -9.996   9.064  70.485  1.00  0.00    -0.200 NA 
HETATM   26  C   UNL     1     -11.801   8.429  72.165  1.00  0.00    -0.375 A  
HETATM   27  N   UNL     1     -12.956   8.880  72.709  1.00  0.00    -0.299 NA 
HETATM   28  N   UNL     1     -11.306   7.208  72.600  1.00  0.00    -0.387 NA 
HETATM   29  H2  UNL     1     -10.341   7.360  72.894  1.00  0.00     0.000 HD 
HETATM   30  C   UNL     1     -13.483  10.026  72.232  1.00  0.00    -0.246 A  
HETATM   31  H1  UNL     1     -11.757   6.645  73.321  1.00  0.00     0.000 HD 
HETATM   32  N   UNL     1     -13.032  10.809  71.228  1.00  0.00    -0.400 NA 
HETATM   33  C   UNL     1     -11.860  10.340  70.757  1.00  0.00    -0.365 A  
ENDBRANCH  15  22
ENDBRANCH  12  13
ENDBRANCH  10  12
ENDBRANCH   9  10
ENDBRANCH   8   9
ENDBRANCH   1   8
TORSDOF 6
ENDMDL
MODEL       77
REMARK 921   NORMALIZED FREE ENERGY PREDICTED BY IDOCK:   -5.61 KCAL/MOL
REMARK 922        TOTAL FREE ENERGY PREDICTED BY IDOCK:   -9.00 KCAL/MOL
REMARK 923 INTER-LIGAND FREE ENERGY PREDICTED BY IDOCK:   -8.78 KCAL/MOL
REMARK 924 INTRA-LIGAND FREE ENERGY PREDICTED BY IDOCK:   -0.22 KCAL/MOL
REMARK 927      BINDING AFFINITY PREDICTED BY RF-SCORE:    0.00 PKD
ROOT
HETATM    1  CA  UNL     1     -12.717  14.078  72.495  1.00  0.00    -0.229 C  
HETATM    2  C   UNL     1     -13.075  15.186  71.432  1.00  0.00    -0.423 C  
HETATM    3  N   UNL     1     -13.027  14.617  73.868  1.00  0.00    -0.380 NA 
HETATM    4  OXT UNL     1     -12.344  15.183  70.398  1.00  0.00    -0.319 OA 
HETATM    5  H2  UNL     1     -12.926  13.913  74.599  1.00  0.00     0.000 HD 
HETATM    6  O   UNL     1     -14.034  15.943  71.750  1.00  0.00    -0.370 OA 
HETATM    7  H1  UNL     1     -12.439  15.436  74.025  1.00  0.00     0.000 HD 
ENDROOT
BRANCH   1   8
HETATM    8  C   UNL     1     -13.596  12.852  72.259  1.00  0.00    -0.611 C  
BRANCH   8   9
HETATM    9  C   UNL     1     -13.009  11.828  71.283  1.00  0.00    -0.254 C  
BRANCH   9  10
HETATM   10  S   UNL     1     -12.720  10.216  72.143  1.00  0.00    -0.075 S  
HETATM   11  C   UNL     1     -13.767   9.238  71.025  1.00  0.00     0.001 C  
BRANCH  10  12
HETATM   12  C   UNL     1     -11.113   9.828  71.330  1.00  0.00    -0.304 C  
BRANCH  12  13
HETATM   13  C   UNL     1     -11.305   9.614  69.822  1.00  0.00    -0.120 C  
HETATM   14  O   UNL     1     -11.695  10.845  69.182  1.00  0.00    -0.292 OA 
HETATM   15  C   UNL     1     -11.428  10.671  67.791  1.00  0.00    -0.137 C  
HETATM   16  C   UNL     1     -10.100   9.910  67.735  1.00  0.00    -0.180 C  
HETATM   17  H   UNL     1      -9.169   7.511  68.478  1.00  0.00     0.000 HD 
HETATM   18  O   UNL     1     -10.053   8.971  66.654  1.00  0.00    -0.255 OA 
HETATM   19  C   UNL     1     -10.029   9.190  69.091  1.00  0.00    -0.187 C  
HETATM   20  O   UNL     1      -9.961   7.774  68.931  1.00  0.00    -0.172 OA 
HETATM   21  H   UNL     1      -9.230   8.498  66.619  1.00  0.00     0.000 HD 
BRANCH  15  22
HETATM   22  N   UNL     1     -11.453  11.960  67.131  1.00  0.00    -0.432 NA 
HETATM   23  C   UNL     1     -11.750  13.167  67.708  1.00  0.00    -0.358 A  
HETATM   24  C   UNL     1     -11.837  13.465  65.596  1.00  0.00    -0.370 A  
HETATM   25  N   UNL     1     -11.998  14.098  66.807  1.00  0.00    -0.431 NA 
HETATM   26  C   UNL     1     -12.014  13.893  64.269  1.00  0.00    -0.444 A  
HETATM   27  N   UNL     1     -11.700  13.038  63.267  1.00  0.00    -0.429 NA 
HETATM   28  N   UNL     1     -12.521  15.139  63.931  1.00  0.00    -1.018 NA 
HETATM   29  H2  UNL     1     -11.945  15.838  64.400  1.00  0.00     0.000 HD 
HETATM   30  C   UNL     1     -11.283  11.797  63.592  1.00  0.00    -0.435 A  
HETATM   31  H1  UNL     1     -12.650  15.449  62.967  1.00  0.00     0.000 HD 
HETATM   32  N   UNL     1     -11.159  11.242  64.818  1.00  0.00    -0.194 NA 
HETATM   33  C   UNL     1     -11.439  12.149  65.775  1.00  0.00    -0.361 A  
ENDBRANCH  15  22
ENDBRANCH  12  13
ENDBRANCH  10  12
ENDBRANCH   9  10
ENDBRANCH   8   9
ENDBRANCH   1   8
TORSDOF 6
ENDMDL
MODEL       78
REMARK 921   NORMALIZED FREE ENERGY PREDICTED BY IDOCK:   -5.61 KCAL/MOL
REMARK 922        TOTAL FREE ENERGY PREDICTED BY IDOCK:   -9.00 KCAL/MOL
REMARK 923 INTER-LIGAND FREE ENERGY PREDICTED BY IDOCK:   -8.49 KCAL/MOL
REMARK 924 INTRA-LIGAND FREE ENERGY PREDICTED BY IDOCK:   -0.51 KCAL/MOL
REMARK 927      BINDING AFFINITY PREDICTED BY RF-SCORE:    0.00 PKD
ROOT
HETATM    1  CA  UNL     1      -8.799  10.577  63.904  1.00  0.00    -0.194 C  
HETATM    2  C   UNL     1      -8.428   9.094  63.518  1.00  0.00    -0.189 C  
HETATM    3  N   UNL     1      -8.721  11.427  62.662  1.00  0.00    -0.566 NA 
HETATM    4  OXT UNL     1      -7.847   8.439  64.432  1.00  0.00    -0.125 OA 
HETATM    5  H2  UNL     1      -9.058  12.377  62.814  1.00  0.00     0.000 HD 
HETATM    6  O   UNL     1      -8.745   8.752  62.345  1.00  0.00    -0.214 OA 
HETATM    7  H1  UNL     1      -7.761  11.399  62.320  1.00  0.00     0.000 HD 
ENDROOT
BRANCH   1   8
HETATM    8  C   UNL     1     -10.236  10.619  64.417  1.00  0.00    -0.400 C  
BRANCH   8   9
HETATM    9  C   UNL     1     -10.469  11.592  65.576  1.00  0.00    -0.273 C  
BRANCH   9  10
HETATM   10  S   UNL     1     -11.071  13.219  64.936  1.00  0.00    -0.346 S  
HETATM   11  C   UNL     1     -12.430  12.521  63.952  1.00  0.00    -0.445 C  
BRANCH  10  12
HETATM   12  C   UNL     1     -12.079  13.668  66.411  1.00  0.00    -0.433 C  
BRANCH  12  13
HETATM   13  C   UNL     1     -11.175  14.088  67.578  1.00  0.00    -0.309 C  
HETATM   14  O   UNL     1     -10.132  14.970  67.120  1.00  0.00    -0.237 OA 
HETATM   15  C   UNL     1      -9.636  15.636  68.279  1.00  0.00    -0.200 C  
HETATM   16  C   UNL     1     -10.877  15.936  69.125  1.00  0.00    -0.268 C  
HETATM   17  H   UNL     1     -12.768  14.545  70.416  1.00  0.00     0.000 HD 
HETATM   18  O   UNL     1     -10.623  15.820  70.531  1.00  0.00    -0.294 OA 
HETATM   19  C   UNL     1     -11.901  14.887  68.664  1.00  0.00    -0.300 C  
HETATM   20  O   UNL     1     -12.317  14.050  69.742  1.00  0.00    -0.336 OA 
HETATM   21  H   UNL     1     -11.393  16.005  71.056  1.00  0.00     0.000 HD 
BRANCH  15  22
HETATM   22  N   UNL     1      -8.846  16.781  67.877  1.00  0.00    -0.215 NA 
HETATM   23  C   UNL     1      -7.519  16.991  68.143  1.00  0.00    -0.195 A  
HETATM   24  C   UNL     1      -8.311  18.862  67.488  1.00  0.00    -0.273 A  
HETATM   25  N   UNL     1      -7.163  18.243  67.929  1.00  0.00    -0.224 NA 
HETATM   26  C   UNL     1      -8.602  20.196  67.152  1.00  0.00    -0.343 A  
HETATM   27  N   UNL     1      -9.834  20.486  66.673  1.00  0.00    -0.352 NA 
HETATM   28  N   UNL     1      -7.699  21.237  67.310  1.00  0.00    -0.694 NA 
HETATM   29  H2  UNL     1      -6.847  20.978  66.812  1.00  0.00     0.000 HD 
HETATM   30  C   UNL     1     -10.741  19.491  66.594  1.00  0.00    -0.445 A  
HETATM   31  H1  UNL     1      -7.911  22.204  67.066  1.00  0.00     0.000 HD 
HETATM   32  N   UNL     1     -10.612  18.199  66.968  1.00  0.00    -0.363 NA 
HETATM   33  C   UNL     1      -9.355  17.956  67.391  1.00  0.00    -0.257 A  
ENDBRANCH  15  22
ENDBRANCH  12  13
ENDBRANCH  10  12
ENDBRANCH   9  10
ENDBRANCH   8   9
ENDBRANCH   1   8
TORSDOF 6
ENDMDL
MODEL       79
REMARK 921   NORMALIZED FREE ENERGY PREDICTED BY IDOCK:   -5.61 KCAL/MOL
REMARK 922        TOTAL FREE ENERGY PREDICTED BY IDOCK:   -8.99 KCAL/MOL
REMARK 923 INTER-LIGAND FREE ENERGY PREDICTED BY IDOCK:   -7.93 KCAL/MOL
REMARK 924 INTRA-LIGAND FREE ENERGY PREDICTED BY IDOCK:   -1.06 KCAL/MOL
REMARK 927      BINDING AFFINITY PREDICTED BY RF-SCORE:    0.00 PKD
ROOT
HETATM    1  CA  UNL     1     -12.918  15.112  71.018  1.00  0.00    -0.431 C  
HETATM    2  C   UNL     1     -13.251  14.357  72.361  1.00  0.00    -0.440 C  
HETATM    3  N   UNL     1     -12.123  16.349  71.350  1.00  0.00    -0.561 NA 
HETATM    4  OXT UNL     1     -14.353  13.733  72.358  1.00  0.00    -0.664 OA 
HETATM    5  H2  UNL     1     -11.775  16.828  70.520  1.00  0.00     0.000 HD 
HETATM    6  O   UNL     1     -12.385  14.479  73.272  1.00  0.00    -0.276 OA 
HETATM    7  H1  UNL     1     -12.704  16.948  71.937  1.00  0.00     0.000 HD 
ENDROOT
BRANCH   1   8
HETATM    8  C   UNL     1     -12.050  14.215  70.138  1.00  0.00    -0.411 C  
BRANCH   8   9
HETATM    9  C   UNL     1     -10.786  14.889  69.595  1.00  0.00    -0.229 C  
BRANCH   9  10
HETATM   10  S   UNL     1     -10.880  15.038  67.754  1.00  0.00    -0.292 S  
HETATM   11  C   UNL     1     -10.583  16.831  67.715  1.00  0.00    -0.341 C  
BRANCH  10  12
HETATM   12  C   UNL     1      -9.145  14.523  67.411  1.00  0.00    -0.196 C  
BRANCH  12  13
HETATM   13  C   UNL     1      -9.103  13.093  66.856  1.00  0.00    -0.229 C  
HETATM   14  O   UNL     1      -9.225  12.131  67.922  1.00  0.00    -0.175 OA 
HETATM   15  C   UNL     1      -9.610  10.903  67.308  1.00  0.00    -0.164 C  
HETATM   16  C   UNL     1     -10.615  11.301  66.223  1.00  0.00    -0.263 C  
HETATM   17  H   UNL     1     -10.608  12.730  63.957  1.00  0.00     0.000 HD 
HETATM   18  O   UNL     1     -10.504  10.486  65.048  1.00  0.00    -0.286 OA 
HETATM   19  C   UNL     1     -10.262  12.763  65.910  1.00  0.00    -0.287 C  
HETATM   20  O   UNL     1      -9.889  12.935  64.544  1.00  0.00    -0.161 OA 
HETATM   21  H   UNL     1     -11.127  10.733  64.375  1.00  0.00     0.000 HD 
BRANCH  15  22
HETATM   22  N   UNL     1     -10.095   9.988  68.321  1.00  0.00    -0.153 NA 
HETATM   23  C   UNL     1     -10.077  10.189  69.676  1.00  0.00    -0.234 A  
HETATM   24  C   UNL     1     -10.466   8.111  69.374  1.00  0.00    -0.220 A  
HETATM   25  N   UNL     1     -10.289   9.071  70.344  1.00  0.00    -0.199 NA 
HETATM   26  C   UNL     1     -10.668   6.722  69.436  1.00  0.00    -0.255 A  
HETATM   27  N   UNL     1     -10.884   6.048  68.283  1.00  0.00    -0.290 NA 
HETATM   28  N   UNL     1     -10.630   5.999  70.620  1.00  0.00    -0.244 NA 
HETATM   29  H2  UNL     1     -11.296   6.431  71.260  1.00  0.00     0.000 HD 
HETATM   30  C   UNL     1     -10.841   6.735  67.122  1.00  0.00    -0.392 A  
HETATM   31  H1  UNL     1     -10.777   4.990  70.665  1.00  0.00     0.000 HD 
HETATM   32  N   UNL     1     -10.570   8.044  66.926  1.00  0.00    -0.324 NA 
HETATM   33  C   UNL     1     -10.410   8.673  68.107  1.00  0.00    -0.216 A  
ENDBRANCH  15  22
ENDBRANCH  12  13
ENDBRANCH  10  12
ENDBRANCH   9  10
ENDBRANCH   8   9
ENDBRANCH   1   8
TORSDOF 6
ENDMDL
MODEL       80
REMARK 921   NORMALIZED FREE ENERGY PREDICTED BY IDOCK:   -5.58 KCAL/MOL
REMARK 922        TOTAL FREE ENERGY PREDICTED BY IDOCK:   -8.96 KCAL/MOL
REMARK 923 INTER-LIGAND FREE ENERGY PREDICTED BY IDOCK:   -7.79 KCAL/MOL
REMARK 924 INTRA-LIGAND FREE ENERGY PREDICTED BY IDOCK:   -1.17 KCAL/MOL
REMARK 927      BINDING AFFINITY PREDICTED BY RF-SCORE:    0.00 PKD
ROOT
HETATM    1  CA  UNL     1     -12.281  12.103  64.399  1.00  0.00    -0.346 C  
HETATM    2  C   UNL     1     -12.605  13.615  64.705  1.00  0.00    -0.295 C  
HETATM    3  N   UNL     1     -12.870  11.752  63.056  1.00  0.00    -0.884 NA 
HETATM    4  OXT UNL     1     -12.764  13.884  65.932  1.00  0.00    -0.489 OA 
HETATM    5  H2  UNL     1     -12.602  10.820  62.741  1.00  0.00     0.000 HD 
HETATM    6  O   UNL     1     -12.677  14.363  63.690  1.00  0.00    -0.773 OA 
HETATM    7  H1  UNL     1     -13.881  11.874  63.113  1.00  0.00     0.000 HD 
ENDROOT
BRANCH   1   8
HETATM    8  C   UNL     1     -10.768  11.920  64.314  1.00  0.00    -0.388 C  
BRANCH   8   9
HETATM    9  C   UNL     1     -10.230  10.711  65.086  1.00  0.00    -0.299 C  
BRANCH   9  10
HETATM   10  S   UNL     1      -9.825  11.190  66.826  1.00  0.00    -0.205 S  
HETATM   11  C   UNL     1      -9.574   9.489  67.415  1.00  0.00    -0.141 C  
BRANCH  10  12
HETATM   12  C   UNL     1      -8.049  11.580  66.529  1.00  0.00    -0.112 C  
BRANCH  12  13
HETATM   13  C   UNL     1      -7.696  12.965  67.090  1.00  0.00    -0.050 C  
HETATM   14  O   UNL     1      -8.392  13.998  66.365  1.00  0.00     0.275 OA 
HETATM   15  C   UNL     1      -8.360  15.156  67.195  1.00  0.00    -0.219 C  
HETATM   16  C   UNL     1      -8.583  14.631  68.617  1.00  0.00    -0.172 C  
HETATM   17  H   UNL     1      -7.311  13.036  70.353  1.00  0.00     0.000 HD 
HETATM   18  O   UNL     1      -7.829  15.359  69.594  1.00  0.00    -0.221 OA 
HETATM   19  C   UNL     1      -8.122  13.167  68.547  1.00  0.00    -0.087 C  
HETATM   20  O   UNL     1      -7.047  12.910  69.449  1.00  0.00     0.027 OA 
HETATM   21  H   UNL     1      -7.967  15.033  70.476  1.00  0.00     0.000 HD 
BRANCH  15  22
HETATM   22  N   UNL     1      -9.326  16.122  66.713  1.00  0.00    -0.222 NA 
HETATM   23  C   UNL     1     -10.199  15.952  65.671  1.00  0.00    -0.379 A  
HETATM   24  C   UNL     1     -10.172  18.041  66.107  1.00  0.00    -0.363 A  
HETATM   25  N   UNL     1     -10.722  17.095  65.272  1.00  0.00    -0.619 NA 
HETATM   26  C   UNL     1     -10.282  19.442  66.159  1.00  0.00    -0.484 A  
HETATM   27  N   UNL     1      -9.662  20.101  67.165  1.00  0.00    -0.411 NA 
HETATM   28  N   UNL     1     -10.971  20.188  65.214  1.00  0.00    -0.099 NA 
HETATM   29  H2  UNL     1     -11.918  19.812  65.163  1.00  0.00     0.000 HD 
HETATM   30  C   UNL     1      -8.924  19.386  68.039  1.00  0.00    -0.322 A  
HETATM   31  H1  UNL     1     -11.050  21.205  65.252  1.00  0.00     0.000 HD 
HETATM   32  N   UNL     1      -8.670  18.059  68.043  1.00  0.00    -0.255 NA 
HETATM   33  C   UNL     1      -9.348  17.449  67.051  1.00  0.00    -0.260 A  
ENDBRANCH  15  22
ENDBRANCH  12  13
ENDBRANCH  10  12
ENDBRANCH   9  10
ENDBRANCH   8   9
ENDBRANCH   1   8
TORSDOF 6
ENDMDL
MODEL       81
REMARK 921   NORMALIZED FREE ENERGY PREDICTED BY IDOCK:   -5.58 KCAL/MOL
REMARK 922        TOTAL FREE ENERGY PREDICTED BY IDOCK:   -8.96 KCAL/MOL
REMARK 923 INTER-LIGAND FREE ENERGY PREDICTED BY IDOCK:   -7.49 KCAL/MOL
REMARK 924 INTRA-LIGAND FREE ENERGY PREDICTED BY IDOCK:   -1.46 KCAL/MOL
REMARK 927      BINDING AFFINITY PREDICTED BY RF-SCORE:    0.00 PKD
ROOT
HETATM    1  CA  UNL     1      -8.074  13.685  67.116  1.00  0.00    -0.077 C  
HETATM    2  C   UNL     1      -7.002  12.550  67.338  1.00  0.00    -0.147 C  
HETATM    3  N   UNL     1      -9.319  13.060  66.540  1.00  0.00    -0.331 NA 
HETATM    4  OXT UNL     1      -5.801  12.922  67.197  1.00  0.00    -0.339 OA 
HETATM    5  H2  UNL     1     -10.096  13.717  66.475  1.00  0.00     0.000 HD 
HETATM    6  O   UNL     1      -7.477  11.413  67.615  1.00  0.00    -0.095 OA 
HETATM    7  H1  UNL     1      -9.077  12.646  65.640  1.00  0.00     0.000 HD 
ENDROOT
BRANCH   1   8
HETATM    8  C   UNL     1      -8.436  14.305  68.463  1.00  0.00    -0.164 C  
BRANCH   8   9
HETATM    9  C   UNL     1      -8.486  15.836  68.464  1.00  0.00    -0.181 C  
BRANCH   9  10
HETATM   10  S   UNL     1     -10.050  16.426  69.256  1.00  0.00    -0.256 S  
HETATM   11  C   UNL     1     -10.082  18.026  68.395  1.00  0.00    -0.387 C  
BRANCH  10  12
HETATM   12  C   UNL     1     -11.206  15.546  68.123  1.00  0.00    -0.343 C  
BRANCH  12  13
HETATM   13  C   UNL     1     -12.108  14.585  68.909  1.00  0.00    -0.237 C  
HETATM   14  O   UNL     1     -11.596  13.239  68.841  1.00  0.00    -0.270 OA 
HETATM   15  C   UNL     1     -12.210  12.526  69.913  1.00  0.00    -0.163 C  
HETATM   16  C   UNL     1     -12.233  13.513  71.084  1.00  0.00    -0.194 C  
HETATM   17  H   UNL     1     -13.372  15.869  71.657  1.00  0.00     0.000 HD 
HETATM   18  O   UNL     1     -13.412  13.382  71.888  1.00  0.00    -0.414 OA 
HETATM   19  C   UNL     1     -12.181  14.891  70.407  1.00  0.00    -0.336 C  
HETATM   20  O   UNL     1     -13.327  15.678  70.727  1.00  0.00    -0.535 OA 
HETATM   21  H   UNL     1     -13.426  13.994  72.614  1.00  0.00     0.000 HD 
BRANCH  15  22
HETATM   22  N   UNL     1     -11.497  11.286  70.138  1.00  0.00    -0.282 NA 
HETATM   23  C   UNL     1     -10.396  10.842  69.453  1.00  0.00    -0.179 A  
HETATM   24  C   UNL     1     -11.155   9.166  70.537  1.00  0.00    -0.260 A  
HETATM   25  N   UNL     1     -10.166   9.560  69.664  1.00  0.00    -0.204 NA 
HETATM   26  C   UNL     1     -11.490   7.920  71.094  1.00  0.00    -0.273 A  
HETATM   27  N   UNL     1     -12.496   7.866  71.996  1.00  0.00    -0.311 NA 
HETATM   28  N   UNL     1     -10.858   6.735  70.746  1.00  0.00    -0.239 NA 
HETATM   29  H2  UNL     1      -9.858   6.871  70.888  1.00  0.00     0.000 HD 
HETATM   30  C   UNL     1     -13.166   9.002  72.277  1.00  0.00    -0.460 A  
HETATM   31  H1  UNL     1     -11.102   5.830  71.150  1.00  0.00     0.000 HD 
HETATM   32  N   UNL     1     -13.000  10.233  71.746  1.00  0.00    -0.444 NA 
HETATM   33  C   UNL     1     -11.958  10.239  70.892  1.00  0.00    -0.375 A  
ENDBRANCH  15  22
ENDBRANCH  12  13
ENDBRANCH  10  12
ENDBRANCH   9  10
ENDBRANCH   8   9
ENDBRANCH   1   8
TORSDOF 6
ENDMDL
MODEL       82
REMARK 921   NORMALIZED FREE ENERGY PREDICTED BY IDOCK:   -5.58 KCAL/MOL
REMARK 922        TOTAL FREE ENERGY PREDICTED BY IDOCK:   -8.95 KCAL/MOL
REMARK 923 INTER-LIGAND FREE ENERGY PREDICTED BY IDOCK:   -7.95 KCAL/MOL
REMARK 924 INTRA-LIGAND FREE ENERGY PREDICTED BY IDOCK:   -1.01 KCAL/MOL
REMARK 927      BINDING AFFINITY PREDICTED BY RF-SCORE:    0.00 PKD
ROOT
HETATM    1  CA  UNL     1     -13.175  14.981  70.683  1.00  0.00    -0.295 C  
HETATM    2  C   UNL     1     -12.995  15.496  72.162  1.00  0.00    -0.422 C  
HETATM    3  N   UNL     1     -12.772  16.085  69.740  1.00  0.00    -0.546 NA 
HETATM    4  OXT UNL     1     -13.819  15.015  72.994  1.00  0.00    -0.473 OA 
HETATM    5  H2  UNL     1     -12.755  15.785  68.766  1.00  0.00     0.000 HD 
HETATM    6  O   UNL     1     -12.062  16.330  72.328  1.00  0.00    -0.504 OA 
HETATM    7  H1  UNL     1     -13.395  16.877  69.898  1.00  0.00     0.000 HD 
ENDROOT
BRANCH   1   8
HETATM    8  C   UNL     1     -12.243  13.794  70.447  1.00  0.00    -0.433 C  
BRANCH   8   9
HETATM    9  C   UNL     1     -11.299  13.956  69.251  1.00  0.00    -0.272 C  
BRANCH   9  10
HETATM   10  S   UNL     1     -11.739  12.751  67.920  1.00  0.00    -0.345 S  
HETATM   11  C   UNL     1     -12.143  14.013  66.677  1.00  0.00    -0.456 C  
BRANCH  10  12
HETATM   12  C   UNL     1     -10.017  12.428  67.349  1.00  0.00    -0.202 C  
BRANCH  12  13
HETATM   13  C   UNL     1      -9.678  10.935  67.466  1.00  0.00    -0.167 C  
HETATM   14  O   UNL     1      -9.943  10.458  68.799  1.00  0.00    -0.171 OA 
HETATM   15  C   UNL     1     -10.024   9.037  68.704  1.00  0.00    -0.172 C  
HETATM   16  C   UNL     1     -10.775   8.770  67.396  1.00  0.00    -0.146 C  
HETATM   17  H   UNL     1     -10.383   9.181  64.778  1.00  0.00     0.000 HD 
HETATM   18  O   UNL     1     -10.290   7.606  66.714  1.00  0.00    -0.353 OA 
HETATM   19  C   UNL     1     -10.527  10.037  66.562  1.00  0.00    -0.153 C  
HETATM   20  O   UNL     1      -9.857   9.739  65.339  1.00  0.00    -0.306 OA 
HETATM   21  H   UNL     1     -10.755   7.441  65.902  1.00  0.00     0.000 HD 
BRANCH  15  22
HETATM   22  N   UNL     1     -10.632   8.507  69.907  1.00  0.00    -0.227 NA 
HETATM   23  C   UNL     1     -11.141   9.233  70.952  1.00  0.00    -0.306 A  
HETATM   24  C   UNL     1     -10.946   7.223  71.646  1.00  0.00    -0.226 A  
HETATM   25  N   UNL     1     -11.334   8.489  72.023  1.00  0.00    -0.330 NA 
HETATM   26  C   UNL     1     -10.856   6.008  72.345  1.00  0.00    -0.247 A  
HETATM   27  N   UNL     1     -10.499   4.895  71.663  1.00  0.00    -0.167 NA 
HETATM   28  N   UNL     1     -11.090   5.893  73.708  1.00  0.00    -0.375 NA 
HETATM   29  H2  UNL     1     -12.016   6.281  73.890  1.00  0.00     0.000 HD 
HETATM   30  C   UNL     1     -10.193   5.017  70.355  1.00  0.00    -0.254 A  
HETATM   31  H1  UNL     1     -11.025   5.011  74.216  1.00  0.00     0.000 HD 
HETATM   32  N   UNL     1     -10.154   6.135  69.598  1.00  0.00    -0.170 NA 
HETATM   33  C   UNL     1     -10.562   7.201  70.313  1.00  0.00    -0.227 A  
ENDBRANCH  15  22
ENDBRANCH  12  13
ENDBRANCH  10  12
ENDBRANCH   9  10
ENDBRANCH   8   9
ENDBRANCH   1   8
TORSDOF 6
ENDMDL
MODEL       83
REMARK 921   NORMALIZED FREE ENERGY PREDICTED BY IDOCK:   -5.57 KCAL/MOL
REMARK 922        TOTAL FREE ENERGY PREDICTED BY IDOCK:   -8.94 KCAL/MOL
REMARK 923 INTER-LIGAND FREE ENERGY PREDICTED BY IDOCK:   -7.96 KCAL/MOL
REMARK 924 INTRA-LIGAND FREE ENERGY PREDICTED BY IDOCK:   -0.98 KCAL/MOL
REMARK 927      BINDING AFFINITY PREDICTED BY RF-SCORE:    0.00 PKD
ROOT
HETATM    1  CA  UNL     1     -10.735  12.224  63.794  1.00  0.00    -0.449 C  
HETATM    2  C   UNL     1     -12.277  12.088  64.092  1.00  0.00    -0.359 C  
HETATM    3  N   UNL     1     -10.172  13.308  64.677  1.00  0.00    -0.566 NA 
HETATM    4  OXT UNL     1     -12.980  11.745  63.097  1.00  0.00    -0.576 OA 
HETATM    5  H2  UNL     1      -9.156  13.374  64.620  1.00  0.00     0.000 HD 
HETATM    6  O   UNL     1     -12.617  12.350  65.279  1.00  0.00    -0.636 OA 
HETATM    7  H1  UNL     1     -10.639  14.183  64.440  1.00  0.00     0.000 HD 
ENDROOT
BRANCH   1   8
HETATM    8  C   UNL     1     -10.036  10.914  64.148  1.00  0.00    -0.416 C  
BRANCH   8   9
HETATM    9  C   UNL     1      -9.409  10.886  65.545  1.00  0.00    -0.206 C  
BRANCH   9  10
HETATM   10  S   UNL     1     -10.224   9.595  66.588  1.00  0.00    -0.212 S  
HETATM   11  C   UNL     1      -9.346   8.192  65.836  1.00  0.00    -0.056 C  
BRANCH  10  12
HETATM   12  C   UNL     1      -9.122   9.779  68.053  1.00  0.00    -0.125 C  
BRANCH  12  13
HETATM   13  C   UNL     1      -9.677  10.833  69.020  1.00  0.00    -0.187 C  
HETATM   14  O   UNL     1      -9.707  12.131  68.394  1.00  0.00    -0.209 OA 
HETATM   15  C   UNL     1     -10.608  12.923  69.164  1.00  0.00     0.049 C  
HETATM   16  C   UNL     1     -11.758  11.978  69.525  1.00  0.00    -0.342 C  
HETATM   17  H   UNL     1     -12.096   9.740  70.957  1.00  0.00     0.000 HD 
HETATM   18  O   UNL     1     -12.282  12.228  70.836  1.00  0.00    -0.389 OA 
HETATM   19  C   UNL     1     -11.127  10.580  69.444  1.00  0.00    -0.258 C  
HETATM   20  O   UNL     1     -11.197   9.897  70.694  1.00  0.00    -0.292 OA 
HETATM   21  H   UNL     1     -12.995  11.642  71.060  1.00  0.00     0.000 HD 
BRANCH  15  22
HETATM   22  N   UNL     1     -10.969  14.109  68.414  1.00  0.00    -0.246 NA 
HETATM   23  C   UNL     1     -12.021  14.237  67.547  1.00  0.00    -0.376 A  
HETATM   24  C   UNL     1     -10.740  15.910  67.201  1.00  0.00    -0.301 A  
HETATM   25  N   UNL     1     -11.909  15.312  66.789  1.00  0.00     0.012 NA 
HETATM   26  C   UNL     1     -10.043  17.045  66.750  1.00  0.00    -0.300 A  
HETATM   27  N   UNL     1      -8.932  17.429  67.421  1.00  0.00    -0.229 NA 
HETATM   28  N   UNL     1     -10.421  17.779  65.636  1.00  0.00    -0.628 NA 
HETATM   29  H2  UNL     1     -11.394  18.054  65.769  1.00  0.00     0.000 HD 
HETATM   30  C   UNL     1      -8.516  16.671  68.457  1.00  0.00    -0.233 A  
HETATM   31  H1  UNL     1      -9.915  18.602  65.309  1.00  0.00     0.000 HD 
HETATM   32  N   UNL     1      -9.043  15.518  68.925  1.00  0.00    -0.202 NA 
HETATM   33  C   UNL     1     -10.170  15.210  68.253  1.00  0.00    -0.223 A  
ENDBRANCH  15  22
ENDBRANCH  12  13
ENDBRANCH  10  12
ENDBRANCH   9  10
ENDBRANCH   8   9
ENDBRANCH   1   8
TORSDOF 6
ENDMDL
MODEL       84
REMARK 921   NORMALIZED FREE ENERGY PREDICTED BY IDOCK:   -5.55 KCAL/MOL
REMARK 922        TOTAL FREE ENERGY PREDICTED BY IDOCK:   -8.92 KCAL/MOL
REMARK 923 INTER-LIGAND FREE ENERGY PREDICTED BY IDOCK:   -8.26 KCAL/MOL
REMARK 924 INTRA-LIGAND FREE ENERGY PREDICTED BY IDOCK:   -0.66 KCAL/MOL
REMARK 927      BINDING AFFINITY PREDICTED BY RF-SCORE:    0.00 PKD
ROOT
HETATM    1  CA  UNL     1      -9.996   4.728  65.345  1.00  0.00    -0.093 C  
HETATM    2  C   UNL     1      -9.039   3.524  65.691  1.00  0.00    -0.149 C  
HETATM    3  N   UNL     1     -11.277   4.173  64.777  1.00  0.00    -0.940 NA 
HETATM    4  OXT UNL     1      -7.805   3.775  65.562  1.00  0.00    -0.091 OA 
HETATM    5  H2  UNL     1     -11.988   4.890  64.636  1.00  0.00     0.000 HD 
HETATM    6  O   UNL     1      -9.623   2.460  66.038  1.00  0.00     0.099 OA 
HETATM    7  H1  UNL     1     -11.049   3.668  63.921  1.00  0.00     0.000 HD 
ENDROOT
BRANCH   1   8
HETATM    8  C   UNL     1     -10.336   5.485  66.627  1.00  0.00    -0.322 C  
BRANCH   8   9
HETATM    9  C   UNL     1      -9.519   6.762  66.847  1.00  0.00    -0.156 C  
BRANCH   9  10
HETATM   10  S   UNL     1     -10.294   7.798  68.169  1.00  0.00    -0.182 S  
HETATM   11  C   UNL     1      -9.662   6.804  69.553  1.00  0.00    -0.150 C  
BRANCH  10  12
HETATM   12  C   UNL     1      -8.984   9.093  68.217  1.00  0.00    -0.129 C  
BRANCH  12  13
HETATM   13  C   UNL     1      -9.509  10.370  68.887  1.00  0.00    -0.186 C  
HETATM   14  O   UNL     1      -9.749  11.397  67.905  1.00  0.00    -0.171 OA 
HETATM   15  C   UNL     1     -10.614  12.346  68.525  1.00  0.00    -0.231 C  
HETATM   16  C   UNL     1     -11.607  11.506  69.335  1.00  0.00    -0.321 C  
HETATM   17  H   UNL     1     -11.531   9.826  71.420  1.00  0.00     0.000 HD 
HETATM   18  O   UNL     1     -11.975  12.133  70.570  1.00  0.00    -0.455 OA 
HETATM   19  C   UNL     1     -10.857  10.190  69.589  1.00  0.00    -0.263 C  
HETATM   20  O   UNL     1     -10.694   9.939  70.984  1.00  0.00    -0.309 OA 
HETATM   21  H   UNL     1     -12.591  11.612  71.072  1.00  0.00     0.000 HD 
BRANCH  15  22
HETATM   22  N   UNL     1     -11.186  13.211  67.514  1.00  0.00    -0.271 NA 
HETATM   23  C   UNL     1     -12.217  12.904  66.666  1.00  0.00    -0.159 A  
HETATM   24  C   UNL     1     -11.292  14.663  65.887  1.00  0.00    -0.338 A  
HETATM   25  N   UNL     1     -12.303  13.757  65.663  1.00  0.00    -0.452 NA 
HETATM   26  C   UNL     1     -10.827  15.768  65.153  1.00  0.00    -0.428 A  
HETATM   27  N   UNL     1      -9.836  16.523  65.682  1.00  0.00    -0.550 NA 
HETATM   28  N   UNL     1     -11.313  16.111  63.900  1.00  0.00    -1.308 NA 
HETATM   29  H2  UNL     1     -12.326  16.207  63.984  1.00  0.00     0.000 HD 
HETATM   30  C   UNL     1      -9.305  16.146  66.863  1.00  0.00    -0.227 A  
HETATM   31  H1  UNL     1     -10.976  16.914  63.368  1.00  0.00     0.000 HD 
HETATM   32  N   UNL     1      -9.601  15.063  67.615  1.00  0.00    -0.202 NA 
HETATM   33  C   UNL     1     -10.622  14.376  67.066  1.00  0.00    -0.274 A  
ENDBRANCH  15  22
ENDBRANCH  12  13
ENDBRANCH  10  12
ENDBRANCH   9  10
ENDBRANCH   8   9
ENDBRANCH   1   8
TORSDOF 6
ENDMDL
MODEL       85
REMARK 921   NORMALIZED FREE ENERGY PREDICTED BY IDOCK:   -5.53 KCAL/MOL
REMARK 922        TOTAL FREE ENERGY PREDICTED BY IDOCK:   -8.88 KCAL/MOL
REMARK 923 INTER-LIGAND FREE ENERGY PREDICTED BY IDOCK:   -8.05 KCAL/MOL
REMARK 924 INTRA-LIGAND FREE ENERGY PREDICTED BY IDOCK:   -0.83 KCAL/MOL
REMARK 927      BINDING AFFINITY PREDICTED BY RF-SCORE:    0.00 PKD
ROOT
HETATM    1  CA  UNL     1     -11.735  14.139  65.023  1.00  0.00    -0.376 C  
HETATM    2  C   UNL     1     -11.280  15.589  64.604  1.00  0.00    -0.371 C  
HETATM    3  N   UNL     1     -13.231  14.143  65.205  1.00  0.00    -0.670 NA 
HETATM    4  OXT UNL     1     -10.129  15.921  65.012  1.00  0.00    -0.444 OA 
HETATM    5  H2  UNL     1     -13.610  13.210  65.367  1.00  0.00     0.000 HD 
HETATM    6  O   UNL     1     -12.124  16.240  63.927  1.00  0.00    -0.986 OA 
HETATM    7  H1  UNL     1     -13.456  14.795  65.956  1.00  0.00     0.000 HD 
ENDROOT
BRANCH   1   8
HETATM    8  C   UNL     1     -11.398  13.162  63.899  1.00  0.00    -0.420 C  
BRANCH   8   9
HETATM    9  C   UNL     1     -10.060  12.436  64.068  1.00  0.00    -0.315 C  
BRANCH   9  10
HETATM   10  S   UNL     1     -10.338  10.620  64.280  1.00  0.00    -0.118 S  
HETATM   11  C   UNL     1      -8.966  10.113  63.200  1.00  0.00    -0.248 C  
BRANCH  10  12
HETATM   12  C   UNL     1      -9.432  10.452  65.875  1.00  0.00    -0.189 C  
BRANCH  12  13
HETATM   13  C   UNL     1     -10.356   9.897  66.968  1.00  0.00    -0.239 C  
HETATM   14  O   UNL     1      -9.680   8.883  67.737  1.00  0.00    -0.151 OA 
HETATM   15  C   UNL     1     -10.416   8.748  68.951  1.00  0.00    -0.197 C  
HETATM   16  C   UNL     1     -10.809  10.177  69.336  1.00  0.00    -0.241 C  
HETATM   17  H   UNL     1     -12.325  12.145  68.334  1.00  0.00     0.000 HD 
HETATM   18  O   UNL     1     -12.108  10.244  69.940  1.00  0.00    -0.434 OA 
HETATM   19  C   UNL     1     -10.784  10.940  68.003  1.00  0.00    -0.220 C  
HETATM   20  O   UNL     1     -12.060  11.497  67.692  1.00  0.00    -0.623 OA 
HETATM   21  H   UNL     1     -12.352  11.130  70.179  1.00  0.00     0.000 HD 
BRANCH  15  22
HETATM   22  N   UNL     1      -9.620   8.022  69.919  1.00  0.00    -0.171 NA 
HETATM   23  C   UNL     1      -8.424   7.396  69.686  1.00  0.00    -0.133 A  
HETATM   24  C   UNL     1      -9.131   6.677  71.568  1.00  0.00    -0.142 A  
HETATM   25  N   UNL     1      -8.102   6.567  70.661  1.00  0.00    -0.111 NA 
HETATM   26  C   UNL     1      -9.405   6.017  72.778  1.00  0.00    -0.145 A  
HETATM   27  N   UNL     1     -10.485   6.406  73.495  1.00  0.00    -0.260 NA 
HETATM   28  N   UNL     1      -8.640   4.967  73.265  1.00  0.00    -0.113 NA 
HETATM   29  H2  UNL     1      -7.674   5.291  73.309  1.00  0.00     0.000 HD 
HETATM   30  C   UNL     1     -11.277   7.373  72.986  1.00  0.00    -0.297 A  
HETATM   31  H1  UNL     1      -8.840   4.488  74.143  1.00  0.00     0.000 HD 
HETATM   32  N   UNL     1     -11.171   8.015  71.803  1.00  0.00    -0.255 NA 
HETATM   33  C   UNL     1     -10.056   7.623  71.154  1.00  0.00    -0.184 A  
ENDBRANCH  15  22
ENDBRANCH  12  13
ENDBRANCH  10  12
ENDBRANCH   9  10
ENDBRANCH   8   9
ENDBRANCH   1   8
TORSDOF 6
ENDMDL
MODEL       86
REMARK 921   NORMALIZED FREE ENERGY PREDICTED BY IDOCK:   -5.52 KCAL/MOL
REMARK 922        TOTAL FREE ENERGY PREDICTED BY IDOCK:   -8.88 KCAL/MOL
REMARK 923 INTER-LIGAND FREE ENERGY PREDICTED BY IDOCK:   -8.31 KCAL/MOL
REMARK 924 INTRA-LIGAND FREE ENERGY PREDICTED BY IDOCK:   -0.57 KCAL/MOL
REMARK 927      BINDING AFFINITY PREDICTED BY RF-SCORE:    0.00 PKD
ROOT
HETATM    1  CA  UNL     1     -10.136  18.630  66.788  1.00  0.00    -0.380 C  
HETATM    2  C   UNL     1      -8.649  19.057  66.485  1.00  0.00    -0.311 C  
HETATM    3  N   UNL     1     -10.625  17.766  65.653  1.00  0.00    -0.579 NA 
HETATM    4  OXT UNL     1      -8.325  20.197  66.930  1.00  0.00    -0.307 OA 
HETATM    5  H2  UNL     1     -11.542  17.360  65.835  1.00  0.00     0.000 HD 
HETATM    6  O   UNL     1      -7.974  18.216  65.828  1.00  0.00    -0.521 OA 
HETATM    7  H1  UNL     1     -10.602  18.325  64.800  1.00  0.00     0.000 HD 
ENDROOT
BRANCH   1   8
HETATM    8  C   UNL     1     -10.169  17.795  68.066  1.00  0.00    -0.377 C  
BRANCH   8   9
HETATM    9  C   UNL     1     -10.988  16.504  67.960  1.00  0.00    -0.320 C  
BRANCH   9  10
HETATM   10  S   UNL     1     -10.514  15.333  69.310  1.00  0.00    -0.271 S  
HETATM   11  C   UNL     1     -11.596  16.076  70.566  1.00  0.00    -0.362 C  
BRANCH  10  12
HETATM   12  C   UNL     1     -11.654  13.971  68.819  1.00  0.00    -0.331 C  
BRANCH  12  13
HETATM   13  C   UNL     1     -10.888  12.650  68.667  1.00  0.00    -0.249 C  
HETATM   14  O   UNL     1     -11.088  11.812  69.822  1.00  0.00    -0.145 OA 
HETATM   15  C   UNL     1     -10.729  10.491  69.421  1.00  0.00    -0.241 C  
HETATM   16  C   UNL     1     -11.270  10.348  67.996  1.00  0.00    -0.272 C  
HETATM   17  H   UNL     1     -10.841  11.468  65.601  1.00  0.00     0.000 HD 
HETATM   18  O   UNL     1     -10.410   9.565  67.159  1.00  0.00    -0.229 OA 
HETATM   19  C   UNL     1     -11.360  11.795  67.487  1.00  0.00    -0.310 C  
HETATM   20  O   UNL     1     -10.548  11.999  66.333  1.00  0.00    -0.230 OA 
HETATM   21  H   UNL     1     -10.745   9.476  66.275  1.00  0.00     0.000 HD 
BRANCH  15  22
HETATM   22  N   UNL     1     -11.229   9.540  70.392  1.00  0.00    -0.257 NA 
HETATM   23  C   UNL     1     -11.672   9.823  71.657  1.00  0.00    -0.318 A  
HETATM   24  C   UNL     1     -11.378   7.710  71.574  1.00  0.00    -0.255 A  
HETATM   25  N   UNL     1     -11.765   8.738  72.403  1.00  0.00    -0.326 NA 
HETATM   26  C   UNL     1     -11.207   6.331  71.786  1.00  0.00    -0.284 A  
HETATM   27  N   UNL     1     -10.879   5.551  70.730  1.00  0.00    -0.224 NA 
HETATM   28  N   UNL     1     -11.332   5.730  73.030  1.00  0.00    -0.459 NA 
HETATM   29  H2  UNL     1     -12.250   5.981  73.398  1.00  0.00     0.000 HD 
HETATM   30  C   UNL     1     -10.678   6.143  69.535  1.00  0.00    -0.320 A  
HETATM   31  H1  UNL     1     -11.208   4.729  73.184  1.00  0.00     0.000 HD 
HETATM   32  N   UNL     1     -10.723   7.457  69.226  1.00  0.00    -0.213 NA 
HETATM   33  C   UNL     1     -11.099   8.180  70.300  1.00  0.00    -0.221 A  
ENDBRANCH  15  22
ENDBRANCH  12  13
ENDBRANCH  10  12
ENDBRANCH   9  10
ENDBRANCH   8   9
ENDBRANCH   1   8
TORSDOF 6
ENDMDL
MODEL       87
REMARK 921   NORMALIZED FREE ENERGY PREDICTED BY IDOCK:   -5.51 KCAL/MOL
REMARK 922        TOTAL FREE ENERGY PREDICTED BY IDOCK:   -8.87 KCAL/MOL
REMARK 923 INTER-LIGAND FREE ENERGY PREDICTED BY IDOCK:   -7.42 KCAL/MOL
REMARK 924 INTRA-LIGAND FREE ENERGY PREDICTED BY IDOCK:   -1.44 KCAL/MOL
REMARK 927      BINDING AFFINITY PREDICTED BY RF-SCORE:    0.00 PKD
ROOT
HETATM    1  CA  UNL     1      -7.134   9.611  69.249  1.00  0.00    -0.063 C  
HETATM    2  C   UNL     1      -6.812  10.702  68.158  1.00  0.00    -0.068 C  
HETATM    3  N   UNL     1      -8.046  10.222  70.282  1.00  0.00    -0.406 NA 
HETATM    4  OXT UNL     1      -5.664  10.606  67.635  1.00  0.00    -0.044 OA 
HETATM    5  H2  UNL     1      -8.387   9.540  70.959  1.00  0.00     0.000 HD 
HETATM    6  O   UNL     1      -7.733  11.541  67.954  1.00  0.00    -0.109 OA 
HETATM    7  H1  UNL     1      -7.551  10.999  70.719  1.00  0.00     0.000 HD 
ENDROOT
BRANCH   1   8
HETATM    8  C   UNL     1      -7.874   8.447  68.594  1.00  0.00    -0.116 C  
BRANCH   8   9
HETATM    9  C   UNL     1      -8.634   7.546  69.572  1.00  0.00    -0.133 C  
BRANCH   9  10
HETATM   10  S   UNL     1     -10.392   7.353  69.031  1.00  0.00    -0.211 S  
HETATM   11  C   UNL     1     -10.305   5.550  68.818  1.00  0.00    -0.201 C  
BRANCH  10  12
HETATM   12  C   UNL     1     -11.132   7.337  70.718  1.00  0.00    -0.266 C  
BRANCH  12  13
HETATM   13  C   UNL     1     -11.375   8.767  71.217  1.00  0.00    -0.291 C  
HETATM   14  O   UNL     1     -11.073   9.724  70.182  1.00  0.00    -0.251 OA 
HETATM   15  C   UNL     1     -11.722  10.936  70.560  1.00  0.00    -0.342 C  
HETATM   16  C   UNL     1     -13.073  10.500  71.134  1.00  0.00    -0.358 C  
HETATM   17  H   UNL     1     -13.964   9.072  73.218  1.00  0.00     0.000 HD 
HETATM   18  O   UNL     1     -13.491  11.319  72.234  1.00  0.00    -0.604 OA 
HETATM   19  C   UNL     1     -12.833   9.052  71.588  1.00  0.00    -0.359 C  
HETATM   20  O   UNL     1     -13.059   8.896  72.987  1.00  0.00    -0.309 OA 
HETATM   21  H   UNL     1     -14.329  11.049  72.590  1.00  0.00     0.000 HD 
BRANCH  15  22
HETATM   22  N   UNL     1     -11.770  11.832  69.423  1.00  0.00    -0.315 NA 
HETATM   23  C   UNL     1     -11.437  11.527  68.129  1.00  0.00    -0.315 A  
HETATM   24  C   UNL     1     -11.542  13.656  68.244  1.00  0.00    -0.339 A  
HETATM   25  N   UNL     1     -11.281  12.608  67.391  1.00  0.00    -0.274 NA 
HETATM   26  C   UNL     1     -11.488  15.051  68.081  1.00  0.00    -0.339 A  
HETATM   27  N   UNL     1     -11.880  15.837  69.110  1.00  0.00    -0.386 NA 
HETATM   28  N   UNL     1     -11.027  15.666  66.926  1.00  0.00    -0.288 NA 
HETATM   29  H2  UNL     1     -11.567  15.291  66.147  1.00  0.00     0.000 HD 
HETATM   30  C   UNL     1     -12.252  15.243  70.264  1.00  0.00    -0.363 A  
HETATM   31  H1  UNL     1     -10.988  16.679  66.808  1.00  0.00     0.000 HD 
HETATM   32  N   UNL     1     -12.260  13.928  70.571  1.00  0.00    -0.353 NA 
HETATM   33  C   UNL     1     -11.907  13.192  69.499  1.00  0.00    -0.322 A  
ENDBRANCH  15  22
ENDBRANCH  12  13
ENDBRANCH  10  12
ENDBRANCH   9  10
ENDBRANCH   8   9
ENDBRANCH   1   8
TORSDOF 6
ENDMDL
MODEL       88
REMARK 921   NORMALIZED FREE ENERGY PREDICTED BY IDOCK:   -5.50 KCAL/MOL
REMARK 922        TOTAL FREE ENERGY PREDICTED BY IDOCK:   -8.85 KCAL/MOL
REMARK 923 INTER-LIGAND FREE ENERGY PREDICTED BY IDOCK:   -7.66 KCAL/MOL
REMARK 924 INTRA-LIGAND FREE ENERGY PREDICTED BY IDOCK:   -1.19 KCAL/MOL
REMARK 927      BINDING AFFINITY PREDICTED BY RF-SCORE:    0.00 PKD
ROOT
HETATM    1  CA  UNL     1     -11.331   8.082  72.676  1.00  0.00    -0.405 C  
HETATM    2  C   UNL     1     -12.534   8.089  71.657  1.00  0.00    -0.320 C  
HETATM    3  N   UNL     1     -11.162   6.681  73.205  1.00  0.00    -0.482 NA 
HETATM    4  OXT UNL     1     -13.189   9.172  71.619  1.00  0.00    -0.340 OA 
HETATM    5  H2  UNL     1     -10.330   6.577  73.785  1.00  0.00     0.000 HD 
HETATM    6  O   UNL     1     -12.699   7.013  71.017  1.00  0.00    -0.367 OA 
HETATM    7  H1  UNL     1     -12.019   6.423  73.694  1.00  0.00     0.000 HD 
ENDROOT
BRANCH   1   8
HETATM    8  C   UNL     1     -10.049   8.469  71.943  1.00  0.00    -0.367 C  
BRANCH   8   9
HETATM    9  C   UNL     1      -9.044   7.326  71.774  1.00  0.00    -0.130 C  
BRANCH   9  10
HETATM   10  S   UNL     1      -8.304   7.368  70.079  1.00  0.00    -0.138 S  
HETATM   11  C   UNL     1      -7.262   5.898  70.314  1.00  0.00    -0.075 C  
BRANCH  10  12
HETATM   12  C   UNL     1      -9.693   6.515  69.220  1.00  0.00    -0.144 C  
BRANCH  12  13
HETATM   13  C   UNL     1     -10.150   7.320  67.996  1.00  0.00    -0.172 C  
HETATM   14  O   UNL     1     -10.510   8.663  68.378  1.00  0.00    -0.213 OA 
HETATM   15  C   UNL     1     -10.493   9.435  67.179  1.00  0.00    -0.244 C  
HETATM   16  C   UNL     1      -9.278   8.926  66.398  1.00  0.00    -0.189 C  
HETATM   17  H   UNL     1      -8.490   6.641  65.243  1.00  0.00     0.000 HD 
HETATM   18  O   UNL     1      -9.505   8.908  64.982  1.00  0.00    -0.436 OA 
HETATM   19  C   UNL     1      -9.061   7.503  66.936  1.00  0.00    -0.141 C  
HETATM   20  O   UNL     1      -9.166   6.527  65.901  1.00  0.00    -0.108 OA 
HETATM   21  H   UNL     1      -8.751   8.593  64.497  1.00  0.00     0.000 HD 
BRANCH  15  22
HETATM   22  N   UNL     1     -10.492  10.844  67.513  1.00  0.00    -0.202 NA 
HETATM   23  C   UNL     1     -10.049  11.405  68.682  1.00  0.00    -0.210 A  
HETATM   24  C   UNL     1     -11.188  12.907  67.679  1.00  0.00    -0.278 A  
HETATM   25  N   UNL     1     -10.460  12.651  68.819  1.00  0.00    -0.188 NA 
HETATM   26  C   UNL     1     -11.927  14.024  67.255  1.00  0.00    -0.413 A  
HETATM   27  N   UNL     1     -12.485  13.999  66.022  1.00  0.00    -0.478 NA 
HETATM   28  N   UNL     1     -12.139  15.144  68.046  1.00  0.00    -0.483 NA 
HETATM   29  H2  UNL     1     -11.224  15.482  68.344  1.00  0.00     0.000 HD 
HETATM   30  C   UNL     1     -12.350  12.880  65.281  1.00  0.00    -0.490 A  
HETATM   31  H1  UNL     1     -12.676  15.955  67.738  1.00  0.00     0.000 HD 
HETATM   32  N   UNL     1     -11.745  11.718  65.610  1.00  0.00    -0.316 NA 
HETATM   33  C   UNL     1     -11.169  11.816  66.825  1.00  0.00    -0.328 A  
ENDBRANCH  15  22
ENDBRANCH  12  13
ENDBRANCH  10  12
ENDBRANCH   9  10
ENDBRANCH   8   9
ENDBRANCH   1   8
TORSDOF 6
ENDMDL
MODEL       89
REMARK 921   NORMALIZED FREE ENERGY PREDICTED BY IDOCK:   -5.47 KCAL/MOL
REMARK 922        TOTAL FREE ENERGY PREDICTED BY IDOCK:   -8.81 KCAL/MOL
REMARK 923 INTER-LIGAND FREE ENERGY PREDICTED BY IDOCK:   -8.04 KCAL/MOL
REMARK 924 INTRA-LIGAND FREE ENERGY PREDICTED BY IDOCK:   -0.77 KCAL/MOL
REMARK 927      BINDING AFFINITY PREDICTED BY RF-SCORE:    0.00 PKD
ROOT
HETATM    1  CA  UNL     1      -9.940  17.516  67.526  1.00  0.00    -0.315 C  
HETATM    2  C   UNL     1     -10.452  18.732  66.664  1.00  0.00    -0.426 C  
HETATM    3  N   UNL     1      -9.096  18.052  68.654  1.00  0.00    -0.291 NA 
HETATM    4  OXT UNL     1     -10.598  18.482  65.431  1.00  0.00    -0.589 OA 
HETATM    5  H2  UNL     1      -8.823  17.329  69.319  1.00  0.00     0.000 HD 
HETATM    6  O   UNL     1     -10.640  19.802  67.307  1.00  0.00    -0.446 OA 
HETATM    7  H1  UNL     1      -8.296  18.537  68.247  1.00  0.00     0.000 HD 
ENDROOT
BRANCH   1   8
HETATM    8  C   UNL     1     -11.137  16.790  68.134  1.00  0.00    -0.254 C  
BRANCH   8   9
HETATM    9  C   UNL     1     -10.804  15.928  69.356  1.00  0.00    -0.288 C  
BRANCH   9  10
HETATM   10  S   UNL     1     -10.776  14.139  68.890  1.00  0.00    -0.241 S  
HETATM   11  C   UNL     1     -11.968  13.616  70.159  1.00  0.00    -0.337 C  
BRANCH  10  12
HETATM   12  C   UNL     1     -11.979  14.263  67.500  1.00  0.00    -0.376 C  
BRANCH  12  13
HETATM   13  C   UNL     1     -11.396  13.648  66.221  1.00  0.00    -0.312 C  
HETATM   14  O   UNL     1     -10.701  12.421  66.520  1.00  0.00    -0.230 OA 
HETATM   15  C   UNL     1     -10.585  11.719  65.284  1.00  0.00    -0.278 C  
HETATM   16  C   UNL     1     -11.922  11.945  64.572  1.00  0.00    -0.196 C  
HETATM   17  H   UNL     1     -13.296  14.012  63.565  1.00  0.00     0.000 HD 
HETATM   18  O   UNL     1     -11.771  12.077  63.153  1.00  0.00    -0.694 OA 
HETATM   19  C   UNL     1     -12.455  13.246  65.191  1.00  0.00    -0.470 C  
HETATM   20  O   UNL     1     -12.639  14.260  64.205  1.00  0.00    -0.689 OA 
HETATM   21  H   UNL     1     -12.600  12.217  62.711  1.00  0.00     0.000 HD 
BRANCH  15  22
HETATM   22  N   UNL     1     -10.225  10.340  65.545  1.00  0.00    -0.270 NA 
HETATM   23  C   UNL     1     -10.651   9.571  66.595  1.00  0.00    -0.104 A  
HETATM   24  C   UNL     1      -8.993   8.546  65.723  1.00  0.00    -0.182 A  
HETATM   25  N   UNL     1      -9.921   8.481  66.738  1.00  0.00    -0.256 NA 
HETATM   26  C   UNL     1      -7.908   7.724  65.374  1.00  0.00    -0.114 A  
HETATM   27  N   UNL     1      -7.209   8.019  64.253  1.00  0.00    -0.081 NA 
HETATM   28  N   UNL     1      -7.498   6.638  66.134  1.00  0.00    -0.079 NA 
HETATM   29  H2  UNL     1      -8.309   6.032  66.259  1.00  0.00     0.000 HD 
HETATM   30  C   UNL     1      -7.554   9.121  63.555  1.00  0.00    -0.109 A  
HETATM   31  H1  UNL     1      -6.710   6.042  65.880  1.00  0.00     0.000 HD 
HETATM   32  N   UNL     1      -8.511  10.033  63.836  1.00  0.00    -0.164 NA 
HETATM   33  C   UNL     1      -9.203   9.665  64.932  1.00  0.00    -0.246 A  
ENDBRANCH  15  22
ENDBRANCH  12  13
ENDBRANCH  10  12
ENDBRANCH   9  10
ENDBRANCH   8   9
ENDBRANCH   1   8
TORSDOF 6
ENDMDL
MODEL       90
REMARK 921   NORMALIZED FREE ENERGY PREDICTED BY IDOCK:   -5.47 KCAL/MOL
REMARK 922        TOTAL FREE ENERGY PREDICTED BY IDOCK:   -8.81 KCAL/MOL
REMARK 923 INTER-LIGAND FREE ENERGY PREDICTED BY IDOCK:   -8.22 KCAL/MOL
REMARK 924 INTRA-LIGAND FREE ENERGY PREDICTED BY IDOCK:   -0.59 KCAL/MOL
REMARK 927      BINDING AFFINITY PREDICTED BY RF-SCORE:    0.00 PKD
ROOT
HETATM    1  CA  UNL     1      -9.376  16.294  66.176  1.00  0.00    -0.339 C  
HETATM    2  C   UNL     1      -9.732  17.562  67.042  1.00  0.00    -0.284 C  
HETATM    3  N   UNL     1      -8.841  15.225  67.094  1.00  0.00    -0.198 NA 
HETATM    4  OXT UNL     1      -9.578  18.669  66.447  1.00  0.00    -0.322 OA 
HETATM    5  H2  UNL     1      -8.695  14.334  66.618  1.00  0.00     0.000 HD 
HETATM    6  O   UNL     1     -10.113  17.316  68.220  1.00  0.00    -0.284 OA 
HETATM    7  H1  UNL     1      -7.993  15.581  67.533  1.00  0.00     0.000 HD 
ENDROOT
BRANCH   1   8
HETATM    8  C   UNL     1     -10.646  15.761  65.517  1.00  0.00    -0.424 C  
BRANCH   8   9
HETATM    9  C   UNL     1     -10.533  14.329  64.985  1.00  0.00    -0.435 C  
BRANCH   9  10
HETATM   10  S   UNL     1     -12.160  13.462  65.126  1.00  0.00    -0.437 S  
HETATM   11  C   UNL     1     -12.285  13.050  63.360  1.00  0.00    -0.472 C  
BRANCH  10  12
HETATM   12  C   UNL     1     -11.488  11.839  65.681  1.00  0.00    -0.186 C  
BRANCH  12  13
HETATM   13  C   UNL     1     -10.888  11.953  67.089  1.00  0.00    -0.255 C  
HETATM   14  O   UNL     1     -11.717  11.269  68.050  1.00  0.00    -0.501 OA 
HETATM   15  C   UNL     1     -10.898  11.050  69.197  1.00  0.00    -0.237 C  
HETATM   16  C   UNL     1      -9.523  10.672  68.636  1.00  0.00    -0.176 C  
HETATM   17  H   UNL     1      -7.605  11.830  67.168  1.00  0.00     0.000 HD 
HETATM   18  O   UNL     1      -8.447  11.188  69.430  1.00  0.00    -0.378 OA 
HETATM   19  C   UNL     1      -9.514  11.292  67.230  1.00  0.00    -0.173 C  
HETATM   20  O   UNL     1      -8.458  12.240  67.080  1.00  0.00    -0.172 OA 
HETATM   21  H   UNL     1      -7.595  10.954  69.083  1.00  0.00     0.000 HD 
BRANCH  15  22
HETATM   22  N   UNL     1     -11.527  10.071  70.059  1.00  0.00    -0.256 NA 
HETATM   23  C   UNL     1     -12.253  10.328  71.191  1.00  0.00    -0.397 A  
HETATM   24  C   UNL     1     -11.796   8.243  71.222  1.00  0.00    -0.288 A  
HETATM   25  N   UNL     1     -12.427   9.245  71.924  1.00  0.00    -0.366 NA 
HETATM   26  C   UNL     1     -11.576   6.883  71.498  1.00  0.00    -0.290 A  
HETATM   27  N   UNL     1     -10.971   6.122  70.556  1.00  0.00    -0.296 NA 
HETATM   28  N   UNL     1     -11.925   6.282  72.699  1.00  0.00    -0.518 NA 
HETATM   29  H2  UNL     1     -12.916   6.466  72.854  1.00  0.00     0.000 HD 
HETATM   30  C   UNL     1     -10.558   6.720  69.419  1.00  0.00    -0.233 A  
HETATM   31  H1  UNL     1     -11.765   5.295  72.900  1.00  0.00     0.000 HD 
HETATM   32  N   UNL     1     -10.630   8.025  69.078  1.00  0.00    -0.193 NA 
HETATM   33  C   UNL     1     -11.282   8.724  70.028  1.00  0.00    -0.106 A  
ENDBRANCH  15  22
ENDBRANCH  12  13
ENDBRANCH  10  12
ENDBRANCH   9  10
ENDBRANCH   8   9
ENDBRANCH   1   8
TORSDOF 6
ENDMDL
MODEL       91
REMARK 921   NORMALIZED FREE ENERGY PREDICTED BY IDOCK:   -5.43 KCAL/MOL
REMARK 922        TOTAL FREE ENERGY PREDICTED BY IDOCK:   -8.76 KCAL/MOL
REMARK 923 INTER-LIGAND FREE ENERGY PREDICTED BY IDOCK:   -8.17 KCAL/MOL
REMARK 924 INTRA-LIGAND FREE ENERGY PREDICTED BY IDOCK:   -0.59 KCAL/MOL
REMARK 927      BINDING AFFINITY PREDICTED BY RF-SCORE:    0.00 PKD
ROOT
HETATM    1  CA  UNL     1     -12.090  14.486  64.768  1.00  0.00    -0.445 C  
HETATM    2  C   UNL     1     -10.538  14.213  64.788  1.00  0.00    -0.418 C  
HETATM    3  N   UNL     1     -12.648  13.979  63.463  1.00  0.00    -1.008 NA 
HETATM    4  OXT UNL     1      -9.858  15.068  65.427  1.00  0.00    -0.339 OA 
HETATM    5  H2  UNL     1     -13.666  14.020  63.427  1.00  0.00     0.000 HD 
HETATM    6  O   UNL     1     -10.167  13.186  64.153  1.00  0.00    -0.391 OA 
HETATM    7  H1  UNL     1     -12.205  14.502  62.707  1.00  0.00     0.000 HD 
ENDROOT
BRANCH   1   8
HETATM    8  C   UNL     1     -12.752  13.704  65.900  1.00  0.00    -0.428 C  
BRANCH   8   9
HETATM    9  C   UNL     1     -11.959  13.688  67.211  1.00  0.00    -0.381 C  
BRANCH   9  10
HETATM   10  S   UNL     1     -11.395  11.969  67.597  1.00  0.00    -0.325 S  
HETATM   11  C   UNL     1      -9.633  12.395  67.726  1.00  0.00    -0.202 C  
BRANCH  10  12
HETATM   12  C   UNL     1     -11.764  12.026  69.401  1.00  0.00    -0.340 C  
BRANCH  12  13
HETATM   13  C   UNL     1     -12.151  10.634  69.920  1.00  0.00    -0.299 C  
HETATM   14  O   UNL     1     -11.251   9.633  69.406  1.00  0.00    -0.187 OA 
HETATM   15  C   UNL     1     -11.399   8.494  70.250  1.00  0.00    -0.130 C  
HETATM   16  C   UNL     1     -11.533   9.064  71.665  1.00  0.00    -0.361 C  
HETATM   17  H   UNL     1     -13.254  10.610  73.015  1.00  0.00     0.000 HD 
HETATM   18  O   UNL     1     -12.443   8.310  72.476  1.00  0.00    -0.516 OA 
HETATM   19  C   UNL     1     -12.052  10.493  71.441  1.00  0.00    -0.282 C  
HETATM   20  O   UNL     1     -13.315  10.698  72.071  1.00  0.00    -0.440 OA 
HETATM   21  H   UNL     1     -12.526   8.664  73.354  1.00  0.00     0.000 HD 
BRANCH  15  22
HETATM   22  N   UNL     1     -10.294   7.584  70.031  1.00  0.00    -0.216 NA 
HETATM   23  C   UNL     1      -9.099   7.575  70.700  1.00  0.00    -0.155 A  
HETATM   24  C   UNL     1      -8.833   6.360  68.965  1.00  0.00    -0.129 A  
HETATM   25  N   UNL     1      -8.189   6.852  70.077  1.00  0.00    -0.131 NA 
HETATM   26  C   UNL     1      -8.397   5.578  67.882  1.00  0.00    -0.099 A  
HETATM   27  N   UNL     1      -9.306   5.188  66.959  1.00  0.00    -0.120 NA 
HETATM   28  N   UNL     1      -7.073   5.205  67.695  1.00  0.00    -0.065 NA 
HETATM   29  H2  UNL     1      -6.766   4.739  68.548  1.00  0.00     0.000 HD 
HETATM   30  C   UNL     1     -10.579   5.615  67.094  1.00  0.00    -0.270 A  
HETATM   31  H1  UNL     1      -6.757   4.638  66.908  1.00  0.00     0.000 HD 
HETATM   32  N   UNL     1     -11.098   6.437  68.033  1.00  0.00    -0.312 NA 
HETATM   33  C   UNL     1     -10.162   6.754  68.949  1.00  0.00    -0.175 A  
ENDBRANCH  15  22
ENDBRANCH  12  13
ENDBRANCH  10  12
ENDBRANCH   9  10
ENDBRANCH   8   9
ENDBRANCH   1   8
TORSDOF 6
ENDMDL
MODEL       92
REMARK 921   NORMALIZED FREE ENERGY PREDICTED BY IDOCK:   -5.41 KCAL/MOL
REMARK 922        TOTAL FREE ENERGY PREDICTED BY IDOCK:   -8.73 KCAL/MOL
REMARK 923 INTER-LIGAND FREE ENERGY PREDICTED BY IDOCK:   -8.26 KCAL/MOL
REMARK 924 INTRA-LIGAND FREE ENERGY PREDICTED BY IDOCK:   -0.47 KCAL/MOL
REMARK 927      BINDING AFFINITY PREDICTED BY RF-SCORE:    0.00 PKD
ROOT
HETATM    1  CA  UNL     1     -13.121  14.668  70.746  1.00  0.00    -0.323 C  
HETATM    2  C   UNL     1     -13.006  15.202  72.224  1.00  0.00    -0.354 C  
HETATM    3  N   UNL     1     -12.878  15.818  69.802  1.00  0.00    -0.552 NA 
HETATM    4  OXT UNL     1     -13.752  14.614  73.060  1.00  0.00    -0.555 OA 
HETATM    5  H2  UNL     1     -12.825  15.523  68.827  1.00  0.00     0.000 HD 
HETATM    6  O   UNL     1     -12.194  16.156  72.386  1.00  0.00    -0.469 OA 
HETATM    7  H1  UNL     1     -13.602  16.517  69.964  1.00  0.00     0.000 HD 
ENDROOT
BRANCH   1   8
HETATM    8  C   UNL     1     -12.038  13.620  70.503  1.00  0.00    -0.411 C  
BRANCH   8   9
HETATM    9  C   UNL     1     -11.205  13.847  69.238  1.00  0.00    -0.251 C  
BRANCH   9  10
HETATM   10  S   UNL     1     -11.449  12.452  68.050  1.00  0.00    -0.343 S  
HETATM   11  C   UNL     1     -12.146  13.480  66.723  1.00  0.00    -0.375 C  
BRANCH  10  12
HETATM   12  C   UNL     1      -9.722  12.413  67.410  1.00  0.00    -0.193 C  
BRANCH  12  13
HETATM   13  C   UNL     1      -9.229  10.966  67.266  1.00  0.00    -0.151 C  
HETATM   14  O   UNL     1      -9.451  10.231  68.485  1.00  0.00    -0.148 OA 
HETATM   15  C   UNL     1      -9.383   8.850  68.135  1.00  0.00    -0.142 C  
HETATM   16  C   UNL     1     -10.093   8.750  66.781  1.00  0.00    -0.288 C  
HETATM   17  H   UNL     1      -9.730   9.665  64.290  1.00  0.00     0.000 HD 
HETATM   18  O   UNL     1      -9.485   7.784  65.914  1.00  0.00    -0.404 OA 
HETATM   19  C   UNL     1      -9.974  10.165  66.195  1.00  0.00    -0.246 C  
HETATM   20  O   UNL     1      -9.269  10.163  64.955  1.00  0.00    -0.180 OA 
HETATM   21  H   UNL     1      -9.925   7.721  65.075  1.00  0.00     0.000 HD 
BRANCH  15  22
HETATM   22  N   UNL     1      -9.939   8.052  69.208  1.00  0.00    -0.186 NA 
HETATM   23  C   UNL     1      -9.807   6.699  69.371  1.00  0.00    -0.151 A  
HETATM   24  C   UNL     1     -11.379   7.318  70.676  1.00  0.00    -0.284 A  
HETATM   25  N   UNL     1     -10.670   6.219  70.245  1.00  0.00    -0.255 NA 
HETATM   26  C   UNL     1     -12.466   7.463  71.555  1.00  0.00    -0.361 A  
HETATM   27  N   UNL     1     -12.905   8.711  71.838  1.00  0.00    -0.348 NA 
HETATM   28  N   UNL     1     -13.131   6.389  72.129  1.00  0.00    -0.426 NA 
HETATM   29  H2  UNL     1     -12.432   5.817  72.603  1.00  0.00     0.000 HD 
HETATM   30  C   UNL     1     -12.313   9.753  71.220  1.00  0.00    -0.371 A  
HETATM   31  H1  UNL     1     -13.921   6.494  72.766  1.00  0.00     0.000 HD 
HETATM   32  N   UNL     1     -11.328   9.738  70.296  1.00  0.00    -0.261 NA 
HETATM   33  C   UNL     1     -10.899   8.478  70.088  1.00  0.00    -0.233 A  
ENDBRANCH  15  22
ENDBRANCH  12  13
ENDBRANCH  10  12
ENDBRANCH   9  10
ENDBRANCH   8   9
ENDBRANCH   1   8
TORSDOF 6
ENDMDL
MODEL       93
REMARK 921   NORMALIZED FREE ENERGY PREDICTED BY IDOCK:   -5.41 KCAL/MOL
REMARK 922        TOTAL FREE ENERGY PREDICTED BY IDOCK:   -8.72 KCAL/MOL
REMARK 923 INTER-LIGAND FREE ENERGY PREDICTED BY IDOCK:   -8.41 KCAL/MOL
REMARK 924 INTRA-LIGAND FREE ENERGY PREDICTED BY IDOCK:   -0.32 KCAL/MOL
REMARK 927      BINDING AFFINITY PREDICTED BY RF-SCORE:    0.00 PKD
ROOT
HETATM    1  CA  UNL     1     -10.231  16.096  66.074  1.00  0.00    -0.356 C  
HETATM    2  C   UNL     1     -11.112  15.810  64.799  1.00  0.00    -0.400 C  
HETATM    3  N   UNL     1      -9.263  17.204  65.747  1.00  0.00    -0.519 NA 
HETATM    4  OXT UNL     1     -11.479  14.605  64.668  1.00  0.00    -0.393 OA 
HETATM    5  H2  UNL     1      -8.736  17.520  66.561  1.00  0.00     0.000 HD 
HETATM    6  O   UNL     1     -11.329  16.813  64.064  1.00  0.00    -1.153 OA 
HETATM    7  H1  UNL     1      -8.662  16.884  64.988  1.00  0.00     0.000 HD 
ENDROOT
BRANCH   1   8
HETATM    8  C   UNL     1     -11.131  16.574  67.211  1.00  0.00     0.019 C  
BRANCH   8   9
HETATM    9  C   UNL     1     -10.429  16.704  68.566  1.00  0.00    -0.319 C  
BRANCH   9  10
HETATM   10  S   UNL     1     -10.862  15.272  69.652  1.00  0.00    -0.305 S  
HETATM   11  C   UNL     1     -12.311  16.066  70.409  1.00  0.00    -0.055 C  
BRANCH  10  12
HETATM   12  C   UNL     1     -11.782  14.310  68.378  1.00  0.00    -0.338 C  
BRANCH  12  13
HETATM   13  C   UNL     1     -11.066  12.987  68.076  1.00  0.00    -0.260 C  
HETATM   14  O   UNL     1     -10.639  12.351  69.297  1.00  0.00    -0.043 OA 
HETATM   15  C   UNL     1     -10.397  10.984  68.969  1.00  0.00    -0.209 C  
HETATM   16  C   UNL     1     -11.522  10.603  68.002  1.00  0.00    -0.212 C  
HETATM   17  H   UNL     1     -12.343  11.313  65.553  1.00  0.00     0.000 HD 
HETATM   18  O   UNL     1     -11.084   9.697  66.982  1.00  0.00    -0.180 OA 
HETATM   19  C   UNL     1     -11.957  11.945  67.393  1.00  0.00    -0.017 C  
HETATM   20  O   UNL     1     -11.790  11.959  65.977  1.00  0.00    -0.497 OA 
HETATM   21  H   UNL     1     -11.781   9.460  66.382  1.00  0.00     0.000 HD 
BRANCH  15  22
HETATM   22  N   UNL     1     -10.311  10.204  70.187  1.00  0.00    -0.263 NA 
HETATM   23  C   UNL     1      -9.212   9.528  70.647  1.00  0.00    -0.180 A  
HETATM   24  C   UNL     1     -10.881   8.809  71.767  1.00  0.00    -0.345 A  
HETATM   25  N   UNL     1      -9.523   8.668  71.597  1.00  0.00    -0.244 NA 
HETATM   26  C   UNL     1     -11.812   8.142  72.581  1.00  0.00    -0.326 A  
HETATM   27  N   UNL     1     -13.096   8.568  72.577  1.00  0.00    -0.290 NA 
HETATM   28  N   UNL     1     -11.488   7.049  73.372  1.00  0.00    -0.410 NA 
HETATM   29  H2  UNL     1     -10.708   7.326  73.968  1.00  0.00     0.000 HD 
HETATM   30  C   UNL     1     -13.433   9.578  71.750  1.00  0.00    -0.402 A  
HETATM   31  H1  UNL     1     -12.163   6.564  73.963  1.00  0.00     0.000 HD 
HETATM   32  N   UNL     1     -12.656  10.236  70.861  1.00  0.00    -0.346 NA 
HETATM   33  C   UNL     1     -11.382   9.804  70.942  1.00  0.00    -0.365 A  
ENDBRANCH  15  22
ENDBRANCH  12  13
ENDBRANCH  10  12
ENDBRANCH   9  10
ENDBRANCH   8   9
ENDBRANCH   1   8
TORSDOF 6
ENDMDL
MODEL       94
REMARK 921   NORMALIZED FREE ENERGY PREDICTED BY IDOCK:   -5.40 KCAL/MOL
REMARK 922        TOTAL FREE ENERGY PREDICTED BY IDOCK:   -8.72 KCAL/MOL
REMARK 923 INTER-LIGAND FREE ENERGY PREDICTED BY IDOCK:   -7.74 KCAL/MOL
REMARK 924 INTRA-LIGAND FREE ENERGY PREDICTED BY IDOCK:   -0.98 KCAL/MOL
REMARK 927      BINDING AFFINITY PREDICTED BY RF-SCORE:    0.00 PKD
ROOT
HETATM    1  CA  UNL     1      -7.685  15.310  68.715  1.00  0.00    -0.147 C  
HETATM    2  C   UNL     1      -6.434  16.024  68.074  1.00  0.00    -0.135 C  
HETATM    3  N   UNL     1      -7.260  14.679  70.016  1.00  0.00    -0.387 NA 
HETATM    4  OXT UNL     1      -6.421  16.033  66.808  1.00  0.00    -0.278 OA 
HETATM    5  H2  UNL     1      -8.045  14.296  70.543  1.00  0.00     0.000 HD 
HETATM    6  O   UNL     1      -5.599  16.484  68.902  1.00  0.00    -0.126 OA 
HETATM    7  H1  UNL     1      -6.544  13.983  69.810  1.00  0.00     0.000 HD 
ENDROOT
BRANCH   1   8
HETATM    8  C   UNL     1      -8.757  16.353  69.023  1.00  0.00    -0.233 C  
BRANCH   8   9
HETATM    9  C   UNL     1      -9.942  16.353  68.053  1.00  0.00    -0.242 C  
BRANCH   9  10
HETATM   10  S   UNL     1     -10.173  14.668  67.325  1.00  0.00    -0.241 S  
HETATM   11  C   UNL     1     -11.832  14.411  68.021  1.00  0.00    -0.325 C  
BRANCH  10  12
HETATM   12  C   UNL     1     -10.722  15.231  65.658  1.00  0.00    -0.365 C  
BRANCH  12  13
HETATM   13  C   UNL     1     -10.742  14.059  64.669  1.00  0.00    -0.399 C  
HETATM   14  O   UNL     1     -10.089  12.906  65.236  1.00  0.00    -0.284 OA 
HETATM   15  C   UNL     1     -10.525  11.785  64.470  1.00  0.00    -0.304 C  
HETATM   16  C   UNL     1     -12.011  12.042  64.203  1.00  0.00    -0.369 C  
HETATM   17  H   UNL     1     -13.496  13.844  62.891  1.00  0.00     0.000 HD 
HETATM   18  O   UNL     1     -12.421  11.590  62.906  1.00  0.00    -0.964 OA 
HETATM   19  C   UNL     1     -12.149  13.568  64.321  1.00  0.00    -0.431 C  
HETATM   20  O   UNL     1     -12.623  14.149  63.107  1.00  0.00    -0.686 OA 
HETATM   21  H   UNL     1     -13.342  11.750  62.740  1.00  0.00     0.000 HD 
BRANCH  15  22
HETATM   22  N   UNL     1     -10.207  10.563  65.179  1.00  0.00    -0.306 NA 
HETATM   23  C   UNL     1     -10.503  10.277  66.486  1.00  0.00    -0.173 A  
HETATM   24  C   UNL     1      -9.064   8.830  65.858  1.00  0.00    -0.218 A  
HETATM   25  N   UNL     1      -9.821   9.240  66.932  1.00  0.00    -0.197 NA 
HETATM   26  C   UNL     1      -8.096   7.823  65.707  1.00  0.00    -0.125 A  
HETATM   27  N   UNL     1      -7.568   7.614  64.478  1.00  0.00    -0.105 NA 
HETATM   28  N   UNL     1      -7.632   7.047  66.759  1.00  0.00    -0.088 NA 
HETATM   29  H2  UNL     1      -8.445   6.621  67.203  1.00  0.00     0.000 HD 
HETATM   30  C   UNL     1      -7.957   8.420  63.469  1.00  0.00    -0.159 A  
HETATM   31  H1  UNL     1      -6.929   6.316  66.649  1.00  0.00     0.000 HD 
HETATM   32  N   UNL     1      -8.805   9.471  63.507  1.00  0.00    -0.229 NA 
HETATM   33  C   UNL     1      -9.334   9.603  64.739  1.00  0.00    -0.222 A  
ENDBRANCH  15  22
ENDBRANCH  12  13
ENDBRANCH  10  12
ENDBRANCH   9  10
ENDBRANCH   8   9
ENDBRANCH   1   8
TORSDOF 6
ENDMDL
MODEL       95
REMARK 921   NORMALIZED FREE ENERGY PREDICTED BY IDOCK:   -5.39 KCAL/MOL
REMARK 922        TOTAL FREE ENERGY PREDICTED BY IDOCK:   -8.70 KCAL/MOL
REMARK 923 INTER-LIGAND FREE ENERGY PREDICTED BY IDOCK:   -8.12 KCAL/MOL
REMARK 924 INTRA-LIGAND FREE ENERGY PREDICTED BY IDOCK:   -0.58 KCAL/MOL
REMARK 927      BINDING AFFINITY PREDICTED BY RF-SCORE:    0.00 PKD
ROOT
HETATM    1  CA  UNL     1     -11.741  14.038  64.957  1.00  0.00    -0.364 C  
HETATM    2  C   UNL     1     -11.439  15.510  64.481  1.00  0.00    -0.308 C  
HETATM    3  N   UNL     1     -13.235  13.866  65.059  1.00  0.00    -0.582 NA 
HETATM    4  OXT UNL     1     -10.362  16.001  64.931  1.00  0.00    -0.543 OA 
HETATM    5  H2  UNL     1     -13.509  12.903  65.253  1.00  0.00     0.000 HD 
HETATM    6  O   UNL     1     -12.313  16.017  63.724  1.00  0.00    -0.858 OA 
HETATM    7  H1  UNL     1     -13.581  14.523  65.758  1.00  0.00     0.000 HD 
ENDROOT
BRANCH   1   8
HETATM    8  C   UNL     1     -11.223  13.054  63.911  1.00  0.00    -0.434 C  
BRANCH   8   9
HETATM    9  C   UNL     1      -9.972  12.277  64.334  1.00  0.00    -0.205 C  
BRANCH   9  10
HETATM   10  S   UNL     1     -10.398  11.036  65.636  1.00  0.00    -0.234 S  
HETATM   11  C   UNL     1      -9.660   9.620  64.768  1.00  0.00    -0.127 C  
BRANCH  10  12
HETATM   12  C   UNL     1      -8.964  11.385  66.739  1.00  0.00    -0.176 C  
BRANCH  12  13
HETATM   13  C   UNL     1      -8.796  12.896  66.948  1.00  0.00    -0.187 C  
HETATM   14  O   UNL     1      -9.951  13.448  67.612  1.00  0.00    -0.221 OA 
HETATM   15  C   UNL     1      -9.541  14.706  68.143  1.00  0.00    -0.213 C  
HETATM   16  C   UNL     1      -8.122  14.470  68.670  1.00  0.00    -0.150 C  
HETATM   17  H   UNL     1      -5.726  13.823  67.663  1.00  0.00     0.000 HD 
HETATM   18  O   UNL     1      -7.270  15.607  68.480  1.00  0.00    -0.115 OA 
HETATM   19  C   UNL     1      -7.620  13.267  67.856  1.00  0.00    -0.152 C  
HETATM   20  O   UNL     1      -6.456  13.593  67.100  1.00  0.00    -0.201 OA 
HETATM   21  H   UNL     1      -6.391  15.461  68.807  1.00  0.00     0.000 HD 
BRANCH  15  22
HETATM   22  N   UNL     1     -10.515  15.160  69.114  1.00  0.00    -0.243 NA 
HETATM   23  C   UNL     1     -10.591  16.409  69.671  1.00  0.00    -0.307 A  
HETATM   24  C   UNL     1     -11.826  15.138  70.860  1.00  0.00    -0.325 A  
HETATM   25  N   UNL     1     -11.369  16.430  70.736  1.00  0.00    -0.305 NA 
HETATM   26  C   UNL     1     -12.637  14.505  71.818  1.00  0.00    -0.346 A  
HETATM   27  N   UNL     1     -12.976  13.209  71.621  1.00  0.00    -0.366 NA 
HETATM   28  N   UNL     1     -13.087  15.132  72.970  1.00  0.00    -0.464 NA 
HETATM   29  H2  UNL     1     -13.567  15.985  72.684  1.00  0.00     0.000 HD 
HETATM   30  C   UNL     1     -12.474  12.572  70.543  1.00  0.00    -0.185 A  
HETATM   31  H1  UNL     1     -13.675  14.672  73.665  1.00  0.00     0.000 HD 
HETATM   32  N   UNL     1     -11.621  13.041  69.607  1.00  0.00    -0.278 NA 
HETATM   33  C   UNL     1     -11.355  14.345  69.825  1.00  0.00    -0.237 A  
ENDBRANCH  15  22
ENDBRANCH  12  13
ENDBRANCH  10  12
ENDBRANCH   9  10
ENDBRANCH   8   9
ENDBRANCH   1   8
TORSDOF 6
ENDMDL
MODEL       96
REMARK 921   NORMALIZED FREE ENERGY PREDICTED BY IDOCK:   -5.38 KCAL/MOL
REMARK 922        TOTAL FREE ENERGY PREDICTED BY IDOCK:   -8.69 KCAL/MOL
REMARK 923 INTER-LIGAND FREE ENERGY PREDICTED BY IDOCK:   -7.98 KCAL/MOL
REMARK 924 INTRA-LIGAND FREE ENERGY PREDICTED BY IDOCK:   -0.71 KCAL/MOL
REMARK 927      BINDING AFFINITY PREDICTED BY RF-SCORE:    0.00 PKD
ROOT
HETATM    1  CA  UNL     1     -10.195   7.847  69.791  1.00  0.00    -0.212 C  
HETATM    2  C   UNL     1     -10.007   6.320  70.135  1.00  0.00    -0.172 C  
HETATM    3  N   UNL     1     -10.579   7.966  68.338  1.00  0.00    -0.367 NA 
HETATM    4  OXT UNL     1      -9.132   6.080  71.018  1.00  0.00    -0.142 OA 
HETATM    5  H2  UNL     1     -10.827   8.919  68.073  1.00  0.00     0.000 HD 
HETATM    6  O   UNL     1     -10.741   5.530  69.478  1.00  0.00    -0.310 OA 
HETATM    7  H1  UNL     1      -9.815   7.587  67.778  1.00  0.00     0.000 HD 
ENDROOT
BRANCH   1   8
HETATM    8  C   UNL     1     -11.337   8.415  70.630  1.00  0.00    -0.262 C  
BRANCH   8   9
HETATM    9  C   UNL     1     -11.224   9.914  70.926  1.00  0.00    -0.360 C  
BRANCH   9  10
HETATM   10  S   UNL     1     -12.683  10.815  70.235  1.00  0.00    -0.122 S  
HETATM   11  C   UNL     1     -13.280  11.425  71.839  1.00  0.00    -0.380 C  
BRANCH  10  12
HETATM   12  C   UNL     1     -11.776  12.343  69.746  1.00  0.00    -0.291 C  
BRANCH  12  13
HETATM   13  C   UNL     1     -11.741  12.489  68.219  1.00  0.00    -0.340 C  
HETATM   14  O   UNL     1     -11.932  13.865  67.836  1.00  0.00    -0.363 OA 
HETATM   15  C   UNL     1     -11.461  13.974  66.495  1.00  0.00    -0.357 C  
HETATM   16  C   UNL     1     -10.200  13.105  66.447  1.00  0.00    -0.286 C  
HETATM   17  H   UNL     1      -9.577  10.515  66.729  1.00  0.00     0.000 HD 
HETATM   18  O   UNL     1     -10.050  12.427  65.193  1.00  0.00    -0.277 OA 
HETATM   19  C   UNL     1     -10.399  12.101  67.593  1.00  0.00    -0.203 C  
HETATM   20  O   UNL     1     -10.410  10.756  67.118  1.00  0.00    -0.203 OA 
HETATM   21  H   UNL     1      -9.268  11.888  65.163  1.00  0.00     0.000 HD 
BRANCH  15  22
HETATM   22  N   UNL     1     -11.286  15.371  66.157  1.00  0.00    -0.229 NA 
HETATM   23  C   UNL     1     -11.507  15.949  64.935  1.00  0.00    -0.162 A  
HETATM   24  C   UNL     1     -10.388  17.360  66.082  1.00  0.00    -0.327 A  
HETATM   25  N   UNL     1     -10.968  17.150  64.852  1.00  0.00    -0.819 NA 
HETATM   26  C   UNL     1      -9.616  18.414  66.601  1.00  0.00    -0.320 A  
HETATM   27  N   UNL     1      -9.242  18.361  67.900  1.00  0.00    -0.278 NA 
HETATM   28  N   UNL     1      -9.194  19.496  65.842  1.00  0.00    -0.406 NA 
HETATM   29  H2  UNL     1     -10.024  19.910  65.416  1.00  0.00     0.000 HD 
HETATM   30  C   UNL     1      -9.581  17.271  68.620  1.00  0.00    -0.284 A  
HETATM   31  H1  UNL     1      -8.634  20.261  66.219  1.00  0.00     0.000 HD 
HETATM   32  N   UNL     1     -10.238  16.162  68.214  1.00  0.00    -0.242 NA 
HETATM   33  C   UNL     1     -10.626  16.290  66.930  1.00  0.00    -0.270 A  
ENDBRANCH  15  22
ENDBRANCH  12  13
ENDBRANCH  10  12
ENDBRANCH   9  10
ENDBRANCH   8   9
ENDBRANCH   1   8
TORSDOF 6
ENDMDL
MODEL       97
REMARK 921   NORMALIZED FREE ENERGY PREDICTED BY IDOCK:   -5.38 KCAL/MOL
REMARK 922        TOTAL FREE ENERGY PREDICTED BY IDOCK:   -8.69 KCAL/MOL
REMARK 923 INTER-LIGAND FREE ENERGY PREDICTED BY IDOCK:   -7.96 KCAL/MOL
REMARK 924 INTRA-LIGAND FREE ENERGY PREDICTED BY IDOCK:   -0.73 KCAL/MOL
REMARK 927      BINDING AFFINITY PREDICTED BY RF-SCORE:    0.00 PKD
ROOT
HETATM    1  CA  UNL     1     -11.665  13.697  64.377  1.00  0.00    -0.411 C  
HETATM    2  C   UNL     1     -11.930  12.276  63.749  1.00  0.00    -0.519 C  
HETATM    3  N   UNL     1     -12.504  14.709  63.640  1.00  0.00    -1.064 NA 
HETATM    4  OXT UNL     1     -10.937  11.491  63.776  1.00  0.00    -0.375 OA 
HETATM    5  H2  UNL     1     -12.470  15.634  64.067  1.00  0.00     0.000 HD 
HETATM    6  O   UNL     1     -13.093  12.103  63.288  1.00  0.00    -0.693 OA 
HETATM    7  H1  UNL     1     -12.209  14.712  62.664  1.00  0.00     0.000 HD 
ENDROOT
BRANCH   1   8
HETATM    8  C   UNL     1     -12.106  13.691  65.839  1.00  0.00    -0.476 C  
BRANCH   8   9
HETATM    9  C   UNL     1     -11.373  14.700  66.728  1.00  0.00    -0.356 C  
BRANCH   9  10
HETATM   10  S   UNL     1     -10.537  13.831  68.130  1.00  0.00    -0.260 S  
HETATM   11  C   UNL     1     -12.075  13.307  68.944  1.00  0.00    -0.222 C  
BRANCH  10  12
HETATM   12  C   UNL     1     -10.214  12.252  67.237  1.00  0.00    -0.210 C  
BRANCH  12  13
HETATM   13  C   UNL     1      -9.102  11.454  67.931  1.00  0.00    -0.164 C  
HETATM   14  O   UNL     1      -9.625  10.737  69.067  1.00  0.00    -0.197 OA 
HETATM   15  C   UNL     1      -8.672   9.720  69.369  1.00  0.00    -0.174 C  
HETATM   16  C   UNL     1      -8.203   9.200  68.006  1.00  0.00    -0.112 C  
HETATM   17  H   UNL     1      -6.894  10.155  65.874  1.00  0.00     0.000 HD 
HETATM   18  O   UNL     1      -6.813   8.850  68.002  1.00  0.00    -0.068 OA 
HETATM   19  C   UNL     1      -8.478  10.369  67.049  1.00  0.00    -0.127 C  
HETATM   20  O   UNL     1      -7.282  10.827  66.421  1.00  0.00    -0.126 OA 
HETATM   21  H   UNL     1      -6.522   8.528  67.158  1.00  0.00     0.000 HD 
BRANCH  15  22
HETATM   22  N   UNL     1      -9.273   8.743  70.253  1.00  0.00    -0.164 NA 
HETATM   23  C   UNL     1     -10.490   8.135  70.090  1.00  0.00    -0.225 A  
HETATM   24  C   UNL     1      -9.892   7.769  72.107  1.00  0.00    -0.187 A  
HETATM   25  N   UNL     1     -10.899   7.544  71.196  1.00  0.00    -0.236 NA 
HETATM   26  C   UNL     1      -9.753   7.450  73.468  1.00  0.00    -0.288 A  
HETATM   27  N   UNL     1      -8.586   7.750  74.086  1.00  0.00    -0.254 NA 
HETATM   28  N   UNL     1     -10.761   6.866  74.222  1.00  0.00    -0.452 NA 
HETATM   29  H2  UNL     1     -11.045   6.014  73.738  1.00  0.00     0.000 HD 
HETATM   30  C   UNL     1      -7.633   8.390  73.378  1.00  0.00    -0.067 A  
HETATM   31  H1  UNL     1     -10.659   6.635  75.210  1.00  0.00     0.000 HD 
HETATM   32  N   UNL     1      -7.681   8.827  72.100  1.00  0.00    -0.344 NA 
HETATM   33  C   UNL     1      -8.842   8.461  71.522  1.00  0.00    -0.185 A  
ENDBRANCH  15  22
ENDBRANCH  12  13
ENDBRANCH  10  12
ENDBRANCH   9  10
ENDBRANCH   8   9
ENDBRANCH   1   8
TORSDOF 6
ENDMDL
MODEL       98
REMARK 921   NORMALIZED FREE ENERGY PREDICTED BY IDOCK:   -5.38 KCAL/MOL
REMARK 922        TOTAL FREE ENERGY PREDICTED BY IDOCK:   -8.69 KCAL/MOL
REMARK 923 INTER-LIGAND FREE ENERGY PREDICTED BY IDOCK:   -8.17 KCAL/MOL
REMARK 924 INTRA-LIGAND FREE ENERGY PREDICTED BY IDOCK:   -0.52 KCAL/MOL
REMARK 927      BINDING AFFINITY PREDICTED BY RF-SCORE:    0.00 PKD
ROOT
HETATM    1  CA  UNL     1     -11.024  13.491  64.928  1.00  0.00    -0.352 C  
HETATM    2  C   UNL     1     -12.440  13.873  64.350  1.00  0.00    -0.279 C  
HETATM    3  N   UNL     1     -10.736  14.377  66.113  1.00  0.00    -0.298 NA 
HETATM    4  OXT UNL     1     -12.558  13.726  63.099  1.00  0.00    -0.793 OA 
HETATM    5  H2  UNL     1      -9.885  14.110  66.607  1.00  0.00     0.000 HD 
HETATM    6  O   UNL     1     -13.271  14.290  65.204  1.00  0.00    -0.686 OA 
HETATM    7  H1  UNL     1     -10.716  15.343  65.786  1.00  0.00     0.000 HD 
ENDROOT
BRANCH   1   8
HETATM    8  C   UNL     1     -11.055  12.044  65.417  1.00  0.00    -0.369 C  
BRANCH   8   9
HETATM    9  C   UNL     1     -11.526  11.872  66.864  1.00  0.00    -0.322 C  
BRANCH   9  10
HETATM   10  S   UNL     1     -10.582  10.512  67.688  1.00  0.00    -0.271 S  
HETATM   11  C   UNL     1      -8.957  11.307  67.517  1.00  0.00    -0.140 C  
BRANCH  10  12
HETATM   12  C   UNL     1     -10.905  11.049  69.421  1.00  0.00    -0.231 C  
BRANCH  12  13
HETATM   13  C   UNL     1     -11.906  10.107  70.103  1.00  0.00    -0.222 C  
HETATM   14  O   UNL     1     -11.348   8.785  70.235  1.00  0.00    -0.239 OA 
HETATM   15  C   UNL     1     -12.125   8.123  71.231  1.00  0.00    -0.288 C  
HETATM   16  C   UNL     1     -12.393   9.189  72.298  1.00  0.00    -0.309 C  
HETATM   17  H   UNL     1     -13.692  11.525  72.469  1.00  0.00     0.000 HD 
HETATM   18  O   UNL     1     -13.695   9.062  72.884  1.00  0.00    -0.864 OA 
HETATM   19  C   UNL     1     -12.261  10.516  71.535  1.00  0.00    -0.286 C  
HETATM   20  O   UNL     1     -13.471  11.271  71.581  1.00  0.00    -0.253 OA 
HETATM   21  H   UNL     1     -13.861   9.723  73.545  1.00  0.00     0.000 HD 
BRANCH  15  22
HETATM   22  N   UNL     1     -11.426   6.935  71.677  1.00  0.00    -0.262 NA 
HETATM   23  C   UNL     1     -11.022   6.659  72.957  1.00  0.00    -0.247 A  
HETATM   24  C   UNL     1      -9.997   5.284  71.685  1.00  0.00    -0.180 A  
HETATM   25  N   UNL     1     -10.149   5.671  72.997  1.00  0.00    -0.176 NA 
HETATM   26  C   UNL     1      -9.172   4.331  71.064  1.00  0.00    -0.140 A  
HETATM   27  N   UNL     1      -9.307   4.128  69.733  1.00  0.00    -0.148 NA 
HETATM   28  N   UNL     1      -8.204   3.603  71.742  1.00  0.00    -0.066 NA 
HETATM   29  H2  UNL     1      -8.666   3.140  72.525  1.00  0.00     0.000 HD 
HETATM   30  C   UNL     1     -10.190   4.890  69.056  1.00  0.00    -0.094 A  
HETATM   31  H1  UNL     1      -7.605   2.912  71.291  1.00  0.00     0.000 HD 
HETATM   32  N   UNL     1     -10.970   5.892  69.519  1.00  0.00    -0.372 NA 
HETATM   33  C   UNL     1     -10.829   6.018  70.854  1.00  0.00    -0.285 A  
ENDBRANCH  15  22
ENDBRANCH  12  13
ENDBRANCH  10  12
ENDBRANCH   9  10
ENDBRANCH   8   9
ENDBRANCH   1   8
TORSDOF 6
ENDMDL
MODEL       99
REMARK 921   NORMALIZED FREE ENERGY PREDICTED BY IDOCK:   -5.37 KCAL/MOL
REMARK 922        TOTAL FREE ENERGY PREDICTED BY IDOCK:   -8.67 KCAL/MOL
REMARK 923 INTER-LIGAND FREE ENERGY PREDICTED BY IDOCK:   -8.27 KCAL/MOL
REMARK 924 INTRA-LIGAND FREE ENERGY PREDICTED BY IDOCK:   -0.41 KCAL/MOL
REMARK 927      BINDING AFFINITY PREDICTED BY RF-SCORE:    0.00 PKD
ROOT
HETATM    1  CA  UNL     1     -12.981   8.849  71.805  1.00  0.00    -0.367 C  
HETATM    2  C   UNL     1     -12.033   7.589  71.803  1.00  0.00    -0.301 C  
HETATM    3  N   UNL     1     -13.708   8.897  73.124  1.00  0.00    -1.100 NA 
HETATM    4  OXT UNL     1     -11.864   7.056  70.667  1.00  0.00    -0.339 OA 
HETATM    5  H2  UNL     1     -14.255   9.750  73.241  1.00  0.00     0.000 HD 
HETATM    6  O   UNL     1     -11.574   7.264  72.933  1.00  0.00    -0.229 OA 
HETATM    7  H1  UNL     1     -14.273   8.052  73.204  1.00  0.00     0.000 HD 
ENDROOT
BRANCH   1   8
HETATM    8  C   UNL     1     -12.135  10.115  71.684  1.00  0.00    -0.373 C  
BRANCH   8   9
HETATM    9  C   UNL     1     -12.908  11.353  71.219  1.00  0.00    -0.379 C  
BRANCH   9  10
HETATM   10  S   UNL     1     -12.400  11.819  69.503  1.00  0.00     0.048 S  
HETATM   11  C   UNL     1     -11.707  13.434  69.966  1.00  0.00    -0.227 C  
BRANCH  10  12
HETATM   12  C   UNL     1     -10.807  10.893  69.496  1.00  0.00    -0.238 C  
BRANCH  12  13
HETATM   13  C   UNL     1     -10.083  11.070  68.154  1.00  0.00    -0.179 C  
HETATM   14  O   UNL     1     -10.215  12.425  67.681  1.00  0.00    -0.202 OA 
HETATM   15  C   UNL     1      -9.189  12.609  66.708  1.00  0.00    -0.225 C  
HETATM   16  C   UNL     1      -7.968  11.880  67.277  1.00  0.00    -0.171 C  
HETATM   17  H   UNL     1      -7.285   9.366  67.900  1.00  0.00     0.000 HD 
HETATM   18  O   UNL     1      -7.185  11.245  66.258  1.00  0.00    -0.292 OA 
HETATM   19  C   UNL     1      -8.571  10.839  68.233  1.00  0.00    -0.135 C  
HETATM   20  O   UNL     1      -8.223   9.510  67.851  1.00  0.00    -0.112 OA 
HETATM   21  H   UNL     1      -6.428  10.793  66.610  1.00  0.00     0.000 HD 
BRANCH  15  22
HETATM   22  N   UNL     1      -9.023  14.023  66.444  1.00  0.00    -0.093 NA 
HETATM   23  C   UNL     1      -8.189  14.884  67.109  1.00  0.00    -0.215 A  
HETATM   24  C   UNL     1      -9.543  16.093  65.984  1.00  0.00    -0.346 A  
HETATM   25  N   UNL     1      -8.483  16.146  66.861  1.00  0.00    -0.206 NA 
HETATM   26  C   UNL     1     -10.340  17.090  65.396  1.00  0.00    -0.063 A  
HETATM   27  N   UNL     1     -11.282  16.718  64.499  1.00  0.00    -1.039 NA 
HETATM   28  N   UNL     1     -10.229  18.438  65.706  1.00  0.00    -0.578 NA 
HETATM   29  H2  UNL     1      -9.255  18.703  65.560  1.00  0.00     0.000 HD 
HETATM   30  C   UNL     1     -11.448  15.401  64.254  1.00  0.00    -0.171 A  
HETATM   31  H1  UNL     1     -10.808  19.161  65.279  1.00  0.00     0.000 HD 
HETATM   32  N   UNL     1     -10.812  14.351  64.818  1.00  0.00    -0.407 NA 
HETATM   33  C   UNL     1      -9.855  14.781  65.664  1.00  0.00    -0.327 A  
ENDBRANCH  15  22
ENDBRANCH  12  13
ENDBRANCH  10  12
ENDBRANCH   9  10
ENDBRANCH   8   9
ENDBRANCH   1   8
TORSDOF 6
ENDMDL
MODEL      100
REMARK 921   NORMALIZED FREE ENERGY PREDICTED BY IDOCK:   -5.35 KCAL/MOL
REMARK 922        TOTAL FREE ENERGY PREDICTED BY IDOCK:   -8.65 KCAL/MOL
REMARK 923 INTER-LIGAND FREE ENERGY PREDICTED BY IDOCK:   -7.83 KCAL/MOL
REMARK 924 INTRA-LIGAND FREE ENERGY PREDICTED BY IDOCK:   -0.81 KCAL/MOL
REMARK 927      BINDING AFFINITY PREDICTED BY RF-SCORE:    0.00 PKD
ROOT
HETATM    1  CA  UNL     1      -8.633   4.979  68.677  1.00  0.00    -0.093 C  
HETATM    2  C   UNL     1      -9.107   3.748  67.814  1.00  0.00    -0.157 C  
HETATM    3  N   UNL     1      -7.783   5.872  67.811  1.00  0.00    -0.096 NA 
HETATM    4  OXT UNL     1      -9.251   2.671  68.462  1.00  0.00    -0.151 OA 
HETATM    5  H2  UNL     1      -7.534   6.747  68.271  1.00  0.00     0.000 HD 
HETATM    6  O   UNL     1      -9.269   3.989  66.585  1.00  0.00    -0.139 OA 
HETATM    7  H1  UNL     1      -6.967   5.338  67.512  1.00  0.00     0.000 HD 
ENDROOT
BRANCH   1   8
HETATM    8  C   UNL     1      -9.855   5.779  69.126  1.00  0.00    -0.211 C  
BRANCH   8   9
HETATM    9  C   UNL     1      -9.532   6.997  69.996  1.00  0.00    -0.161 C  
BRANCH   9  10
HETATM   10  S   UNL     1     -11.036   8.052  70.204  1.00  0.00    -0.187 S  
HETATM   11  C   UNL     1     -10.645   8.570  71.902  1.00  0.00    -0.322 C  
BRANCH  10  12
HETATM   12  C   UNL     1     -10.364   9.547  69.361  1.00  0.00    -0.214 C  
BRANCH  12  13
HETATM   13  C   UNL     1     -10.665   9.503  67.857  1.00  0.00    -0.228 C  
HETATM   14  O   UNL     1     -11.406  10.671  67.454  1.00  0.00    -0.401 OA 
HETATM   15  C   UNL     1     -11.260  10.766  66.039  1.00  0.00     0.303 C  
HETATM   16  C   UNL     1      -9.803  10.381  65.764  1.00  0.00    -0.239 C  
HETATM   17  H   UNL     1      -8.249   8.217  66.039  1.00  0.00     0.000 HD 
HETATM   18  O   UNL     1      -9.652   9.644  64.544  1.00  0.00    -0.429 OA 
HETATM   19  C   UNL     1      -9.413   9.522  66.976  1.00  0.00    -0.155 C  
HETATM   20  O   UNL     1      -9.025   8.206  66.585  1.00  0.00    -0.136 OA 
HETATM   21  H   UNL     1      -8.749   9.405  64.374  1.00  0.00     0.000 HD 
BRANCH  15  22
HETATM   22  N   UNL     1     -11.666  12.085  65.599  1.00  0.00    -0.404 NA 
HETATM   23  C   UNL     1     -12.649  12.375  64.690  1.00  0.00    -0.375 A  
HETATM   24  C   UNL     1     -11.506  14.161  64.942  1.00  0.00    -0.366 A  
HETATM   25  N   UNL     1     -12.575  13.621  64.264  1.00  0.00    -0.664 NA 
HETATM   26  C   UNL     1     -10.884  15.420  64.889  1.00  0.00    -0.425 A  
HETATM   27  N   UNL     1      -9.875  15.679  65.752  1.00  0.00    -0.340 NA 
HETATM   28  N   UNL     1     -11.234  16.405  63.977  1.00  0.00    -1.427 NA 
HETATM   29  H2  UNL     1     -12.237  16.567  64.075  1.00  0.00     0.000 HD 
HETATM   30  C   UNL     1      -9.477  14.695  66.586  1.00  0.00    -0.278 A  
HETATM   31  H1  UNL     1     -10.782  17.319  63.938  1.00  0.00     0.000 HD 
HETATM   32  N   UNL     1      -9.931  13.426  66.670  1.00  0.00    -0.270 NA 
HETATM   33  C   UNL     1     -10.964  13.239  65.824  1.00  0.00    -0.270 A  
ENDBRANCH  15  22
ENDBRANCH  12  13
ENDBRANCH  10  12
ENDBRANCH   9  10
ENDBRANCH   8   9
ENDBRANCH   1   8
TORSDOF 6
ENDMDL
MODEL      101
REMARK 921   NORMALIZED FREE ENERGY PREDICTED BY IDOCK:   -5.35 KCAL/MOL
REMARK 922        TOTAL FREE ENERGY PREDICTED BY IDOCK:   -8.64 KCAL/MOL
REMARK 923 INTER-LIGAND FREE ENERGY PREDICTED BY IDOCK:   -7.54 KCAL/MOL
REMARK 924 INTRA-LIGAND FREE ENERGY PREDICTED BY IDOCK:   -1.11 KCAL/MOL
REMARK 927      BINDING AFFINITY PREDICTED BY RF-SCORE:    0.00 PKD
ROOT
HETATM    1  CA  UNL     1     -12.790  15.483  71.487  1.00  0.00    -0.451 C  
HETATM    2  C   UNL     1     -13.311  14.592  72.679  1.00  0.00    -0.482 C  
HETATM    3  N   UNL     1     -12.031  16.651  72.060  1.00  0.00    -0.577 NA 
HETATM    4  OXT UNL     1     -14.411  14.005  72.460  1.00  0.00    -0.626 OA 
HETATM    5  H2  UNL     1     -11.568  17.210  71.344  1.00  0.00     0.000 HD 
HETATM    6  O   UNL     1     -12.574  14.588  73.704  1.00  0.00    -0.410 OA 
HETATM    7  H1  UNL     1     -12.676  17.198  72.630  1.00  0.00     0.000 HD 
ENDROOT
BRANCH   1   8
HETATM    8  C   UNL     1     -11.824  14.664  70.633  1.00  0.00    -0.367 C  
BRANCH   8   9
HETATM    9  C   UNL     1     -10.641  15.460  70.072  1.00  0.00    -0.303 C  
BRANCH   9  10
HETATM   10  S   UNL     1     -11.113  16.275  68.481  1.00  0.00    -0.357 S  
HETATM   11  C   UNL     1     -10.444  17.906  68.922  1.00  0.00    -0.157 C  
BRANCH  10  12
HETATM   12  C   UNL     1      -9.658  15.698  67.508  1.00  0.00    -0.224 C  
BRANCH  12  13
HETATM   13  C   UNL     1      -9.961  14.362  66.818  1.00  0.00    -0.263 C  
HETATM   14  O   UNL     1      -9.472  13.260  67.609  1.00  0.00    -0.197 OA 
HETATM   15  C   UNL     1     -10.157  12.100  67.142  1.00  0.00    -0.206 C  
HETATM   16  C   UNL     1     -11.594  12.566  66.884  1.00  0.00    -0.370 C  
HETATM   17  H   UNL     1     -12.850  14.280  65.254  1.00  0.00     0.000 HD 
HETATM   18  O   UNL     1     -12.181  11.924  65.745  1.00  0.00    -0.422 OA 
HETATM   19  C   UNL     1     -11.457  14.078  66.652  1.00  0.00    -0.364 C  
HETATM   20  O   UNL     1     -11.922  14.456  65.358  1.00  0.00    -0.364 OA 
HETATM   21  H   UNL     1     -13.072  12.213  65.585  1.00  0.00     0.000 HD 
BRANCH  15  22
HETATM   22  N   UNL     1      -9.996  11.027  68.101  1.00  0.00    -0.172 NA 
HETATM   23  C   UNL     1     -10.670  10.883  69.285  1.00  0.00    -0.231 A  
HETATM   24  C   UNL     1      -9.011   9.540  69.361  1.00  0.00    -0.172 A  
HETATM   25  N   UNL     1     -10.095   9.998  70.076  1.00  0.00    -0.253 NA 
HETATM   26  C   UNL     1      -7.979   8.640  69.673  1.00  0.00    -0.096 A  
HETATM   27  N   UNL     1      -7.077   8.333  68.711  1.00  0.00    -0.069 NA 
HETATM   28  N   UNL     1      -7.819   8.067  70.926  1.00  0.00    -0.086 NA 
HETATM   29  H2  UNL     1      -8.700   7.612  71.166  1.00  0.00     0.000 HD 
HETATM   30  C   UNL     1      -7.182   8.950  67.516  1.00  0.00    -0.080 A  
HETATM   31  H1  UNL     1      -7.069   7.413  71.152  1.00  0.00     0.000 HD 
HETATM   32  N   UNL     1      -8.068   9.893  67.127  1.00  0.00    -0.116 NA 
HETATM   33  C   UNL     1      -8.967  10.123  68.104  1.00  0.00    -0.122 A  
ENDBRANCH  15  22
ENDBRANCH  12  13
ENDBRANCH  10  12
ENDBRANCH   9  10
ENDBRANCH   8   9
ENDBRANCH   1   8
TORSDOF 6
ENDMDL
MODEL      102
REMARK 921   NORMALIZED FREE ENERGY PREDICTED BY IDOCK:   -5.34 KCAL/MOL
REMARK 922        TOTAL FREE ENERGY PREDICTED BY IDOCK:   -8.63 KCAL/MOL
REMARK 923 INTER-LIGAND FREE ENERGY PREDICTED BY IDOCK:   -8.07 KCAL/MOL
REMARK 924 INTRA-LIGAND FREE ENERGY PREDICTED BY IDOCK:   -0.57 KCAL/MOL
REMARK 927      BINDING AFFINITY PREDICTED BY RF-SCORE:    0.00 PKD
ROOT
HETATM    1  CA  UNL     1     -12.550  12.234  64.503  1.00  0.00    -0.327 C  
HETATM    2  C   UNL     1     -12.810  13.787  64.567  1.00  0.00     0.079 C  
HETATM    3  N   UNL     1     -12.471  11.822  63.056  1.00  0.00    -0.908 NA 
HETATM    4  OXT UNL     1     -13.498  14.169  65.559  1.00  0.00    -0.643 OA 
HETATM    5  H2  UNL     1     -12.192  10.848  62.938  1.00  0.00     0.000 HD 
HETATM    6  O   UNL     1     -12.311  14.452  63.617  1.00  0.00    -0.722 OA 
HETATM    7  H1  UNL     1     -13.369  12.031  62.619  1.00  0.00     0.000 HD 
ENDROOT
BRANCH   1   8
HETATM    8  C   UNL     1     -11.207  11.921  65.158  1.00  0.00    -0.346 C  
BRANCH   8   9
HETATM    9  C   UNL     1     -10.019  11.895  64.191  1.00  0.00    -0.262 C  
BRANCH   9  10
HETATM   10  S   UNL     1      -9.443  10.157  63.929  1.00  0.00    -0.223 S  
HETATM   11  C   UNL     1      -8.404  10.539  62.488  1.00  0.00    -0.197 C  
BRANCH  10  12
HETATM   12  C   UNL     1      -8.095  10.190  65.184  1.00  0.00    -0.148 C  
BRANCH  12  13
HETATM   13  C   UNL     1      -8.578   9.598  66.515  1.00  0.00    -0.127 C  
HETATM   14  O   UNL     1      -8.975  10.646  67.422  1.00  0.00    -0.136 OA 
HETATM   15  C   UNL     1      -9.791  10.026  68.413  1.00  0.00    -0.154 C  
HETATM   16  C   UNL     1     -10.645   9.012  67.646  1.00  0.00    -0.231 C  
HETATM   17  H   UNL     1     -10.249   6.786  66.210  1.00  0.00     0.000 HD 
HETATM   18  O   UNL     1     -10.879   7.814  68.397  1.00  0.00    -0.406 OA 
HETATM   19  C   UNL     1      -9.821   8.715  66.383  1.00  0.00    -0.270 C  
HETATM   20  O   UNL     1      -9.478   7.334  66.292  1.00  0.00    -0.156 OA 
HETATM   21  H   UNL     1     -11.408   7.185  67.922  1.00  0.00     0.000 HD 
BRANCH  15  22
HETATM   22  N   UNL     1     -10.514  11.043  69.148  1.00  0.00    -0.222 NA 
HETATM   23  C   UNL     1     -11.465  10.833  70.111  1.00  0.00    -0.331 A  
HETATM   24  C   UNL     1     -11.619  12.885  69.542  1.00  0.00    -0.282 A  
HETATM   25  N   UNL     1     -12.159  11.925  70.367  1.00  0.00    -0.358 NA 
HETATM   26  C   UNL     1     -11.952  14.229  69.302  1.00  0.00    -0.335 A  
HETATM   27  N   UNL     1     -11.169  14.950  68.466  1.00  0.00    -0.266 NA 
HETATM   28  N   UNL     1     -13.061  14.851  69.857  1.00  0.00    -0.463 NA 
HETATM   29  H2  UNL     1     -13.002  14.730  70.868  1.00  0.00     0.000 HD 
HETATM   30  C   UNL     1     -10.136  14.327  67.861  1.00  0.00    -0.233 A  
HETATM   31  H1  UNL     1     -13.304  15.826  69.682  1.00  0.00     0.000 HD 
HETATM   32  N   UNL     1      -9.770  13.029  67.940  1.00  0.00    -0.212 NA 
HETATM   33  C   UNL     1     -10.553  12.373  68.819  1.00  0.00    -0.183 A  
ENDBRANCH  15  22
ENDBRANCH  12  13
ENDBRANCH  10  12
ENDBRANCH   9  10
ENDBRANCH   8   9
ENDBRANCH   1   8
TORSDOF 6
ENDMDL
MODEL      103
REMARK 921   NORMALIZED FREE ENERGY PREDICTED BY IDOCK:   -5.32 KCAL/MOL
REMARK 922        TOTAL FREE ENERGY PREDICTED BY IDOCK:   -8.60 KCAL/MOL
REMARK 923 INTER-LIGAND FREE ENERGY PREDICTED BY IDOCK:   -7.58 KCAL/MOL
REMARK 924 INTRA-LIGAND FREE ENERGY PREDICTED BY IDOCK:   -1.02 KCAL/MOL
REMARK 927      BINDING AFFINITY PREDICTED BY RF-SCORE:    0.00 PKD
ROOT
HETATM    1  CA  UNL     1      -8.061   9.071  65.308  1.00  0.00    -0.126 C  
HETATM    2  C   UNL     1      -9.495   9.627  64.961  1.00  0.00    -0.245 C  
HETATM    3  N   UNL     1      -7.509   8.378  64.089  1.00  0.00    -0.107 NA 
HETATM    4  OXT UNL     1     -10.304   9.647  65.934  1.00  0.00    -0.207 OA 
HETATM    5  H2  UNL     1      -6.537   8.092  64.205  1.00  0.00     0.000 HD 
HETATM    6  O   UNL     1      -9.659   9.968  63.757  1.00  0.00    -0.280 OA 
HETATM    7  H1  UNL     1      -8.126   7.598  63.863  1.00  0.00     0.000 HD 
ENDROOT
BRANCH   1   8
HETATM    8  C   UNL     1      -7.137  10.239  65.647  1.00  0.00    -0.137 C  
BRANCH   8   9
HETATM    9  C   UNL     1      -6.602  10.231  67.082  1.00  0.00    -0.073 C  
BRANCH   9  10
HETATM   10  S   UNL     1      -7.914  10.791  68.259  1.00  0.00    -0.125 S  
HETATM   11  C   UNL     1      -6.760  11.495  69.474  1.00  0.00    -0.106 C  
BRANCH  10  12
HETATM   12  C   UNL     1      -8.311  12.370  67.397  1.00  0.00    -0.180 C  
BRANCH  12  13
HETATM   13  C   UNL     1      -9.822  12.636  67.421  1.00  0.00    -0.205 C  
HETATM   14  O   UNL     1     -10.210  13.250  68.665  1.00  0.00    -0.232 OA 
HETATM   15  C   UNL     1     -11.486  13.844  68.435  1.00  0.00    -0.311 C  
HETATM   16  C   UNL     1     -11.397  14.441  67.028  1.00  0.00    -0.346 C  
HETATM   17  H   UNL     1     -11.073  13.550  64.523  1.00  0.00     0.000 HD 
HETATM   18  O   UNL     1     -12.633  14.335  66.309  1.00  0.00    -0.488 OA 
HETATM   19  C   UNL     1     -10.293  13.619  66.346  1.00  0.00    -0.286 C  
HETATM   20  O   UNL     1     -10.781  12.940  65.190  1.00  0.00    -0.289 OA 
HETATM   21  H   UNL     1     -12.578  14.706  65.436  1.00  0.00     0.000 HD 
BRANCH  15  22
HETATM   22  N   UNL     1     -11.786  14.772  69.505  1.00  0.00    -0.302 NA 
HETATM   23  C   UNL     1     -11.201  15.993  69.714  1.00  0.00    -0.344 A  
HETATM   24  C   UNL     1     -12.242  15.503  71.512  1.00  0.00    -0.397 A  
HETATM   25  N   UNL     1     -11.448  16.460  70.923  1.00  0.00    -0.307 NA 
HETATM   26  C   UNL     1     -12.787  15.383  72.802  1.00  0.00    -0.427 A  
HETATM   27  N   UNL     1     -13.605  14.337  73.063  1.00  0.00    -0.600 NA 
HETATM   28  N   UNL     1     -12.508  16.268  73.833  1.00  0.00    -0.565 NA 
HETATM   29  H2  UNL     1     -12.731  17.205  73.496  1.00  0.00     0.000 HD 
HETATM   30  C   UNL     1     -13.813  13.429  72.087  1.00  0.00    -0.511 A  
HETATM   31  H1  UNL     1     -12.904  16.181  74.769  1.00  0.00     0.000 HD 
HETATM   32  N   UNL     1     -13.281  13.386  70.846  1.00  0.00    -0.039 NA 
HETATM   33  C   UNL     1     -12.515  14.472  70.626  1.00  0.00    -0.343 A  
ENDBRANCH  15  22
ENDBRANCH  12  13
ENDBRANCH  10  12
ENDBRANCH   9  10
ENDBRANCH   8   9
ENDBRANCH   1   8
TORSDOF 6
ENDMDL
MODEL      104
REMARK 921   NORMALIZED FREE ENERGY PREDICTED BY IDOCK:   -5.31 KCAL/MOL
REMARK 922        TOTAL FREE ENERGY PREDICTED BY IDOCK:   -8.59 KCAL/MOL
REMARK 923 INTER-LIGAND FREE ENERGY PREDICTED BY IDOCK:   -7.75 KCAL/MOL
REMARK 924 INTRA-LIGAND FREE ENERGY PREDICTED BY IDOCK:   -0.85 KCAL/MOL
REMARK 927      BINDING AFFINITY PREDICTED BY RF-SCORE:    0.00 PKD
ROOT
HETATM    1  CA  UNL     1     -10.185   8.252  68.785  1.00  0.00    -0.210 C  
HETATM    2  C   UNL     1      -9.399   7.517  69.937  1.00  0.00    -0.150 C  
HETATM    3  N   UNL     1     -11.036   9.332  69.402  1.00  0.00    -0.425 NA 
HETATM    4  OXT UNL     1      -9.176   6.289  69.725  1.00  0.00    -0.144 OA 
HETATM    5  H2  UNL     1     -11.488   9.924  68.705  1.00  0.00     0.000 HD 
HETATM    6  O   UNL     1      -9.103   8.240  70.928  1.00  0.00    -0.141 OA 
HETATM    7  H1  UNL     1     -11.703   8.887  70.033  1.00  0.00     0.000 HD 
ENDROOT
BRANCH   1   8
HETATM    8  C   UNL     1      -9.188   8.917  67.840  1.00  0.00    -0.148 C  
BRANCH   8   9
HETATM    9  C   UNL     1      -9.034  10.428  68.040  1.00  0.00    -0.129 C  
BRANCH   9  10
HETATM   10  S   UNL     1      -8.740  11.263  66.416  1.00  0.00    -0.179 S  
HETATM   11  C   UNL     1      -7.588  10.006  65.787  1.00  0.00    -0.120 C  
BRANCH  10  12
HETATM   12  C   UNL     1     -10.246  10.619  65.571  1.00  0.00    -0.262 C  
BRANCH  12  13
HETATM   13  C   UNL     1     -11.244  11.753  65.304  1.00  0.00    -0.254 C  
HETATM   14  O   UNL     1     -10.899  12.923  66.070  1.00  0.00    -0.274 OA 
HETATM   15  C   UNL     1     -11.577  14.016  65.453  1.00  0.00    -0.328 C  
HETATM   16  C   UNL     1     -11.462  13.755  63.949  1.00  0.00    -0.111 C  
HETATM   17  H   UNL     1     -12.300  11.911  62.196  1.00  0.00     0.000 HD 
HETATM   18  O   UNL     1     -12.636  14.159  63.231  1.00  0.00    -1.080 OA 
HETATM   19  C   UNL     1     -11.256  12.236  63.851  1.00  0.00    -0.421 C  
HETATM   20  O   UNL     1     -12.293  11.611  63.098  1.00  0.00    -0.399 OA 
HETATM   21  H   UNL     1     -12.564  13.997  62.298  1.00  0.00     0.000 HD 
BRANCH  15  22
HETATM   22  N   UNL     1     -11.015  15.263  65.930  1.00  0.00    -0.337 NA 
HETATM   23  C   UNL     1     -10.229  16.129  65.216  1.00  0.00    -0.170 A  
HETATM   24  C   UNL     1     -10.046  16.691  67.268  1.00  0.00    -0.279 A  
HETATM   25  N   UNL     1      -9.619  17.001  65.996  1.00  0.00    -0.484 NA 
HETATM   26  C   UNL     1      -9.718  17.208  68.532  1.00  0.00    -0.291 A  
HETATM   27  N   UNL     1     -10.375  16.732  69.615  1.00  0.00    -0.211 NA 
HETATM   28  N   UNL     1      -8.734  18.166  68.733  1.00  0.00    -0.261 NA 
HETATM   29  H2  UNL     1      -8.955  18.958  68.130  1.00  0.00     0.000 HD 
HETATM   30  C   UNL     1     -11.275  15.743  69.434  1.00  0.00    -0.324 A  
HETATM   31  H1  UNL     1      -8.496  18.541  69.651  1.00  0.00     0.000 HD 
HETATM   32  N   UNL     1     -11.610  15.106  68.291  1.00  0.00    -0.336 NA 
HETATM   33  C   UNL     1     -10.963  15.651  67.242  1.00  0.00    -0.275 A  
ENDBRANCH  15  22
ENDBRANCH  12  13
ENDBRANCH  10  12
ENDBRANCH   9  10
ENDBRANCH   8   9
ENDBRANCH   1   8
TORSDOF 6
ENDMDL
MODEL      105
REMARK 921   NORMALIZED FREE ENERGY PREDICTED BY IDOCK:   -5.29 KCAL/MOL
REMARK 922        TOTAL FREE ENERGY PREDICTED BY IDOCK:   -8.56 KCAL/MOL
REMARK 923 INTER-LIGAND FREE ENERGY PREDICTED BY IDOCK:   -7.56 KCAL/MOL
REMARK 924 INTRA-LIGAND FREE ENERGY PREDICTED BY IDOCK:   -1.00 KCAL/MOL
REMARK 927      BINDING AFFINITY PREDICTED BY RF-SCORE:    0.00 PKD
ROOT
HETATM    1  CA  UNL     1     -12.671   7.694  71.774  1.00  0.00    -0.330 C  
HETATM    2  C   UNL     1     -13.364   9.108  71.719  1.00  0.00    -0.406 C  
HETATM    3  N   UNL     1     -12.409   7.235  70.363  1.00  0.00    -0.568 NA 
HETATM    4  OXT UNL     1     -14.179   9.336  72.661  1.00  0.00    -0.498 OA 
HETATM    5  H2  UNL     1     -11.859   6.377  70.323  1.00  0.00     0.000 HD 
HETATM    6  O   UNL     1     -13.030   9.830  70.738  1.00  0.00    -0.262 OA 
HETATM    7  H1  UNL     1     -13.307   7.151  69.887  1.00  0.00     0.000 HD 
ENDROOT
BRANCH   1   8
HETATM    8  C   UNL     1     -11.327   7.820  72.488  1.00  0.00    -0.429 C  
BRANCH   8   9
HETATM    9  C   UNL     1     -10.128   7.317  71.678  1.00  0.00    -0.184 C  
BRANCH   9  10
HETATM   10  S   UNL     1      -8.606   8.266  72.128  1.00  0.00    -0.199 S  
HETATM   11  C   UNL     1      -7.493   6.830  72.084  1.00  0.00    -0.093 C  
BRANCH  10  12
HETATM   12  C   UNL     1      -8.232   8.884  70.433  1.00  0.00    -0.138 C  
BRANCH  12  13
HETATM   13  C   UNL     1      -9.464   8.760  69.527  1.00  0.00    -0.165 C  
HETATM   14  O   UNL     1      -9.837  10.048  68.999  1.00  0.00    -0.179 OA 
HETATM   15  C   UNL     1     -10.670   9.790  67.871  1.00  0.00    -0.258 C  
HETATM   16  C   UNL     1     -10.027   8.588  67.171  1.00  0.00    -0.238 C  
HETATM   17  H   UNL     1      -9.537   6.014  67.724  1.00  0.00     0.000 HD 
HETATM   18  O   UNL     1     -10.999   7.701  66.604  1.00  0.00    -0.381 OA 
HETATM   19  C   UNL     1      -9.234   7.891  68.287  1.00  0.00    -0.137 C  
HETATM   20  O   UNL     1      -9.680   6.553  68.493  1.00  0.00    -0.129 OA 
HETATM   21  H   UNL     1     -10.601   6.955  66.170  1.00  0.00     0.000 HD 
BRANCH  15  22
HETATM   22  N   UNL     1     -10.797  10.996  67.079  1.00  0.00    -0.274 NA 
HETATM   23  C   UNL     1     -10.352  11.181  65.797  1.00  0.00    -0.260 A  
HETATM   24  C   UNL     1     -10.795  13.120  66.573  1.00  0.00    -0.280 A  
HETATM   25  N   UNL     1     -10.328  12.456  65.461  1.00  0.00    -0.266 NA 
HETATM   26  C   UNL     1     -10.951  14.485  66.869  1.00  0.00    -0.316 A  
HETATM   27  N   UNL     1     -11.516  14.829  68.049  1.00  0.00    -0.318 NA 
HETATM   28  N   UNL     1     -10.532  15.502  66.023  1.00  0.00    -0.307 NA 
HETATM   29  H2  UNL     1     -10.964  15.337  65.114  1.00  0.00     0.000 HD 
HETATM   30  C   UNL     1     -11.851  13.845  68.910  1.00  0.00    -0.358 A  
HETATM   31  H1  UNL     1     -10.645  16.492  66.238  1.00  0.00     0.000 HD 
HETATM   32  N   UNL     1     -11.670  12.513  68.780  1.00  0.00    -0.312 NA 
HETATM   33  C   UNL     1     -11.150  12.225  67.570  1.00  0.00    -0.275 A  
ENDBRANCH  15  22
ENDBRANCH  12  13
ENDBRANCH  10  12
ENDBRANCH   9  10
ENDBRANCH   8   9
ENDBRANCH   1   8
TORSDOF 6
ENDMDL
MODEL      106
REMARK 921   NORMALIZED FREE ENERGY PREDICTED BY IDOCK:   -5.27 KCAL/MOL
REMARK 922        TOTAL FREE ENERGY PREDICTED BY IDOCK:   -8.54 KCAL/MOL
REMARK 923 INTER-LIGAND FREE ENERGY PREDICTED BY IDOCK:   -8.19 KCAL/MOL
REMARK 924 INTRA-LIGAND FREE ENERGY PREDICTED BY IDOCK:   -0.35 KCAL/MOL
REMARK 927      BINDING AFFINITY PREDICTED BY RF-SCORE:    0.00 PKD
ROOT
HETATM    1  CA  UNL     1      -9.955   4.910  65.238  1.00  0.00     0.036 C  
HETATM    2  C   UNL     1      -9.013   3.761  64.711  1.00  0.00    -0.125 C  
HETATM    3  N   UNL     1     -11.381   4.428  65.165  1.00  0.00    -1.082 NA 
HETATM    4  OXT UNL     1      -7.963   4.163  64.128  1.00  0.00    -0.086 OA 
HETATM    5  H2  UNL     1     -12.039   5.078  65.596  1.00  0.00     0.000 HD 
HETATM    6  O   UNL     1      -9.428   2.588  64.925  1.00  0.00    -0.142 OA 
HETATM    7  H1  UNL     1     -11.600   4.237  64.187  1.00  0.00     0.000 HD 
ENDROOT
BRANCH   1   8
HETATM    8  C   UNL     1      -9.628   5.197  66.702  1.00  0.00    -0.162 C  
BRANCH   8   9
HETATM    9  C   UNL     1      -9.085   6.605  66.967  1.00  0.00    -0.130 C  
BRANCH   9  10
HETATM   10  S   UNL     1     -10.324   7.602  67.909  1.00  0.00    -0.206 S  
HETATM   11  C   UNL     1     -10.718   6.293  69.107  1.00  0.00    -0.301 C  
BRANCH  10  12
HETATM   12  C   UNL     1      -9.112   8.504  68.964  1.00  0.00    -0.146 C  
BRANCH  12  13
HETATM   13  C   UNL     1      -9.692   9.846  69.431  1.00  0.00    -0.214 C  
HETATM   14  O   UNL     1      -9.651  10.814  68.365  1.00  0.00    -0.162 OA 
HETATM   15  C   UNL     1     -10.572  11.842  68.725  1.00  0.00    -0.206 C  
HETATM   16  C   UNL     1     -11.765  11.105  69.341  1.00  0.00    -0.332 C  
HETATM   17  H   UNL     1     -12.244   9.568  71.482  1.00  0.00     0.000 HD 
HETATM   18  O   UNL     1     -12.354  11.830  70.429  1.00  0.00    -0.321 OA 
HETATM   19  C   UNL     1     -11.169   9.776  69.828  1.00  0.00    -0.202 C  
HETATM   20  O   UNL     1     -11.328   9.612  71.236  1.00  0.00    -0.344 OA 
HETATM   21  H   UNL     1     -13.094  11.374  70.811  1.00  0.00     0.000 HD 
BRANCH  15  22
HETATM   22  N   UNL     1     -10.857  12.662  67.566  1.00  0.00    -0.234 NA 
HETATM   23  C   UNL     1     -11.432  13.906  67.569  1.00  0.00    -0.340 A  
HETATM   24  C   UNL     1     -11.510  13.203  65.554  1.00  0.00    -0.315 A  
HETATM   25  N   UNL     1     -11.847  14.261  66.368  1.00  0.00    -0.399 NA 
HETATM   26  C   UNL     1     -11.731  12.945  64.190  1.00  0.00    -0.406 A  
HETATM   27  N   UNL     1     -11.203  11.822  63.651  1.00  0.00    -0.423 NA 
HETATM   28  N   UNL     1     -12.488  13.771  63.371  1.00  0.00    -1.072 NA 
HETATM   29  H2  UNL     1     -12.096  14.710  63.442  1.00  0.00     0.000 HD 
HETATM   30  C   UNL     1     -10.535  10.976  64.463  1.00  0.00    -0.342 A  
HETATM   31  H1  UNL     1     -12.649  13.583  62.381  1.00  0.00     0.000 HD 
HETATM   32  N   UNL     1     -10.333  11.067  65.795  1.00  0.00    -0.257 NA 
HETATM   33  C   UNL     1     -10.838  12.224  66.269  1.00  0.00    -0.278 A  
ENDBRANCH  15  22
ENDBRANCH  12  13
ENDBRANCH  10  12
ENDBRANCH   9  10
ENDBRANCH   8   9
ENDBRANCH   1   8
TORSDOF 6
ENDMDL
MODEL      107
REMARK 921   NORMALIZED FREE ENERGY PREDICTED BY IDOCK:   -5.26 KCAL/MOL
REMARK 922        TOTAL FREE ENERGY PREDICTED BY IDOCK:   -8.53 KCAL/MOL
REMARK 923 INTER-LIGAND FREE ENERGY PREDICTED BY IDOCK:   -8.31 KCAL/MOL
REMARK 924 INTRA-LIGAND FREE ENERGY PREDICTED BY IDOCK:   -0.22 KCAL/MOL
REMARK 927      BINDING AFFINITY PREDICTED BY RF-SCORE:    0.00 PKD
ROOT
HETATM    1  CA  UNL     1      -9.739  19.697  67.019  1.00  0.00    -0.360 C  
HETATM    2  C   UNL     1      -8.266  19.904  66.498  1.00  0.00    -0.331 C  
HETATM    3  N   UNL     1     -10.631  19.428  65.834  1.00  0.00    -0.498 NA 
HETATM    4  OXT UNL     1      -7.571  20.712  67.182  1.00  0.00    -0.323 OA 
HETATM    5  H2  UNL     1     -11.580  19.172  66.106  1.00  0.00     0.000 HD 
HETATM    6  O   UNL     1      -7.969  19.250  65.460  1.00  0.00    -0.370 OA 
HETATM    7  H1  UNL     1     -10.602  20.245  65.225  1.00  0.00     0.000 HD 
ENDROOT
BRANCH   1   8
HETATM    8  C   UNL     1      -9.783  18.474  67.932  1.00  0.00    -0.339 C  
BRANCH   8   9
HETATM    9  C   UNL     1      -8.471  17.685  68.001  1.00  0.00    -0.244 C  
BRANCH   9  10
HETATM   10  S   UNL     1      -8.816  15.868  68.019  1.00  0.00    -0.179 S  
HETATM   11  C   UNL     1     -10.308  15.991  69.050  1.00  0.00    -0.242 C  
BRANCH  10  12
HETATM   12  C   UNL     1      -9.681  15.801  66.394  1.00  0.00    -0.282 C  
BRANCH  12  13
HETATM   13  C   UNL     1     -10.135  14.368  66.080  1.00  0.00    -0.309 C  
HETATM   14  O   UNL     1     -10.234  13.592  67.290  1.00  0.00    -0.239 OA 
HETATM   15  C   UNL     1     -11.052  12.467  66.975  1.00  0.00    -0.278 C  
HETATM   16  C   UNL     1     -12.155  13.021  66.068  1.00  0.00    -0.432 C  
HETATM   17  H   UNL     1     -12.335  14.156  63.649  1.00  0.00     0.000 HD 
HETATM   18  O   UNL     1     -12.539  12.095  65.044  1.00  0.00    -0.514 OA 
HETATM   19  C   UNL     1     -11.532  14.286  65.458  1.00  0.00    -0.329 C  
HETATM   20  O   UNL     1     -11.468  14.208  64.035  1.00  0.00    -0.234 OA 
HETATM   21  H   UNL     1     -13.223  12.438  64.481  1.00  0.00     0.000 HD 
BRANCH  15  22
HETATM   22  N   UNL     1     -11.492  11.832  68.200  1.00  0.00    -0.291 NA 
HETATM   23  C   UNL     1     -12.030  12.456  69.295  1.00  0.00    -0.253 A  
HETATM   24  C   UNL     1     -11.496  10.486  69.919  1.00  0.00    -0.310 A  
HETATM   25  N   UNL     1     -12.039  11.673  70.356  1.00  0.00    -0.374 NA 
HETATM   26  C   UNL     1     -11.183   9.284  70.578  1.00  0.00    -0.265 A  
HETATM   27  N   UNL     1     -10.714   8.248  69.844  1.00  0.00    -0.240 NA 
HETATM   28  N   UNL     1     -11.304   9.113  71.949  1.00  0.00    -0.375 NA 
HETATM   29  H2  UNL     1     -12.262   9.356  72.202  1.00  0.00     0.000 HD 
HETATM   30  C   UNL     1     -10.518   8.437  68.523  1.00  0.00    -0.164 A  
HETATM   31  H1  UNL     1     -11.077   8.241  72.427  1.00  0.00     0.000 HD 
HETATM   32  N   UNL     1     -10.695   9.562  67.795  1.00  0.00    -0.262 NA 
HETATM   33  C   UNL     1     -11.205  10.543  68.565  1.00  0.00    -0.274 A  
ENDBRANCH  15  22
ENDBRANCH  12  13
ENDBRANCH  10  12
ENDBRANCH   9  10
ENDBRANCH   8   9
ENDBRANCH   1   8
TORSDOF 6
ENDMDL
MODEL      108
REMARK 921   NORMALIZED FREE ENERGY PREDICTED BY IDOCK:   -5.22 KCAL/MOL
REMARK 922        TOTAL FREE ENERGY PREDICTED BY IDOCK:   -8.47 KCAL/MOL
REMARK 923 INTER-LIGAND FREE ENERGY PREDICTED BY IDOCK:   -8.05 KCAL/MOL
REMARK 924 INTRA-LIGAND FREE ENERGY PREDICTED BY IDOCK:   -0.42 KCAL/MOL
REMARK 927      BINDING AFFINITY PREDICTED BY RF-SCORE:    0.00 PKD
ROOT
HETATM    1  CA  UNL     1     -10.119  10.327  68.150  1.00  0.00    -0.150 C  
HETATM    2  C   UNL     1      -9.103   9.642  67.159  1.00  0.00    -0.134 C  
HETATM    3  N   UNL     1      -9.360  11.301  69.014  1.00  0.00    -0.400 NA 
HETATM    4  OXT UNL     1      -9.389   8.449  66.849  1.00  0.00    -0.154 OA 
HETATM    5  H2  UNL     1      -9.973  11.864  69.604  1.00  0.00     0.000 HD 
HETATM    6  O   UNL     1      -8.127  10.364  66.810  1.00  0.00    -0.116 OA 
HETATM    7  H1  UNL     1      -8.671  10.775  69.551  1.00  0.00     0.000 HD 
ENDROOT
BRANCH   1   8
HETATM    8  C   UNL     1     -11.152  11.114  67.346  1.00  0.00    -0.370 C  
BRANCH   8   9
HETATM    9  C   UNL     1     -10.801  11.299  65.867  1.00  0.00    -0.202 C  
BRANCH   9  10
HETATM   10  S   UNL     1     -10.460  13.080  65.507  1.00  0.00    -0.289 S  
HETATM   11  C   UNL     1     -11.498  13.152  64.016  1.00  0.00    -0.406 C  
BRANCH  10  12
HETATM   12  C   UNL     1     -11.706  13.774  66.673  1.00  0.00    -0.394 C  
BRANCH  12  13
HETATM   13  C   UNL     1     -11.017  14.407  67.889  1.00  0.00    -0.262 C  
HETATM   14  O   UNL     1     -10.370  15.641  67.521  1.00  0.00    -0.265 OA 
HETATM   15  C   UNL     1     -10.150  16.353  68.736  1.00  0.00    -0.247 C  
HETATM   16  C   UNL     1     -11.414  16.116  69.568  1.00  0.00    -0.292 C  
HETATM   17  H   UNL     1     -12.662  14.039  70.710  1.00  0.00     0.000 HD 
HETATM   18  O   UNL     1     -11.133  15.996  70.969  1.00  0.00    -0.319 OA 
HETATM   19  C   UNL     1     -11.983  14.802  69.010  1.00  0.00    -0.273 C  
HETATM   20  O   UNL     1     -12.063  13.794  70.015  1.00  0.00    -0.313 OA 
HETATM   21  H   UNL     1     -11.916  15.849  71.485  1.00  0.00     0.000 HD 
BRANCH  15  22
HETATM   22  N   UNL     1      -9.835  17.735  68.435  1.00  0.00    -0.327 NA 
HETATM   23  C   UNL     1     -10.634  18.628  67.771  1.00  0.00    -0.385 A  
HETATM   24  C   UNL     1      -8.678  19.482  67.821  1.00  0.00    -0.319 A  
HETATM   25  N   UNL     1      -9.964  19.693  67.376  1.00  0.00    -0.360 NA 
HETATM   26  C   UNL     1      -7.488  20.214  67.670  1.00  0.00    -0.306 A  
HETATM   27  N   UNL     1      -6.374  19.773  68.299  1.00  0.00    -0.242 NA 
HETATM   28  N   UNL     1      -7.389  21.354  66.886  1.00  0.00    -0.811 NA 
HETATM   29  H2  UNL     1      -8.107  22.005  67.205  1.00  0.00     0.000 HD 
HETATM   30  C   UNL     1      -6.447  18.621  68.997  1.00  0.00    -0.258 A  
HETATM   31  H1  UNL     1      -6.525  21.886  66.777  1.00  0.00     0.000 HD 
HETATM   32  N   UNL     1      -7.500  17.786  69.141  1.00  0.00    -0.154 NA 
HETATM   33  C   UNL     1      -8.590  18.297  68.535  1.00  0.00    -0.306 A  
ENDBRANCH  15  22
ENDBRANCH  12  13
ENDBRANCH  10  12
ENDBRANCH   9  10
ENDBRANCH   8   9
ENDBRANCH   1   8
TORSDOF 6
ENDMDL
MODEL      109
REMARK 921   NORMALIZED FREE ENERGY PREDICTED BY IDOCK:   -5.21 KCAL/MOL
REMARK 922        TOTAL FREE ENERGY PREDICTED BY IDOCK:   -8.45 KCAL/MOL
REMARK 923 INTER-LIGAND FREE ENERGY PREDICTED BY IDOCK:   -7.78 KCAL/MOL
REMARK 924 INTRA-LIGAND FREE ENERGY PREDICTED BY IDOCK:   -0.67 KCAL/MOL
REMARK 927      BINDING AFFINITY PREDICTED BY RF-SCORE:    0.00 PKD
ROOT
HETATM    1  CA  UNL     1      -6.468  10.831  68.264  1.00  0.00    -0.058 C  
HETATM    2  C   UNL     1      -6.429  12.064  67.282  1.00  0.00    -0.149 C  
HETATM    3  N   UNL     1      -7.385  11.165  69.413  1.00  0.00    -0.275 NA 
HETATM    4  OXT UNL     1      -5.327  12.227  66.681  1.00  0.00    -0.333 OA 
HETATM    5  H2  UNL     1      -7.548  10.370  70.031  1.00  0.00     0.000 HD 
HETATM    6  O   UNL     1      -7.495  12.739  67.229  1.00  0.00    -0.149 OA 
HETATM    7  H1  UNL     1      -6.998  11.972  69.902  1.00  0.00     0.000 HD 
ENDROOT
BRANCH   1   8
HETATM    8  C   UNL     1      -7.047   9.623  67.532  1.00  0.00    -0.088 C  
BRANCH   8   9
HETATM    9  C   UNL     1      -7.775   8.622  68.435  1.00  0.00    -0.100 C  
BRANCH   9  10
HETATM   10  S   UNL     1      -9.282   7.970  67.584  1.00  0.00    -0.134 S  
HETATM   11  C   UNL     1      -8.945   6.224  67.959  1.00  0.00    -0.114 C  
BRANCH  10  12
HETATM   12  C   UNL     1     -10.455   8.269  68.973  1.00  0.00    -0.197 C  
BRANCH  12  13
HETATM   13  C   UNL     1     -10.453   9.749  69.377  1.00  0.00    -0.223 C  
HETATM   14  O   UNL     1     -10.411  10.593  68.209  1.00  0.00    -0.169 OA 
HETATM   15  C   UNL     1     -10.845  11.883  68.635  1.00  0.00    -0.235 C  
HETATM   16  C   UNL     1     -11.992  11.612  69.614  1.00  0.00    -0.324 C  
HETATM   17  H   UNL     1     -12.315  10.433  71.997  1.00  0.00     0.000 HD 
HETATM   18  O   UNL     1     -12.017  12.547  70.700  1.00  0.00    -0.505 OA 
HETATM   19  C   UNL     1     -11.717  10.188  70.121  1.00  0.00    -0.256 C  
HETATM   20  O   UNL     1     -11.531  10.160  71.534  1.00  0.00    -0.283 OA 
HETATM   21  H   UNL     1     -12.727  12.379  71.307  1.00  0.00     0.000 HD 
BRANCH  15  22
HETATM   22  N   UNL     1     -11.171  12.689  67.477  1.00  0.00    -0.272 NA 
HETATM   23  C   UNL     1     -12.017  13.766  67.444  1.00  0.00    -0.388 A  
HETATM   24  C   UNL     1     -11.682  13.195  65.415  1.00  0.00    -0.350 A  
HETATM   25  N   UNL     1     -12.355  14.093  66.212  1.00  0.00    -0.458 NA 
HETATM   26  C   UNL     1     -11.669  12.981  64.026  1.00  0.00    -0.436 A  
HETATM   27  N   UNL     1     -10.829  12.045  63.525  1.00  0.00    -0.427 NA 
HETATM   28  N   UNL     1     -12.492  13.662  63.141  1.00  0.00    -1.045 NA 
HETATM   29  H2  UNL     1     -12.343  14.659  63.295  1.00  0.00     0.000 HD 
HETATM   30  C   UNL     1     -10.085  11.324  64.389  1.00  0.00    -0.303 A  
HETATM   31  H1  UNL     1     -12.482  13.506  62.133  1.00  0.00     0.000 HD 
HETATM   32  N   UNL     1     -10.075  11.373  65.739  1.00  0.00    -0.235 NA 
HETATM   33  C   UNL     1     -10.891  12.351  66.179  1.00  0.00    -0.273 A  
ENDBRANCH  15  22
ENDBRANCH  12  13
ENDBRANCH  10  12
ENDBRANCH   9  10
ENDBRANCH   8   9
ENDBRANCH   1   8
TORSDOF 6
ENDMDL
MODEL      110
REMARK 921   NORMALIZED FREE ENERGY PREDICTED BY IDOCK:   -5.20 KCAL/MOL
REMARK 922        TOTAL FREE ENERGY PREDICTED BY IDOCK:   -8.44 KCAL/MOL
REMARK 923 INTER-LIGAND FREE ENERGY PREDICTED BY IDOCK:   -8.13 KCAL/MOL
REMARK 924 INTRA-LIGAND FREE ENERGY PREDICTED BY IDOCK:   -0.31 KCAL/MOL
REMARK 927      BINDING AFFINITY PREDICTED BY RF-SCORE:    0.00 PKD
ROOT
HETATM    1  CA  UNL     1     -10.482   7.906  67.216  1.00  0.00    -0.320 C  
HETATM    2  C   UNL     1      -9.265   6.912  67.092  1.00  0.00    -0.139 C  
HETATM    3  N   UNL     1     -10.816   8.071  68.677  1.00  0.00    -0.417 NA 
HETATM    4  OXT UNL     1      -9.266   6.201  66.044  1.00  0.00    -0.157 OA 
HETATM    5  H2  UNL     1     -11.522   8.789  68.840  1.00  0.00     0.000 HD 
HETATM    6  O   UNL     1      -8.451   6.940  68.057  1.00  0.00    -0.123 OA 
HETATM    7  H1  UNL     1     -11.088   7.159  69.043  1.00  0.00     0.000 HD 
ENDROOT
BRANCH   1   8
HETATM    8  C   UNL     1     -10.075   9.271  66.667  1.00  0.00    -0.341 C  
BRANCH   8   9
HETATM    9  C   UNL     1     -10.982  10.426  67.099  1.00  0.00    -0.196 C  
BRANCH   9  10
HETATM   10  S   UNL     1     -10.139  12.046  66.811  1.00  0.00    -0.205 S  
HETATM   11  C   UNL     1     -10.617  12.177  65.063  1.00  0.00    -0.291 C  
BRANCH  10  12
HETATM   12  C   UNL     1     -11.485  13.109  67.484  1.00  0.00    -0.328 C  
BRANCH  12  13
HETATM   13  C   UNL     1     -10.964  13.981  68.635  1.00  0.00    -0.263 C  
HETATM   14  O   UNL     1      -9.871  14.808  68.190  1.00  0.00    -0.213 OA 
HETATM   15  C   UNL     1      -9.749  15.856  69.149  1.00  0.00    -0.249 C  
HETATM   16  C   UNL     1     -11.189  16.236  69.506  1.00  0.00    -0.308 C  
HETATM   17  H   UNL     1     -13.307  15.074  70.662  1.00  0.00     0.000 HD 
HETATM   18  O   UNL     1     -11.336  16.591  70.887  1.00  0.00    -0.522 OA 
HETATM   19  C   UNL     1     -11.998  14.972  69.175  1.00  0.00    -0.275 C  
HETATM   20  O   UNL     1     -12.666  14.459  70.326  1.00  0.00    -0.348 OA 
HETATM   21  H   UNL     1     -12.229  16.827  71.108  1.00  0.00     0.000 HD 
BRANCH  15  22
HETATM   22  N   UNL     1      -8.925  16.915  68.604  1.00  0.00    -0.260 NA 
HETATM   23  C   UNL     1      -7.674  17.277  69.030  1.00  0.00    -0.166 A  
HETATM   24  C   UNL     1      -8.376  18.863  67.785  1.00  0.00    -0.279 A  
HETATM   25  N   UNL     1      -7.314  18.456  68.561  1.00  0.00    -0.278 NA 
HETATM   26  C   UNL     1      -8.632  20.045  67.069  1.00  0.00    -0.334 A  
HETATM   27  N   UNL     1      -9.761  20.120  66.328  1.00  0.00    -0.414 NA 
HETATM   28  N   UNL     1      -7.797  21.153  67.103  1.00  0.00    -0.675 NA 
HETATM   29  H2  UNL     1      -6.863  20.837  66.842  1.00  0.00     0.000 HD 
HETATM   30  C   UNL     1     -10.616  19.076  66.357  1.00  0.00    -0.409 A  
HETATM   31  H1  UNL     1      -7.983  22.011  66.583  1.00  0.00     0.000 HD 
HETATM   32  N   UNL     1     -10.527  17.932  67.070  1.00  0.00    -0.358 NA 
HETATM   33  C   UNL     1      -9.364  17.891  67.750  1.00  0.00    -0.262 A  
ENDBRANCH  15  22
ENDBRANCH  12  13
ENDBRANCH  10  12
ENDBRANCH   9  10
ENDBRANCH   8   9
ENDBRANCH   1   8
TORSDOF 6
ENDMDL
MODEL      111
REMARK 921   NORMALIZED FREE ENERGY PREDICTED BY IDOCK:   -5.17 KCAL/MOL
REMARK 922        TOTAL FREE ENERGY PREDICTED BY IDOCK:   -8.41 KCAL/MOL
REMARK 923 INTER-LIGAND FREE ENERGY PREDICTED BY IDOCK:   -7.41 KCAL/MOL
REMARK 924 INTRA-LIGAND FREE ENERGY PREDICTED BY IDOCK:   -1.00 KCAL/MOL
REMARK 927      BINDING AFFINITY PREDICTED BY RF-SCORE:    0.00 PKD
ROOT
HETATM    1  CA  UNL     1      -7.975   5.193  71.504  1.00  0.00    -0.113 C  
HETATM    2  C   UNL     1      -7.867   6.332  72.588  1.00  0.00    -0.105 C  
HETATM    3  N   UNL     1      -7.193   3.998  71.986  1.00  0.00    -0.053 NA 
HETATM    4  OXT UNL     1      -7.888   7.509  72.124  1.00  0.00    -0.089 OA 
HETATM    5  H2  UNL     1      -7.312   3.182  71.386  1.00  0.00     0.000 HD 
HETATM    6  O   UNL     1      -7.760   5.927  73.779  1.00  0.00    -0.096 OA 
HETATM    7  H1  UNL     1      -6.217   4.278  72.083  1.00  0.00     0.000 HD 
ENDROOT
BRANCH   1   8
HETATM    8  C   UNL     1      -9.437   4.774  71.358  1.00  0.00    -0.213 C  
BRANCH   8   9
HETATM    9  C   UNL     1     -10.000   4.916  69.940  1.00  0.00    -0.247 C  
BRANCH   9  10
HETATM   10  S   UNL     1     -10.167   6.703  69.493  1.00  0.00    -0.192 S  
HETATM   11  C   UNL     1     -11.096   6.406  67.959  1.00  0.00    -0.267 C  
BRANCH  10  12
HETATM   12  C   UNL     1     -11.624   7.054  70.564  1.00  0.00    -0.319 C  
BRANCH  12  13
HETATM   13  C   UNL     1     -11.597   8.508  71.056  1.00  0.00    -0.279 C  
HETATM   14  O   UNL     1     -11.263   9.402  69.977  1.00  0.00    -0.240 OA 
HETATM   15  C   UNL     1     -11.680  10.701  70.393  1.00  0.00    -0.353 C  
HETATM   16  C   UNL     1     -13.016  10.478  71.108  1.00  0.00    -0.411 C  
HETATM   17  H   UNL     1     -13.893   9.212  73.299  1.00  0.00     0.000 HD 
HETATM   18  O   UNL     1     -13.192  11.356  72.227  1.00  0.00    -0.599 OA 
HETATM   19  C   UNL     1     -12.950   9.012  71.565  1.00  0.00    -0.337 C  
HETATM   20  O   UNL     1     -13.054   8.899  72.983  1.00  0.00    -0.309 OA 
HETATM   21  H   UNL     1     -14.020  11.217  72.671  1.00  0.00     0.000 HD 
BRANCH  15  22
HETATM   22  N   UNL     1     -11.709  11.588  69.248  1.00  0.00    -0.301 NA 
HETATM   23  C   UNL     1     -11.377  11.266  67.958  1.00  0.00    -0.304 A  
HETATM   24  C   UNL     1     -11.446  13.398  68.055  1.00  0.00    -0.304 A  
HETATM   25  N   UNL     1     -11.200  12.339  67.211  1.00  0.00    -0.281 NA 
HETATM   26  C   UNL     1     -11.369  14.790  67.881  1.00  0.00    -0.316 A  
HETATM   27  N   UNL     1     -11.752  15.591  68.902  1.00  0.00    -0.368 NA 
HETATM   28  N   UNL     1     -10.894  15.388  66.723  1.00  0.00    -0.312 NA 
HETATM   29  H2  UNL     1     -11.437  15.015  65.944  1.00  0.00     0.000 HD 
HETATM   30  C   UNL     1     -12.138  15.014  70.059  1.00  0.00    -0.337 A  
HETATM   31  H1  UNL     1     -10.838  16.399  66.596  1.00  0.00     0.000 HD 
HETATM   32  N   UNL     1     -12.169  13.701  70.377  1.00  0.00    -0.353 NA 
HETATM   33  C   UNL     1     -11.825  12.951  69.312  1.00  0.00    -0.309 A  
ENDBRANCH  15  22
ENDBRANCH  12  13
ENDBRANCH  10  12
ENDBRANCH   9  10
ENDBRANCH   8   9
ENDBRANCH   1   8
TORSDOF 6
ENDMDL
MODEL      112
REMARK 921   NORMALIZED FREE ENERGY PREDICTED BY IDOCK:   -5.17 KCAL/MOL
REMARK 922        TOTAL FREE ENERGY PREDICTED BY IDOCK:   -8.40 KCAL/MOL
REMARK 923 INTER-LIGAND FREE ENERGY PREDICTED BY IDOCK:   -7.58 KCAL/MOL
REMARK 924 INTRA-LIGAND FREE ENERGY PREDICTED BY IDOCK:   -0.82 KCAL/MOL
REMARK 927      BINDING AFFINITY PREDICTED BY RF-SCORE:    0.00 PKD
ROOT
HETATM    1  CA  UNL     1      -8.629  10.242  64.486  1.00  0.00    -0.186 C  
HETATM    2  C   UNL     1      -8.417   8.891  63.702  1.00  0.00    -0.138 C  
HETATM    3  N   UNL     1      -8.681  11.370  63.488  1.00  0.00    -0.400 NA 
HETATM    4  OXT UNL     1      -7.751   8.015  64.328  1.00  0.00    -0.113 OA 
HETATM    5  H2  UNL     1      -8.930  12.263  63.915  1.00  0.00     0.000 HD 
HETATM    6  O   UNL     1      -8.926   8.858  62.547  1.00  0.00    -0.166 OA 
HETATM    7  H1  UNL     1      -7.786  11.402  63.001  1.00  0.00     0.000 HD 
ENDROOT
BRANCH   1   8
HETATM    8  C   UNL     1      -9.969  10.195  65.217  1.00  0.00    -0.381 C  
BRANCH   8   9
HETATM    9  C   UNL     1      -9.935   9.460  66.561  1.00  0.00    -0.269 C  
BRANCH   9  10
HETATM   10  S   UNL     1     -10.909  10.393  67.826  1.00  0.00    -0.311 S  
HETATM   11  C   UNL     1      -9.485  10.764  68.893  1.00  0.00    -0.181 C  
BRANCH  10  12
HETATM   12  C   UNL     1     -10.934  12.003  66.930  1.00  0.00    -0.281 C  
BRANCH  12  13
HETATM   13  C   UNL     1     -10.693  13.167  67.900  1.00  0.00    -0.235 C  
HETATM   14  O   UNL     1     -10.213  14.327  67.191  1.00  0.00    -0.251 OA 
HETATM   15  C   UNL     1     -10.434  15.440  68.054  1.00  0.00    -0.257 C  
HETATM   16  C   UNL     1     -11.797  15.176  68.700  1.00  0.00    -0.302 C  
HETATM   17  H   UNL     1     -12.884  13.359  70.341  1.00  0.00     0.000 HD 
HETATM   18  O   UNL     1     -11.852  15.617  70.063  1.00  0.00    -0.328 OA 
HETATM   19  C   UNL     1     -11.960  13.651  68.610  1.00  0.00    -0.360 C  
HETATM   20  O   UNL     1     -12.098  13.059  69.900  1.00  0.00    -0.313 OA 
HETATM   21  H   UNL     1     -12.697  15.453  70.464  1.00  0.00     0.000 HD 
BRANCH  15  22
HETATM   22  N   UNL     1     -10.314  16.669  67.296  1.00  0.00    -0.295 NA 
HETATM   23  C   UNL     1     -10.784  16.895  66.030  1.00  0.00    -0.125 A  
HETATM   24  C   UNL     1      -9.423  18.481  66.466  1.00  0.00    -0.320 A  
HETATM   25  N   UNL     1     -10.258  17.979  65.494  1.00  0.00    -0.514 NA 
HETATM   26  C   UNL     1      -8.541  19.575  66.490  1.00  0.00    -0.348 A  
HETATM   27  N   UNL     1      -7.897  19.860  67.645  1.00  0.00    -0.283 NA 
HETATM   28  N   UNL     1      -8.276  20.365  65.380  1.00  0.00    -0.352 NA 
HETATM   29  H2  UNL     1      -9.171  20.705  65.029  1.00  0.00     0.000 HD 
HETATM   30  C   UNL     1      -8.090  19.046  68.704  1.00  0.00    -0.361 A  
HETATM   31  H1  UNL     1      -7.635  21.159  65.398  1.00  0.00     0.000 HD 
HETATM   32  N   UNL     1      -8.836  17.922  68.779  1.00  0.00    -0.248 NA 
HETATM   33  C   UNL     1      -9.489  17.714  67.619  1.00  0.00    -0.258 A  
ENDBRANCH  15  22
ENDBRANCH  12  13
ENDBRANCH  10  12
ENDBRANCH   9  10
ENDBRANCH   8   9
ENDBRANCH   1   8
TORSDOF 6
ENDMDL
MODEL      113
REMARK 921   NORMALIZED FREE ENERGY PREDICTED BY IDOCK:   -5.16 KCAL/MOL
REMARK 922        TOTAL FREE ENERGY PREDICTED BY IDOCK:   -8.39 KCAL/MOL
REMARK 923 INTER-LIGAND FREE ENERGY PREDICTED BY IDOCK:   -7.56 KCAL/MOL
REMARK 924 INTRA-LIGAND FREE ENERGY PREDICTED BY IDOCK:   -0.83 KCAL/MOL
REMARK 927      BINDING AFFINITY PREDICTED BY RF-SCORE:    0.00 PKD
ROOT
HETATM    1  CA  UNL     1     -10.475   8.609  69.004  1.00  0.00    -0.199 C  
HETATM    2  C   UNL     1     -10.309   7.229  69.747  1.00  0.00    -0.220 C  
HETATM    3  N   UNL     1     -10.246   9.718  70.000  1.00  0.00    -0.247 NA 
HETATM    4  OXT UNL     1     -11.037   6.296  69.298  1.00  0.00    -0.332 OA 
HETATM    5  H2  UNL     1     -10.226  10.640  69.565  1.00  0.00     0.000 HD 
HETATM    6  O   UNL     1      -9.482   7.231  70.701  1.00  0.00    -0.164 OA 
HETATM    7  H1  UNL     1     -10.956   9.640  70.728  1.00  0.00     0.000 HD 
ENDROOT
BRANCH   1   8
HETATM    8  C   UNL     1      -9.412   8.726  67.914  1.00  0.00    -0.160 C  
BRANCH   8   9
HETATM    9  C   UNL     1      -9.957   9.102  66.533  1.00  0.00    -0.288 C  
BRANCH   9  10
HETATM   10  S   UNL     1      -9.399  10.801  66.064  1.00  0.00    -0.195 S  
HETATM   11  C   UNL     1     -10.055  10.733  64.371  1.00  0.00    -0.353 C  
BRANCH  10  12
HETATM   12  C   UNL     1     -10.820  11.704  66.812  1.00  0.00    -0.277 C  
BRANCH  12  13
HETATM   13  C   UNL     1     -10.350  12.583  67.979  1.00  0.00    -0.222 C  
HETATM   14  O   UNL     1      -9.683  13.763  67.489  1.00  0.00    -0.221 OA 
HETATM   15  C   UNL     1      -9.679  14.695  68.568  1.00  0.00    -0.225 C  
HETATM   16  C   UNL     1     -11.053  14.543  69.228  1.00  0.00    -0.270 C  
HETATM   17  H   UNL     1     -12.414  12.642  70.534  1.00  0.00     0.000 HD 
HETATM   18  O   UNL     1     -10.996  14.695  70.652  1.00  0.00    -0.490 OA 
HETATM   19  C   UNL     1     -11.492  13.122  68.845  1.00  0.00    -0.298 C  
HETATM   20  O   UNL     1     -11.706  12.309  69.997  1.00  0.00    -0.306 OA 
HETATM   21  H   UNL     1     -11.848  14.601  71.062  1.00  0.00     0.000 HD 
BRANCH  15  22
HETATM   22  N   UNL     1      -9.354  16.014  68.066  1.00  0.00    -0.201 NA 
HETATM   23  C   UNL     1      -8.646  16.986  68.722  1.00  0.00    -0.238 A  
HETATM   24  C   UNL     1      -9.602  17.941  67.069  1.00  0.00    -0.286 A  
HETATM   25  N   UNL     1      -8.782  18.167  68.151  1.00  0.00    -0.270 NA 
HETATM   26  C   UNL     1     -10.163  18.798  66.107  1.00  0.00    -0.421 A  
HETATM   27  N   UNL     1     -10.887  18.254  65.101  1.00  0.00    -0.555 NA 
HETATM   28  N   UNL     1     -10.034  20.179  66.147  1.00  0.00    -0.575 NA 
HETATM   29  H2  UNL     1      -9.038  20.389  66.196  1.00  0.00     0.000 HD 
HETATM   30  C   UNL     1     -11.081  16.918  65.103  1.00  0.00     0.022 A  
HETATM   31  H1  UNL     1     -10.442  20.800  65.448  1.00  0.00     0.000 HD 
HETATM   32  N   UNL     1     -10.674  16.007  66.013  1.00  0.00    -0.301 NA 
HETATM   33  C   UNL     1      -9.921  16.596  66.963  1.00  0.00    -0.271 A  
ENDBRANCH  15  22
ENDBRANCH  12  13
ENDBRANCH  10  12
ENDBRANCH   9  10
ENDBRANCH   8   9
ENDBRANCH   1   8
TORSDOF 6
ENDMDL
MODEL      114
REMARK 921   NORMALIZED FREE ENERGY PREDICTED BY IDOCK:   -5.14 KCAL/MOL
REMARK 922        TOTAL FREE ENERGY PREDICTED BY IDOCK:   -8.37 KCAL/MOL
REMARK 923 INTER-LIGAND FREE ENERGY PREDICTED BY IDOCK:   -8.26 KCAL/MOL
REMARK 924 INTRA-LIGAND FREE ENERGY PREDICTED BY IDOCK:   -0.11 KCAL/MOL
REMARK 927      BINDING AFFINITY PREDICTED BY RF-SCORE:    0.00 PKD
ROOT
HETATM    1  CA  UNL     1      -9.809  19.958  67.084  1.00  0.00    -0.406 C  
HETATM    2  C   UNL     1      -8.281  20.037  66.705  1.00  0.00    -0.314 C  
HETATM    3  N   UNL     1     -10.613  19.868  65.813  1.00  0.00    -0.473 NA 
HETATM    4  OXT UNL     1      -7.572  20.717  67.503  1.00  0.00    -0.328 OA 
HETATM    5  H2  UNL     1     -11.604  19.700  65.984  1.00  0.00     0.000 HD 
HETATM    6  O   UNL     1      -7.960  19.426  65.648  1.00  0.00    -0.427 OA 
HETATM    7  H1  UNL     1     -10.444  20.716  65.272  1.00  0.00     0.000 HD 
ENDROOT
BRANCH   1   8
HETATM    8  C   UNL     1     -10.061  18.688  67.894  1.00  0.00    -0.407 C  
BRANCH   8   9
HETATM    9  C   UNL     1      -8.979  17.614  67.744  1.00  0.00    -0.247 C  
BRANCH   9  10
HETATM   10  S   UNL     1      -9.756  15.947  67.545  1.00  0.00    -0.224 S  
HETATM   11  C   UNL     1     -11.367  16.429  68.234  1.00  0.00    -0.241 C  
BRANCH  10  12
HETATM   12  C   UNL     1     -10.213  16.136  65.770  1.00  0.00    -0.374 C  
BRANCH  12  13
HETATM   13  C   UNL     1     -10.562  14.776  65.152  1.00  0.00    -0.417 C  
HETATM   14  O   UNL     1      -9.955  13.706  65.904  1.00  0.00    -0.299 OA 
HETATM   15  C   UNL     1     -10.661  12.520  65.548  1.00  0.00    -0.271 C  
HETATM   16  C   UNL     1     -12.129  12.946  65.452  1.00  0.00    -0.454 C  
HETATM   17  H   UNL     1     -13.612  14.590  63.944  1.00  0.00     0.000 HD 
HETATM   18  O   UNL     1     -12.831  12.263  64.406  1.00  0.00    -0.624 OA 
HETATM   19  C   UNL     1     -12.059  14.455  65.171  1.00  0.00    -0.395 C  
HETATM   20  O   UNL     1     -12.683  14.789  63.933  1.00  0.00    -0.794 OA 
HETATM   21  H   UNL     1     -13.742  12.527  64.346  1.00  0.00     0.000 HD 
BRANCH  15  22
HETATM   22  N   UNL     1     -10.361  11.475  66.505  1.00  0.00    -0.224 NA 
HETATM   23  C   UNL     1     -11.226  10.518  66.966  1.00  0.00     0.011 A  
HETATM   24  C   UNL     1      -9.543  10.499  68.279  1.00  0.00    -0.158 A  
HETATM   25  N   UNL     1     -10.767   9.914  68.045  1.00  0.00    -0.240 NA 
HETATM   26  C   UNL     1      -8.593  10.338  69.301  1.00  0.00    -0.168 A  
HETATM   27  N   UNL     1      -7.427  11.021  69.213  1.00  0.00    -0.120 NA 
HETATM   28  N   UNL     1      -8.798   9.535  70.414  1.00  0.00    -0.243 NA 
HETATM   29  H2  UNL     1      -9.038   8.603  70.074  1.00  0.00     0.000 HD 
HETATM   30  C   UNL     1      -7.257  11.865  68.175  1.00  0.00    -0.085 A  
HETATM   31  H1  UNL     1      -8.108   9.418  71.156  1.00  0.00     0.000 HD 
HETATM   32  N   UNL     1      -8.124  12.172  67.185  1.00  0.00    -0.174 NA 
HETATM   33  C   UNL     1      -9.244  11.431  67.296  1.00  0.00    -0.165 A  
ENDBRANCH  15  22
ENDBRANCH  12  13
ENDBRANCH  10  12
ENDBRANCH   9  10
ENDBRANCH   8   9
ENDBRANCH   1   8
TORSDOF 6
ENDMDL
MODEL      115
REMARK 921   NORMALIZED FREE ENERGY PREDICTED BY IDOCK:   -5.14 KCAL/MOL
REMARK 922        TOTAL FREE ENERGY PREDICTED BY IDOCK:   -8.36 KCAL/MOL
REMARK 923 INTER-LIGAND FREE ENERGY PREDICTED BY IDOCK:   -8.45 KCAL/MOL
REMARK 924 INTRA-LIGAND FREE ENERGY PREDICTED BY IDOCK:    0.09 KCAL/MOL
REMARK 927      BINDING AFFINITY PREDICTED BY RF-SCORE:    0.00 PKD
ROOT
HETATM    1  CA  UNL     1     -12.190  13.888  65.613  1.00  0.00    -0.452 C  
HETATM    2  C   UNL     1     -11.264  14.369  66.794  1.00  0.00    -0.337 C  
HETATM    3  N   UNL     1     -11.911  14.747  64.407  1.00  0.00    -0.623 NA 
HETATM    4  OXT UNL     1     -11.767  14.236  67.949  1.00  0.00    -0.322 OA 
HETATM    5  H2  UNL     1     -12.393  14.420  63.570  1.00  0.00     0.000 HD 
HETATM    6  O   UNL     1     -10.146  14.838  66.441  1.00  0.00    -0.261 OA 
HETATM    7  H1  UNL     1     -12.144  15.711  64.645  1.00  0.00     0.000 HD 
ENDROOT
BRANCH   1   8
HETATM    8  C   UNL     1     -11.841  12.445  65.256  1.00  0.00    -0.451 C  
BRANCH   8   9
HETATM    9  C   UNL     1     -10.356  12.202  64.969  1.00  0.00    -0.287 C  
BRANCH   9  10
HETATM   10  S   UNL     1      -9.974  10.395  65.052  1.00  0.00    -0.315 S  
HETATM   11  C   UNL     1      -8.462  10.496  64.048  1.00  0.00    -0.118 C  
BRANCH  10  12
HETATM   12  C   UNL     1      -9.145  10.428  66.697  1.00  0.00    -0.151 C  
BRANCH  12  13
HETATM   13  C   UNL     1      -9.092   9.021  67.306  1.00  0.00    -0.133 C  
HETATM   14  O   UNL     1      -9.591   9.035  68.658  1.00  0.00    -0.150 OA 
HETATM   15  C   UNL     1      -9.911   7.682  68.978  1.00  0.00    -0.181 C  
HETATM   16  C   UNL     1     -10.539   7.112  67.702  1.00  0.00    -0.248 C  
HETATM   17  H   UNL     1      -9.780   6.609  65.184  1.00  0.00     0.000 HD 
HETATM   18  O   UNL     1     -10.193   5.738  67.488  1.00  0.00    -0.158 OA 
HETATM   19  C   UNL     1      -9.976   8.001  66.583  1.00  0.00    -0.256 C  
HETATM   20  O   UNL     1      -9.232   7.242  65.633  1.00  0.00     0.033 OA 
HETATM   21  H   UNL     1     -10.582   5.384  66.697  1.00  0.00     0.000 HD 
BRANCH  15  22
HETATM   22  N   UNL     1     -10.738   7.650  70.166  1.00  0.00    -0.237 NA 
HETATM   23  C   UNL     1     -11.156   6.533  70.839  1.00  0.00    -0.292 A  
HETATM   24  C   UNL     1     -12.350   8.153  71.550  1.00  0.00    -0.306 A  
HETATM   25  N   UNL     1     -12.138   6.799  71.678  1.00  0.00    -0.344 NA 
HETATM   26  C   UNL     1     -13.289   9.027  72.125  1.00  0.00    -0.455 A  
HETATM   27  N   UNL     1     -13.195  10.348  71.850  1.00  0.00    -0.451 NA 
HETATM   28  N   UNL     1     -14.327   8.601  72.942  1.00  0.00    -1.063 NA 
HETATM   29  H2  UNL     1     -13.913   8.059  73.700  1.00  0.00     0.000 HD 
HETATM   30  C   UNL     1     -12.237  10.757  70.992  1.00  0.00    -0.380 A  
HETATM   31  H1  UNL     1     -15.009   9.235  73.359  1.00  0.00     0.000 HD 
HETATM   32  N   UNL     1     -11.340  10.010  70.311  1.00  0.00    -0.286 NA 
HETATM   33  C   UNL     1     -11.448   8.713  70.658  1.00  0.00    -0.228 A  
ENDBRANCH  15  22
ENDBRANCH  12  13
ENDBRANCH  10  12
ENDBRANCH   9  10
ENDBRANCH   8   9
ENDBRANCH   1   8
TORSDOF 6
ENDMDL
MODEL      116
REMARK 921   NORMALIZED FREE ENERGY PREDICTED BY IDOCK:   -5.12 KCAL/MOL
REMARK 922        TOTAL FREE ENERGY PREDICTED BY IDOCK:   -8.33 KCAL/MOL
REMARK 923 INTER-LIGAND FREE ENERGY PREDICTED BY IDOCK:   -8.27 KCAL/MOL
REMARK 924 INTRA-LIGAND FREE ENERGY PREDICTED BY IDOCK:   -0.06 KCAL/MOL
REMARK 927      BINDING AFFINITY PREDICTED BY RF-SCORE:    0.00 PKD
ROOT
HETATM    1  CA  UNL     1      -9.054  18.951  68.304  1.00  0.00    -0.323 C  
HETATM    2  C   UNL     1      -9.204  19.787  66.977  1.00  0.00    -0.352 C  
HETATM    3  N   UNL     1     -10.329  19.081  69.097  1.00  0.00    -0.474 NA 
HETATM    4  OXT UNL     1      -8.127  20.296  66.547  1.00  0.00    -0.286 OA 
HETATM    5  H2  UNL     1     -10.347  18.474  69.916  1.00  0.00     0.000 HD 
HETATM    6  O   UNL     1     -10.378  19.855  66.517  1.00  0.00    -0.444 OA 
HETATM    7  H1  UNL     1     -10.454  20.065  69.333  1.00  0.00     0.000 HD 
ENDROOT
BRANCH   1   8
HETATM    8  C   UNL     1      -8.864  17.477  67.951  1.00  0.00    -0.247 C  
BRANCH   8   9
HETATM    9  C   UNL     1     -10.111  16.795  67.380  1.00  0.00    -0.276 C  
BRANCH   9  10
HETATM   10  S   UNL     1     -10.390  15.168  68.212  1.00  0.00    -0.235 S  
HETATM   11  C   UNL     1      -8.727  15.062  68.936  1.00  0.00    -0.197 C  
BRANCH  10  12
HETATM   12  C   UNL     1     -11.235  15.836  69.706  1.00  0.00    -0.330 C  
BRANCH  12  13
HETATM   13  C   UNL     1     -12.374  14.906  70.147  1.00  0.00    -0.327 C  
HETATM   14  O   UNL     1     -12.026  13.529  69.907  1.00  0.00    -0.316 OA 
HETATM   15  C   UNL     1     -12.904  12.750  70.717  1.00  0.00    -0.030 C  
HETATM   16  C   UNL     1     -13.017  13.522  72.035  1.00  0.00    -0.324 C  
HETATM   17  H   UNL     1     -13.947  15.896  72.857  1.00  0.00     0.000 HD 
HETATM   18  O   UNL     1     -14.329  13.440  72.606  1.00  0.00    -0.709 OA 
HETATM   19  C   UNL     1     -12.678  14.969  71.646  1.00  0.00    -0.340 C  
HETATM   20  O   UNL     1     -13.758  15.857  71.926  1.00  0.00    -0.355 OA 
HETATM   21  H   UNL     1     -14.400  13.919  73.424  1.00  0.00     0.000 HD 
BRANCH  15  22
HETATM   22  N   UNL     1     -12.399  11.396  70.812  1.00  0.00    -0.388 NA 
HETATM   23  C   UNL     1     -12.672  10.491  71.803  1.00  0.00    -0.402 A  
HETATM   24  C   UNL     1     -10.995   9.726  70.727  1.00  0.00    -0.336 A  
HETATM   25  N   UNL     1     -11.835   9.472  71.788  1.00  0.00    -0.385 NA 
HETATM   26  C   UNL     1      -9.866   9.054  70.227  1.00  0.00    -0.194 A  
HETATM   27  N   UNL     1      -9.283   9.523  69.100  1.00  0.00    -0.156 NA 
HETATM   28  N   UNL     1      -9.301   7.948  70.844  1.00  0.00    -0.152 NA 
HETATM   29  H2  UNL     1     -10.041   7.254  70.959  1.00  0.00     0.000 HD 
HETATM   30  C   UNL     1      -9.780  10.646  68.541  1.00  0.00    -0.174 A  
HETATM   31  H1  UNL     1      -8.482   7.460  70.481  1.00  0.00     0.000 HD 
HETATM   32  N   UNL     1     -10.794  11.426  68.974  1.00  0.00    -0.213 NA 
HETATM   33  C   UNL     1     -11.367  10.888  70.069  1.00  0.00    -0.307 A  
ENDBRANCH  15  22
ENDBRANCH  12  13
ENDBRANCH  10  12
ENDBRANCH   9  10
ENDBRANCH   8   9
ENDBRANCH   1   8
TORSDOF 6
ENDMDL
MODEL      117
REMARK 921   NORMALIZED FREE ENERGY PREDICTED BY IDOCK:   -5.11 KCAL/MOL
REMARK 922        TOTAL FREE ENERGY PREDICTED BY IDOCK:   -8.32 KCAL/MOL
REMARK 923 INTER-LIGAND FREE ENERGY PREDICTED BY IDOCK:   -7.73 KCAL/MOL
REMARK 924 INTRA-LIGAND FREE ENERGY PREDICTED BY IDOCK:   -0.59 KCAL/MOL
REMARK 927      BINDING AFFINITY PREDICTED BY RF-SCORE:    0.00 PKD
ROOT
HETATM    1  CA  UNL     1     -12.753   8.629  71.524  1.00  0.00    -0.316 C  
HETATM    2  C   UNL     1     -12.055   7.222  71.391  1.00  0.00    -0.335 C  
HETATM    3  N   UNL     1     -13.370   8.727  72.896  1.00  0.00    -0.837 NA 
HETATM    4  OXT UNL     1     -12.062   6.736  70.221  1.00  0.00    -0.328 OA 
HETATM    5  H2  UNL     1     -13.743   9.656  73.094  1.00  0.00     0.000 HD 
HETATM    6  O   UNL     1     -11.589   6.752  72.466  1.00  0.00    -0.260 OA 
HETATM    7  H1  UNL     1     -14.074   7.994  72.979  1.00  0.00     0.000 HD 
ENDROOT
BRANCH   1   8
HETATM    8  C   UNL     1     -11.700   9.727  71.399  1.00  0.00    -0.475 C  
BRANCH   8   9
HETATM    9  C   UNL     1     -11.822  10.584  70.135  1.00  0.00    -0.320 C  
BRANCH   9  10
HETATM   10  S   UNL     1     -10.252  10.517  69.161  1.00  0.00    -0.230 S  
HETATM   11  C   UNL     1     -10.586   8.894  68.415  1.00  0.00    -0.143 C  
BRANCH  10  12
HETATM   12  C   UNL     1     -10.840  11.533  67.741  1.00  0.00    -0.221 C  
BRANCH  12  13
HETATM   13  C   UNL     1      -9.665  12.251  67.064  1.00  0.00    -0.205 C  
HETATM   14  O   UNL     1      -9.755  13.675  67.269  1.00  0.00    -0.231 OA 
HETATM   15  C   UNL     1      -8.454  14.197  67.008  1.00  0.00    -0.156 C  
HETATM   16  C   UNL     1      -7.488  13.175  67.613  1.00  0.00    -0.164 C  
HETATM   17  H   UNL     1      -6.821  10.612  67.212  1.00  0.00     0.000 HD 
HETATM   18  O   UNL     1      -6.293  13.024  66.836  1.00  0.00    -0.451 OA 
HETATM   19  C   UNL     1      -8.297  11.869  67.634  1.00  0.00    -0.152 C  
HETATM   20  O   UNL     1      -7.671  10.850  66.858  1.00  0.00    -0.122 OA 
HETATM   21  H   UNL     1      -5.693  12.390  67.212  1.00  0.00     0.000 HD 
BRANCH  15  22
HETATM   22  N   UNL     1      -8.363  15.547  67.526  1.00  0.00    -0.163 NA 
HETATM   23  C   UNL     1      -7.671  15.948  68.638  1.00  0.00    -0.161 A  
HETATM   24  C   UNL     1      -8.980  17.555  68.123  1.00  0.00    -0.266 A  
HETATM   25  N   UNL     1      -8.027  17.156  69.033  1.00  0.00    -0.192 NA 
HETATM   26  C   UNL     1      -9.779  18.707  68.028  1.00  0.00    -0.321 A  
HETATM   27  N   UNL     1     -10.590  18.843  66.953  1.00  0.00    -0.421 NA 
HETATM   28  N   UNL     1      -9.800  19.702  68.994  1.00  0.00    -0.428 NA 
HETATM   29  H2  UNL     1      -8.838  20.012  69.131  1.00  0.00     0.000 HD 
HETATM   30  C   UNL     1     -10.632  17.839  66.052  1.00  0.00    -0.229 A  
HETATM   31  H1  UNL     1     -10.381  20.538  68.924  1.00  0.00     0.000 HD 
HETATM   32  N   UNL     1      -9.986  16.653  66.078  1.00  0.00    -0.392 NA 
HETATM   33  C   UNL     1      -9.160  16.592  67.142  1.00  0.00    -0.214 A  
ENDBRANCH  15  22
ENDBRANCH  12  13
ENDBRANCH  10  12
ENDBRANCH   9  10
ENDBRANCH   8   9
ENDBRANCH   1   8
TORSDOF 6
ENDMDL
MODEL      118
REMARK 921   NORMALIZED FREE ENERGY PREDICTED BY IDOCK:   -5.10 KCAL/MOL
REMARK 922        TOTAL FREE ENERGY PREDICTED BY IDOCK:   -8.30 KCAL/MOL
REMARK 923 INTER-LIGAND FREE ENERGY PREDICTED BY IDOCK:   -7.86 KCAL/MOL
REMARK 924 INTRA-LIGAND FREE ENERGY PREDICTED BY IDOCK:   -0.45 KCAL/MOL
REMARK 927      BINDING AFFINITY PREDICTED BY RF-SCORE:    0.00 PKD
ROOT
HETATM    1  CA  UNL     1      -9.721   6.309  71.553  1.00  0.00    -0.162 C  
HETATM    2  C   UNL     1      -9.279   4.854  71.139  1.00  0.00    -0.145 C  
HETATM    3  N   UNL     1      -9.003   6.683  72.824  1.00  0.00    -0.123 NA 
HETATM    4  OXT UNL     1     -10.170   4.178  70.545  1.00  0.00    -0.088 OA 
HETATM    5  H2  UNL     1      -9.154   7.656  73.090  1.00  0.00     0.000 HD 
HETATM    6  O   UNL     1      -8.099   4.541  71.462  1.00  0.00    -0.095 OA 
HETATM    7  H1  UNL     1      -9.286   6.026  73.551  1.00  0.00     0.000 HD 
ENDROOT
BRANCH   1   8
HETATM    8  C   UNL     1      -9.298   7.292  70.464  1.00  0.00    -0.158 C  
BRANCH   8   9
HETATM    9  C   UNL     1     -10.237   7.344  69.254  1.00  0.00    -0.199 C  
BRANCH   9  10
HETATM   10  S   UNL     1     -10.410   9.083  68.651  1.00  0.00    -0.198 S  
HETATM   11  C   UNL     1      -9.386   9.818  69.960  1.00  0.00    -0.235 C  
BRANCH  10  12
HETATM   12  C   UNL     1      -9.090   8.994  67.368  1.00  0.00    -0.131 C  
BRANCH  12  13
HETATM   13  C   UNL     1      -9.692   9.119  65.962  1.00  0.00    -0.287 C  
HETATM   14  O   UNL     1     -10.618  10.222  65.902  1.00  0.00    -0.141 OA 
HETATM   15  C   UNL     1     -10.781  10.531  64.520  1.00  0.00     0.263 C  
HETATM   16  C   UNL     1      -9.381  10.386  63.914  1.00  0.00    -0.279 C  
HETATM   17  H   UNL     1      -7.588   8.433  63.532  1.00  0.00     0.000 HD 
HETATM   18  O   UNL     1      -9.412   9.852  62.584  1.00  0.00    -0.417 OA 
HETATM   19  C   UNL     1      -8.660   9.427  64.874  1.00  0.00    -0.176 C  
HETATM   20  O   UNL     1      -8.229   8.242  64.207  1.00  0.00    -0.160 OA 
HETATM   21  H   UNL     1      -8.544   9.763  62.209  1.00  0.00     0.000 HD 
BRANCH  15  22
HETATM   22  N   UNL     1     -11.403  11.832  64.386  1.00  0.00    -0.323 NA 
HETATM   23  C   UNL     1     -12.373  12.183  63.485  1.00  0.00    -0.574 A  
HETATM   24  C   UNL     1     -11.601  14.004  64.289  1.00  0.00    -0.329 A  
HETATM   25  N   UNL     1     -12.512  13.492  63.393  1.00  0.00    -0.778 NA 
HETATM   26  C   UNL     1     -11.224  15.318  64.614  1.00  0.00    -0.356 A  
HETATM   27  N   UNL     1     -10.329  15.505  65.611  1.00  0.00    -0.354 NA 
HETATM   28  N   UNL     1     -11.704  16.436  63.948  1.00  0.00    -1.527 NA 
HETATM   29  H2  UNL     1     -12.723  16.396  63.982  1.00  0.00     0.000 HD 
HETATM   30  C   UNL     1      -9.799  14.417  66.208  1.00  0.00    -0.304 A  
HETATM   31  H1  UNL     1     -11.431  17.390  64.184  1.00  0.00     0.000 HD 
HETATM   32  N   UNL     1     -10.010  13.113  65.926  1.00  0.00    -0.282 NA 
HETATM   33  C   UNL     1     -10.943  12.986  64.961  1.00  0.00    -0.298 A  
ENDBRANCH  15  22
ENDBRANCH  12  13
ENDBRANCH  10  12
ENDBRANCH   9  10
ENDBRANCH   8   9
ENDBRANCH   1   8
TORSDOF 6
ENDMDL
MODEL      119
REMARK 921   NORMALIZED FREE ENERGY PREDICTED BY IDOCK:   -5.09 KCAL/MOL
REMARK 922        TOTAL FREE ENERGY PREDICTED BY IDOCK:   -8.30 KCAL/MOL
REMARK 923 INTER-LIGAND FREE ENERGY PREDICTED BY IDOCK:   -7.52 KCAL/MOL
REMARK 924 INTRA-LIGAND FREE ENERGY PREDICTED BY IDOCK:   -0.79 KCAL/MOL
REMARK 927      BINDING AFFINITY PREDICTED BY RF-SCORE:    0.00 PKD
ROOT
HETATM    1  CA  UNL     1      -9.356  17.581  66.464  1.00  0.00    -0.265 C  
HETATM    2  C   UNL     1     -10.451  18.712  66.389  1.00  0.00    -0.418 C  
HETATM    3  N   UNL     1      -8.488  17.836  67.669  1.00  0.00    -0.227 NA 
HETATM    4  OXT UNL     1     -10.811  19.023  65.216  1.00  0.00    -0.540 OA 
HETATM    5  H2  UNL     1      -7.827  17.080  67.845  1.00  0.00     0.000 HD 
HETATM    6  O   UNL     1     -10.821  19.173  67.505  1.00  0.00    -0.473 OA 
HETATM    7  H1  UNL     1      -8.031  18.739  67.543  1.00  0.00     0.000 HD 
ENDROOT
BRANCH   1   8
HETATM    8  C   UNL     1     -10.040  16.229  66.651  1.00  0.00    -0.283 C  
BRANCH   8   9
HETATM    9  C   UNL     1     -10.563  15.596  65.358  1.00  0.00    -0.415 C  
BRANCH   9  10
HETATM   10  S   UNL     1     -11.905  14.382  65.735  1.00  0.00    -0.343 S  
HETATM   11  C   UNL     1     -12.370  14.100  64.001  1.00  0.00    -0.275 C  
BRANCH  10  12
HETATM   12  C   UNL     1     -10.813  12.907  65.909  1.00  0.00    -0.272 C  
BRANCH  12  13
HETATM   13  C   UNL     1     -11.262  12.036  67.090  1.00  0.00    -0.316 C  
HETATM   14  O   UNL     1     -10.979  10.647  66.832  1.00  0.00    -0.243 OA 
HETATM   15  C   UNL     1     -11.012   9.992  68.098  1.00  0.00    -0.235 C  
HETATM   16  C   UNL     1     -10.340  10.970  69.067  1.00  0.00    -0.209 C  
HETATM   17  H   UNL     1     -10.808  13.424  70.034  1.00  0.00     0.000 HD 
HETATM   18  O   UNL     1     -10.942  10.952  70.368  1.00  0.00    -0.458 OA 
HETATM   19  C   UNL     1     -10.524  12.340  68.396  1.00  0.00    -0.233 C  
HETATM   20  O   UNL     1     -11.266  13.235  69.223  1.00  0.00    -0.253 OA 
HETATM   21  H   UNL     1     -10.526  11.559  70.969  1.00  0.00     0.000 HD 
BRANCH  15  22
HETATM   22  N   UNL     1     -10.397   8.686  67.982  1.00  0.00    -0.223 NA 
HETATM   23  C   UNL     1      -9.919   8.108  66.835  1.00  0.00    -0.273 A  
HETATM   24  C   UNL     1     -10.056   6.551  68.289  1.00  0.00    -0.159 A  
HETATM   25  N   UNL     1      -9.711   6.814  66.983  1.00  0.00    -0.149 NA 
HETATM   26  C   UNL     1     -10.113   5.362  69.036  1.00  0.00    -0.213 A  
HETATM   27  N   UNL     1     -10.429   5.439  70.350  1.00  0.00    -0.280 NA 
HETATM   28  N   UNL     1      -9.886   4.107  68.490  1.00  0.00    -0.077 NA 
HETATM   29  H2  UNL     1      -8.974   4.135  68.033  1.00  0.00     0.000 HD 
HETATM   30  C   UNL     1     -10.729   6.649  70.866  1.00  0.00    -0.235 A  
HETATM   31  H1  UNL     1      -9.927   3.244  69.033  1.00  0.00     0.000 HD 
HETATM   32  N   UNL     1     -10.797   7.842  70.236  1.00  0.00    -0.247 NA 
HETATM   33  C   UNL     1     -10.428   7.714  68.946  1.00  0.00    -0.199 A  
ENDBRANCH  15  22
ENDBRANCH  12  13
ENDBRANCH  10  12
ENDBRANCH   9  10
ENDBRANCH   8   9
ENDBRANCH   1   8
TORSDOF 6
ENDMDL
MODEL      120
REMARK 921   NORMALIZED FREE ENERGY PREDICTED BY IDOCK:   -5.09 KCAL/MOL
REMARK 922        TOTAL FREE ENERGY PREDICTED BY IDOCK:   -8.30 KCAL/MOL
REMARK 923 INTER-LIGAND FREE ENERGY PREDICTED BY IDOCK:   -7.28 KCAL/MOL
REMARK 924 INTRA-LIGAND FREE ENERGY PREDICTED BY IDOCK:   -1.02 KCAL/MOL
REMARK 927      BINDING AFFINITY PREDICTED BY RF-SCORE:    0.00 PKD
ROOT
HETATM    1  CA  UNL     1      -6.576  10.789  68.285  1.00  0.00    -0.058 C  
HETATM    2  C   UNL     1      -6.745  11.519  66.898  1.00  0.00    -0.139 C  
HETATM    3  N   UNL     1      -7.636  11.300  69.226  1.00  0.00    -0.322 NA 
HETATM    4  OXT UNL     1      -5.666  11.705  66.263  1.00  0.00    -0.225 OA 
HETATM    5  H2  UNL     1      -7.659  10.790  70.108  1.00  0.00     0.000 HD 
HETATM    6  O   UNL     1      -7.930  11.837  66.602  1.00  0.00    -0.148 OA 
HETATM    7  H1  UNL     1      -7.489  12.302  69.353  1.00  0.00     0.000 HD 
ENDROOT
BRANCH   1   8
HETATM    8  C   UNL     1      -6.795   9.290  68.095  1.00  0.00    -0.064 C  
BRANCH   8   9
HETATM    9  C   UNL     1      -7.416   8.580  69.302  1.00  0.00    -0.082 C  
BRANCH   9  10
HETATM   10  S   UNL     1      -9.001   7.760  68.817  1.00  0.00    -0.140 S  
HETATM   11  C   UNL     1      -8.213   6.306  68.062  1.00  0.00    -0.115 C  
BRANCH  10  12
HETATM   12  C   UNL     1      -9.351   6.991  70.455  1.00  0.00    -0.159 C  
BRANCH  12  13
HETATM   13  C   UNL     1     -10.248   7.904  71.302  1.00  0.00    -0.187 C  
HETATM   14  O   UNL     1     -10.303   9.228  70.735  1.00  0.00    -0.236 OA 
HETATM   15  C   UNL     1     -11.454   9.854  71.299  1.00  0.00    -0.361 C  
HETATM   16  C   UNL     1     -12.521   8.756  71.342  1.00  0.00    -0.303 C  
HETATM   17  H   UNL     1     -12.882   6.402  72.568  1.00  0.00     0.000 HD 
HETATM   18  O   UNL     1     -13.360   8.853  72.500  1.00  0.00    -0.499 OA 
HETATM   19  C   UNL     1     -11.709   7.452  71.360  1.00  0.00    -0.288 C  
HETATM   20  O   UNL     1     -11.975   6.683  72.532  1.00  0.00    -0.186 OA 
HETATM   21  H   UNL     1     -14.022   8.172  72.527  1.00  0.00     0.000 HD 
BRANCH  15  22
HETATM   22  N   UNL     1     -11.785  11.036  70.531  1.00  0.00    -0.334 NA 
HETATM   23  C   UNL     1     -11.258  11.395  69.318  1.00  0.00    -0.277 A  
HETATM   24  C   UNL     1     -12.249  13.123  70.086  1.00  0.00    -0.290 A  
HETATM   25  N   UNL     1     -11.512  12.655  69.022  1.00  0.00    -0.284 NA 
HETATM   26  C   UNL     1     -12.769  14.391  70.397  1.00  0.00    -0.304 A  
HETATM   27  N   UNL     1     -13.530  14.521  71.508  1.00  0.00    -0.356 NA 
HETATM   28  N   UNL     1     -12.521  15.524  69.637  1.00  0.00    -0.591 NA 
HETATM   29  H2  UNL     1     -12.795  15.312  68.677  1.00  0.00     0.000 HD 
HETATM   30  C   UNL     1     -13.707  13.439  72.294  1.00  0.00    -0.607 A  
HETATM   31  H1  UNL     1     -12.899  16.445  69.863  1.00  0.00     0.000 HD 
HETATM   32  N   UNL     1     -13.190  12.199  72.151  1.00  0.00    -0.453 NA 
HETATM   33  C   UNL     1     -12.482  12.114  71.008  1.00  0.00    -0.269 A  
ENDBRANCH  15  22
ENDBRANCH  12  13
ENDBRANCH  10  12
ENDBRANCH   9  10
ENDBRANCH   8   9
ENDBRANCH   1   8
TORSDOF 6
ENDMDL
MODEL      121
REMARK 921   NORMALIZED FREE ENERGY PREDICTED BY IDOCK:   -5.09 KCAL/MOL
REMARK 922        TOTAL FREE ENERGY PREDICTED BY IDOCK:   -8.29 KCAL/MOL
REMARK 923 INTER-LIGAND FREE ENERGY PREDICTED BY IDOCK:   -8.14 KCAL/MOL
REMARK 924 INTRA-LIGAND FREE ENERGY PREDICTED BY IDOCK:   -0.15 KCAL/MOL
REMARK 927      BINDING AFFINITY PREDICTED BY RF-SCORE:    0.00 PKD
ROOT
HETATM    1  CA  UNL     1      -7.147  17.812  66.400  1.00  0.00    -0.264 C  
HETATM    2  C   UNL     1      -7.271  19.345  66.054  1.00  0.00    -0.284 C  
HETATM    3  N   UNL     1      -5.735  17.370  66.115  1.00  0.00    -0.250 NA 
HETATM    4  OXT UNL     1      -8.410  19.702  65.634  1.00  0.00    -0.385 OA 
HETATM    5  H2  UNL     1      -5.551  16.415  66.423  1.00  0.00     0.000 HD 
HETATM    6  O   UNL     1      -6.217  20.018  66.227  1.00  0.00    -0.179 OA 
HETATM    7  H1  UNL     1      -5.557  17.505  65.120  1.00  0.00     0.000 HD 
ENDROOT
BRANCH   1   8
HETATM    8  C   UNL     1      -7.414  17.609  67.890  1.00  0.00    -0.204 C  
BRANCH   8   9
HETATM    9  C   UNL     1      -8.897  17.610  68.276  1.00  0.00    -0.276 C  
BRANCH   9  10
HETATM   10  S   UNL     1      -9.704  16.040  67.726  1.00  0.00    -0.221 S  
HETATM   11  C   UNL     1     -11.080  16.135  68.910  1.00  0.00    -0.347 C  
BRANCH  10  12
HETATM   12  C   UNL     1     -10.605  16.758  66.288  1.00  0.00    -0.190 C  
BRANCH  12  13
HETATM   13  C   UNL     1     -10.616  15.775  65.109  1.00  0.00    -0.411 C  
HETATM   14  O   UNL     1      -9.930  14.557  65.458  1.00  0.00    -0.342 OA 
HETATM   15  C   UNL     1     -10.355  13.577  64.514  1.00  0.00    -0.358 C  
HETATM   16  C   UNL     1     -11.851  13.842  64.315  1.00  0.00    -0.417 C  
HETATM   17  H   UNL     1     -13.395  15.809  63.355  1.00  0.00     0.000 HD 
HETATM   18  O   UNL     1     -12.272  13.613  62.964  1.00  0.00    -0.995 OA 
HETATM   19  C   UNL     1     -12.019  15.320  64.698  1.00  0.00    -0.233 C  
HETATM   20  O   UNL     1     -12.524  16.092  63.611  1.00  0.00    -0.631 OA 
HETATM   21  H   UNL     1     -13.199  13.777  62.840  1.00  0.00     0.000 HD 
BRANCH  15  22
HETATM   22  N   UNL     1     -10.000  12.258  64.995  1.00  0.00    -0.241 NA 
HETATM   23  C   UNL     1     -10.290  11.063  64.391  1.00  0.00    -0.358 A  
HETATM   24  C   UNL     1      -9.684  10.604  66.386  1.00  0.00    -0.196 A  
HETATM   25  N   UNL     1     -10.120  10.041  65.208  1.00  0.00    -0.297 NA 
HETATM   26  C   UNL     1      -9.386  10.058  67.646  1.00  0.00    -0.144 A  
HETATM   27  N   UNL     1      -8.900  10.879  68.607  1.00  0.00    -0.153 NA 
HETATM   28  N   UNL     1      -9.588   8.724  67.967  1.00  0.00    -0.140 NA 
HETATM   29  H2  UNL     1      -9.094   8.166  67.271  1.00  0.00     0.000 HD 
HETATM   30  C   UNL     1      -8.778  12.193  68.324  1.00  0.00    -0.178 A  
HETATM   31  H1  UNL     1      -9.372   8.328  68.882  1.00  0.00     0.000 HD 
HETATM   32  N   UNL     1      -9.112  12.847  67.191  1.00  0.00    -0.213 NA 
HETATM   33  C   UNL     1      -9.544  11.977  66.256  1.00  0.00    -0.231 A  
ENDBRANCH  15  22
ENDBRANCH  12  13
ENDBRANCH  10  12
ENDBRANCH   9  10
ENDBRANCH   8   9
ENDBRANCH   1   8
TORSDOF 6
ENDMDL
MODEL      122
REMARK 921   NORMALIZED FREE ENERGY PREDICTED BY IDOCK:   -5.08 KCAL/MOL
REMARK 922        TOTAL FREE ENERGY PREDICTED BY IDOCK:   -8.28 KCAL/MOL
REMARK 923 INTER-LIGAND FREE ENERGY PREDICTED BY IDOCK:   -8.05 KCAL/MOL
REMARK 924 INTRA-LIGAND FREE ENERGY PREDICTED BY IDOCK:   -0.23 KCAL/MOL
REMARK 927      BINDING AFFINITY PREDICTED BY RF-SCORE:    0.00 PKD
ROOT
HETATM    1  CA  UNL     1      -9.335   9.786  64.650  1.00  0.00    -0.256 C  
HETATM    2  C   UNL     1      -7.779   9.723  64.408  1.00  0.00    -0.134 C  
HETATM    3  N   UNL     1      -9.581  10.258  66.059  1.00  0.00    -0.193 NA 
HETATM    4  OXT UNL     1      -7.404   8.815  63.610  1.00  0.00    -0.098 OA 
HETATM    5  H2  UNL     1     -10.568  10.432  66.250  1.00  0.00     0.000 HD 
HETATM    6  O   UNL     1      -7.103  10.574  65.050  1.00  0.00    -0.099 OA 
HETATM    7  H1  UNL     1      -9.170   9.577  66.697  1.00  0.00     0.000 HD 
ENDROOT
BRANCH   1   8
HETATM    8  C   UNL     1      -9.952  10.806  63.695  1.00  0.00    -0.405 C  
BRANCH   8   9
HETATM    9  C   UNL     1     -11.362  11.264  64.079  1.00  0.00    -0.055 C  
BRANCH   9  10
HETATM   10  S   UNL     1     -11.664  12.984  63.470  1.00  0.00    -0.399 S  
HETATM   11  C   UNL     1     -13.016  13.339  64.632  1.00  0.00     0.006 C  
BRANCH  10  12
HETATM   12  C   UNL     1     -10.324  13.792  64.443  1.00  0.00    -0.140 C  
BRANCH  12  13
HETATM   13  C   UNL     1     -10.915  14.694  65.535  1.00  0.00    -0.340 C  
HETATM   14  O   UNL     1     -11.414  13.902  66.632  1.00  0.00    -0.328 OA 
HETATM   15  C   UNL     1     -11.529  14.789  67.742  1.00  0.00    -0.345 C  
HETATM   16  C   UNL     1     -10.293  15.690  67.660  1.00  0.00    -0.275 C  
HETATM   17  H   UNL     1      -9.290  17.515  65.976  1.00  0.00     0.000 HD 
HETATM   18  O   UNL     1     -10.567  17.036  68.068  1.00  0.00    -0.346 OA 
HETATM   19  C   UNL     1      -9.894  15.636  66.177  1.00  0.00    -0.314 C  
HETATM   20  O   UNL     1      -9.924  16.930  65.578  1.00  0.00    -0.572 OA 
HETATM   21  H   UNL     1      -9.801  17.595  68.017  1.00  0.00     0.000 HD 
BRANCH  15  22
HETATM   22  N   UNL     1     -11.679  14.020  68.961  1.00  0.00    -0.307 NA 
HETATM   23  C   UNL     1     -11.544  12.663  69.090  1.00  0.00    -0.320 A  
HETATM   24  C   UNL     1     -12.501  13.352  70.870  1.00  0.00    -0.359 A  
HETATM   25  N   UNL     1     -12.040  12.224  70.230  1.00  0.00    -0.336 NA 
HETATM   26  C   UNL     1     -13.182  13.545  72.084  1.00  0.00    -0.458 A  
HETATM   27  N   UNL     1     -13.442  14.812  72.484  1.00  0.00    -0.409 NA 
HETATM   28  N   UNL     1     -13.627  12.502  72.883  1.00  0.00    -0.435 NA 
HETATM   29  H2  UNL     1     -12.823  11.906  73.079  1.00  0.00     0.000 HD 
HETATM   30  C   UNL     1     -13.082  15.827  71.671  1.00  0.00    -0.421 A  
HETATM   31  H1  UNL     1     -14.121  12.643  73.764  1.00  0.00     0.000 HD 
HETATM   32  N   UNL     1     -12.508  15.767  70.449  1.00  0.00    -0.371 NA 
HETATM   33  C   UNL     1     -12.231  14.489  70.123  1.00  0.00    -0.342 A  
ENDBRANCH  15  22
ENDBRANCH  12  13
ENDBRANCH  10  12
ENDBRANCH   9  10
ENDBRANCH   8   9
ENDBRANCH   1   8
TORSDOF 6
ENDMDL
MODEL      123
REMARK 921   NORMALIZED FREE ENERGY PREDICTED BY IDOCK:   -5.03 KCAL/MOL
REMARK 922        TOTAL FREE ENERGY PREDICTED BY IDOCK:   -8.22 KCAL/MOL
REMARK 923 INTER-LIGAND FREE ENERGY PREDICTED BY IDOCK:   -7.18 KCAL/MOL
REMARK 924 INTRA-LIGAND FREE ENERGY PREDICTED BY IDOCK:   -1.04 KCAL/MOL
REMARK 927      BINDING AFFINITY PREDICTED BY RF-SCORE:    0.00 PKD
ROOT
HETATM    1  CA  UNL     1      -7.232   8.431  65.294  1.00  0.00    -0.082 C  
HETATM    2  C   UNL     1      -7.041   9.959  64.956  1.00  0.00    -0.131 C  
HETATM    3  N   UNL     1      -6.474   8.125  66.560  1.00  0.00    -0.054 NA 
HETATM    4  OXT UNL     1      -7.038  10.231  63.719  1.00  0.00    -0.125 OA 
HETATM    5  H2  UNL     1      -6.645   7.179  66.902  1.00  0.00     0.000 HD 
HETATM    6  O   UNL     1      -6.902  10.715  65.957  1.00  0.00    -0.126 OA 
HETATM    7  H1  UNL     1      -5.486   8.310  66.390  1.00  0.00     0.000 HD 
ENDROOT
BRANCH   1   8
HETATM    8  C   UNL     1      -8.711   8.153  65.549  1.00  0.00    -0.152 C  
BRANCH   8   9
HETATM    9  C   UNL     1      -9.000   7.390  66.845  1.00  0.00    -0.135 C  
BRANCH   9  10
HETATM   10  S   UNL     1     -10.215   8.322  67.881  1.00  0.00    -0.224 S  
HETATM   11  C   UNL     1     -10.168   7.162  69.280  1.00  0.00    -0.190 C  
BRANCH  10  12
HETATM   12  C   UNL     1      -9.015   9.540  68.569  1.00  0.00    -0.128 C  
BRANCH  12  13
HETATM   13  C   UNL     1      -9.747  10.772  69.118  1.00  0.00    -0.163 C  
HETATM   14  O   UNL     1      -9.946  11.749  68.077  1.00  0.00    -0.177 OA 
HETATM   15  C   UNL     1     -10.975  12.620  68.540  1.00  0.00    -0.261 C  
HETATM   16  C   UNL     1     -11.986  11.703  69.235  1.00  0.00    -0.317 C  
HETATM   17  H   UNL     1     -12.040  10.084  71.369  1.00  0.00     0.000 HD 
HETATM   18  O   UNL     1     -12.580  12.316  70.387  1.00  0.00    -0.158 OA 
HETATM   19  C   UNL     1     -11.156  10.474  69.635  1.00  0.00    -0.283 C  
HETATM   20  O   UNL     1     -11.165  10.270  71.047  1.00  0.00    -0.315 OA 
HETATM   21  H   UNL     1     -13.207  11.748  70.818  1.00  0.00     0.000 HD 
BRANCH  15  22
HETATM   22  N   UNL     1     -11.481  13.402  67.430  1.00  0.00    -0.315 NA 
HETATM   23  C   UNL     1     -12.341  12.972  66.454  1.00  0.00    -0.157 A  
HETATM   24  C   UNL     1     -11.500  14.807  65.759  1.00  0.00    -0.322 A  
HETATM   25  N   UNL     1     -12.369  13.794  65.423  1.00  0.00    -0.445 NA 
HETATM   26  C   UNL     1     -11.051  15.944  65.065  1.00  0.00    -0.360 A  
HETATM   27  N   UNL     1     -10.232  16.809  65.705  1.00  0.00    -0.577 NA 
HETATM   28  N   UNL     1     -11.384  16.212  63.745  1.00  0.00    -1.180 NA 
HETATM   29  H2  UNL     1     -12.402  16.200  63.681  1.00  0.00     0.000 HD 
HETATM   30  C   UNL     1      -9.841  16.511  66.961  1.00  0.00    -0.257 A  
HETATM   31  H1  UNL     1     -11.058  17.037  63.241  1.00  0.00     0.000 HD 
HETATM   32  N   UNL     1     -10.128  15.415  67.697  1.00  0.00    -0.234 NA 
HETATM   33  C   UNL     1     -10.983  14.613  67.031  1.00  0.00    -0.317 A  
ENDBRANCH  15  22
ENDBRANCH  12  13
ENDBRANCH  10  12
ENDBRANCH   9  10
ENDBRANCH   8   9
ENDBRANCH   1   8
TORSDOF 6
ENDMDL
MODEL      124
REMARK 921   NORMALIZED FREE ENERGY PREDICTED BY IDOCK:   -5.02 KCAL/MOL
REMARK 922        TOTAL FREE ENERGY PREDICTED BY IDOCK:   -8.20 KCAL/MOL
REMARK 923 INTER-LIGAND FREE ENERGY PREDICTED BY IDOCK:   -7.55 KCAL/MOL
REMARK 924 INTRA-LIGAND FREE ENERGY PREDICTED BY IDOCK:   -0.65 KCAL/MOL
REMARK 927      BINDING AFFINITY PREDICTED BY RF-SCORE:    0.00 PKD
ROOT
HETATM    1  CA  UNL     1      -7.710  17.734  67.919  1.00  0.00    -0.225 C  
HETATM    2  C   UNL     1      -8.053  19.185  68.431  1.00  0.00    -0.343 C  
HETATM    3  N   UNL     1      -6.229  17.508  68.084  1.00  0.00    -0.162 NA 
HETATM    4  OXT UNL     1      -9.012  19.747  67.825  1.00  0.00    -0.313 OA 
HETATM    5  H2  UNL     1      -5.952  16.548  67.878  1.00  0.00     0.000 HD 
HETATM    6  O   UNL     1      -7.323  19.607  69.370  1.00  0.00    -0.337 OA 
HETATM    7  H1  UNL     1      -5.739  18.192  67.508  1.00  0.00     0.000 HD 
ENDROOT
BRANCH   1   8
HETATM    8  C   UNL     1      -8.444  16.709  68.780  1.00  0.00    -0.255 C  
BRANCH   8   9
HETATM    9  C   UNL     1      -9.781  16.235  68.202  1.00  0.00    -0.227 C  
BRANCH   9  10
HETATM   10  S   UNL     1     -10.042  14.443  68.577  1.00  0.00    -0.246 S  
HETATM   11  C   UNL     1     -11.834  14.467  68.274  1.00  0.00    -0.326 C  
BRANCH  10  12
HETATM   12  C   UNL     1      -9.550  13.807  66.919  1.00  0.00    -0.262 C  
BRANCH  12  13
HETATM   13  C   UNL     1      -9.259  12.301  66.980  1.00  0.00    -0.205 C  
HETATM   14  O   UNL     1      -9.266  11.839  68.345  1.00  0.00    -0.183 OA 
HETATM   15  C   UNL     1      -9.426  10.423  68.284  1.00  0.00    -0.148 C  
HETATM   16  C   UNL     1     -10.439  10.187  67.159  1.00  0.00    -0.246 C  
HETATM   17  H   UNL     1     -10.572  10.575  64.512  1.00  0.00     0.000 HD 
HETATM   18  O   UNL     1     -10.154   9.001  66.406  1.00  0.00    -0.294 OA 
HETATM   19  C   UNL     1     -10.312  11.440  66.279  1.00  0.00    -0.243 C  
HETATM   20  O   UNL     1      -9.919  11.110  64.948  1.00  0.00    -0.241 OA 
HETATM   21  H   UNL     1     -10.781   8.855  65.708  1.00  0.00     0.000 HD 
BRANCH  15  22
HETATM   22  N   UNL     1      -9.798   9.923  69.592  1.00  0.00    -0.219 NA 
HETATM   23  C   UNL     1      -9.215   8.879  70.262  1.00  0.00    -0.185 A  
HETATM   24  C   UNL     1     -11.061   9.286  71.256  1.00  0.00    -0.357 A  
HETATM   25  N   UNL     1      -9.958   8.462  71.269  1.00  0.00    -0.191 NA 
HETATM   26  C   UNL     1     -12.233   9.317  72.030  1.00  0.00    -0.348 A  
HETATM   27  N   UNL     1     -13.120  10.317  71.818  1.00  0.00    -0.446 NA 
HETATM   28  N   UNL     1     -12.542   8.360  72.985  1.00  0.00    -0.620 NA 
HETATM   29  H2  UNL     1     -11.754   8.310  73.631  1.00  0.00     0.000 HD 
HETATM   30  C   UNL     1     -12.862  11.204  70.835  1.00  0.00    -0.282 A  
HETATM   31  H1  UNL     1     -13.393   8.383  73.547  1.00  0.00     0.000 HD 
HETATM   32  N   UNL     1     -11.824  11.228  69.970  1.00  0.00    -0.337 NA 
HETATM   33  C   UNL     1     -10.952  10.242  70.257  1.00  0.00    -0.309 A  
ENDBRANCH  15  22
ENDBRANCH  12  13
ENDBRANCH  10  12
ENDBRANCH   9  10
ENDBRANCH   8   9
ENDBRANCH   1   8
TORSDOF 6
ENDMDL
MODEL      125
REMARK 921   NORMALIZED FREE ENERGY PREDICTED BY IDOCK:   -5.01 KCAL/MOL
REMARK 922        TOTAL FREE ENERGY PREDICTED BY IDOCK:   -8.19 KCAL/MOL
REMARK 923 INTER-LIGAND FREE ENERGY PREDICTED BY IDOCK:   -7.22 KCAL/MOL
REMARK 924 INTRA-LIGAND FREE ENERGY PREDICTED BY IDOCK:   -0.97 KCAL/MOL
REMARK 927      BINDING AFFINITY PREDICTED BY RF-SCORE:    0.00 PKD
ROOT
HETATM    1  CA  UNL     1     -10.190   6.151  68.166  1.00  0.00    -0.175 C  
HETATM    2  C   UNL     1      -9.556   4.935  67.389  1.00  0.00    -0.152 C  
HETATM    3  N   UNL     1     -11.183   6.832  67.260  1.00  0.00    -0.701 NA 
HETATM    4  OXT UNL     1      -8.356   4.678  67.697  1.00  0.00    -0.103 OA 
HETATM    5  H2  UNL     1     -11.716   7.560  67.736  1.00  0.00     0.000 HD 
HETATM    6  O   UNL     1     -10.319   4.381  66.549  1.00  0.00    -0.203 OA 
HETATM    7  H1  UNL     1     -10.679   7.180  66.445  1.00  0.00     0.000 HD 
ENDROOT
BRANCH   1   8
HETATM    8  C   UNL     1     -10.944   5.629  69.387  1.00  0.00    -0.244 C  
BRANCH   8   9
HETATM    9  C   UNL     1     -10.124   5.609  70.680  1.00  0.00    -0.211 C  
BRANCH   9  10
HETATM   10  S   UNL     1     -11.241   5.704  72.150  1.00  0.00    -0.187 S  
HETATM   11  C   UNL     1     -10.323   7.039  72.974  1.00  0.00    -0.260 C  
BRANCH  10  12
HETATM   12  C   UNL     1     -12.525   6.773  71.371  1.00  0.00    -0.329 C  
BRANCH  12  13
HETATM   13  C   UNL     1     -12.270   8.251  71.696  1.00  0.00    -0.313 C  
HETATM   14  O   UNL     1     -11.568   8.894  70.613  1.00  0.00    -0.271 OA 
HETATM   15  C   UNL     1     -11.760  10.295  70.792  1.00  0.00    -0.360 C  
HETATM   16  C   UNL     1     -13.215  10.441  71.246  1.00  0.00    -0.339 C  
HETATM   17  H   UNL     1     -14.711   9.708  73.343  1.00  0.00     0.000 HD 
HETATM   18  O   UNL     1     -13.388  11.493  72.204  1.00  0.00    -0.581 OA 
HETATM   19  C   UNL     1     -13.549   9.075  71.865  1.00  0.00    -0.431 C  
HETATM   20  O   UNL     1     -13.918   9.196  73.238  1.00  0.00    -0.227 OA 
HETATM   21  H   UNL     1     -14.290  11.584  72.485  1.00  0.00     0.000 HD 
BRANCH  15  22
HETATM   22  N   UNL     1     -11.398  10.991  69.574  1.00  0.00    -0.262 NA 
HETATM   23  C   UNL     1     -12.249  11.651  68.728  1.00  0.00     0.015 A  
HETATM   24  C   UNL     1     -10.412  11.404  67.670  1.00  0.00    -0.194 A  
HETATM   25  N   UNL     1     -11.688  11.907  67.562  1.00  0.00    -0.551 NA 
HETATM   26  C   UNL     1      -9.346  11.312  66.759  1.00  0.00    -0.177 A  
HETATM   27  N   UNL     1      -8.164  10.817  67.195  1.00  0.00    -0.121 NA 
HETATM   28  N   UNL     1      -9.449  11.679  65.425  1.00  0.00    -0.326 NA 
HETATM   29  H2  UNL     1      -9.787  12.642  65.401  1.00  0.00     0.000 HD 
HETATM   30  C   UNL     1      -8.083  10.384  68.470  1.00  0.00    -0.116 A  
HETATM   31  H1  UNL     1      -8.675  11.613  64.764  1.00  0.00     0.000 HD 
HETATM   32  N   UNL     1      -9.053  10.336  69.408  1.00  0.00    -0.201 NA 
HETATM   33  C   UNL     1     -10.191  10.883  68.936  1.00  0.00    -0.198 A  
ENDBRANCH  15  22
ENDBRANCH  12  13
ENDBRANCH  10  12
ENDBRANCH   9  10
ENDBRANCH   8   9
ENDBRANCH   1   8
TORSDOF 6
ENDMDL
MODEL      126
REMARK 921   NORMALIZED FREE ENERGY PREDICTED BY IDOCK:   -4.99 KCAL/MOL
REMARK 922        TOTAL FREE ENERGY PREDICTED BY IDOCK:   -8.15 KCAL/MOL
REMARK 923 INTER-LIGAND FREE ENERGY PREDICTED BY IDOCK:   -7.31 KCAL/MOL
REMARK 924 INTRA-LIGAND FREE ENERGY PREDICTED BY IDOCK:   -0.85 KCAL/MOL
REMARK 927      BINDING AFFINITY PREDICTED BY RF-SCORE:    0.00 PKD
ROOT
HETATM    1  CA  UNL     1     -11.453  13.830  64.199  1.00  0.00    -0.293 C  
HETATM    2  C   UNL     1     -11.755  12.411  63.583  1.00  0.00    -0.514 C  
HETATM    3  N   UNL     1     -12.529  14.785  63.749  1.00  0.00    -1.063 NA 
HETATM    4  OXT UNL     1     -10.729  11.718  63.320  1.00  0.00    -0.382 OA 
HETATM    5  H2  UNL     1     -12.461  15.696  64.201  1.00  0.00     0.000 HD 
HETATM    6  O   UNL     1     -12.979  12.149  63.418  1.00  0.00    -0.776 OA 
HETATM    7  H1  UNL     1     -12.491  14.845  62.732  1.00  0.00     0.000 HD 
ENDROOT
BRANCH   1   8
HETATM    8  C   UNL     1     -11.509  13.739  65.722  1.00  0.00    -0.324 C  
BRANCH   8   9
HETATM    9  C   UNL     1     -10.159  13.464  66.392  1.00  0.00    -0.292 C  
BRANCH   9  10
HETATM   10  S   UNL     1     -10.407  12.978  68.159  1.00  0.00    -0.244 S  
HETATM   11  C   UNL     1     -11.986  13.857  68.355  1.00  0.00    -0.356 C  
BRANCH  10  12
HETATM   12  C   UNL     1     -11.126  11.315  67.822  1.00  0.00    -0.271 C  
BRANCH  12  13
HETATM   13  C   UNL     1     -10.016  10.279  67.600  1.00  0.00    -0.179 C  
HETATM   14  O   UNL     1     -10.187   9.155  68.485  1.00  0.00    -0.186 OA 
HETATM   15  C   UNL     1      -9.416   8.091  67.930  1.00  0.00    -0.145 C  
HETATM   16  C   UNL     1      -9.630   8.194  66.417  1.00  0.00    -0.216 C  
HETATM   17  H   UNL     1      -9.094   9.945  64.463  1.00  0.00     0.000 HD 
HETATM   18  O   UNL     1      -8.452   7.857  65.673  1.00  0.00    -0.138 OA 
HETATM   19  C   UNL     1     -10.016   9.664  66.197  1.00  0.00    -0.276 C  
HETATM   20  O   UNL     1      -9.094  10.326  65.334  1.00  0.00    -0.164 OA 
HETATM   21  H   UNL     1      -8.585   7.920  64.735  1.00  0.00     0.000 HD 
BRANCH  15  22
HETATM   22  N   UNL     1      -9.807   6.840  68.547  1.00  0.00    -0.139 NA 
HETATM   23  C   UNL     1     -10.787   6.665  69.488  1.00  0.00    -0.289 A  
HETATM   24  C   UNL     1      -9.624   4.875  69.482  1.00  0.00    -0.170 A  
HETATM   25  N   UNL     1     -10.700   5.490  70.081  1.00  0.00    -0.304 NA 
HETATM   26  C   UNL     1      -8.988   3.643  69.708  1.00  0.00    -0.106 A  
HETATM   27  N   UNL     1      -7.974   3.279  68.888  1.00  0.00    -0.057 NA 
HETATM   28  N   UNL     1      -9.327   2.788  70.746  1.00  0.00    -0.140 NA 
HETATM   29  H2  UNL     1     -10.328   2.603  70.672  1.00  0.00     0.000 HD 
HETATM   30  C   UNL     1      -7.587   4.144  67.927  1.00  0.00    -0.068 A  
HETATM   31  H1  UNL     1      -8.865   1.893  70.910  1.00  0.00     0.000 HD 
HETATM   32  N   UNL     1      -8.056   5.385  67.669  1.00  0.00    -0.100 NA 
HETATM   33  C   UNL     1      -9.091   5.674  68.482  1.00  0.00    -0.114 A  
ENDBRANCH  15  22
ENDBRANCH  12  13
ENDBRANCH  10  12
ENDBRANCH   9  10
ENDBRANCH   8   9
ENDBRANCH   1   8
TORSDOF 6
ENDMDL
MODEL      127
REMARK 921   NORMALIZED FREE ENERGY PREDICTED BY IDOCK:   -4.98 KCAL/MOL
REMARK 922        TOTAL FREE ENERGY PREDICTED BY IDOCK:   -8.15 KCAL/MOL
REMARK 923 INTER-LIGAND FREE ENERGY PREDICTED BY IDOCK:   -7.71 KCAL/MOL
REMARK 924 INTRA-LIGAND FREE ENERGY PREDICTED BY IDOCK:   -0.44 KCAL/MOL
REMARK 927      BINDING AFFINITY PREDICTED BY RF-SCORE:    0.00 PKD
ROOT
HETATM    1  CA  UNL     1      -9.692   6.851  68.340  1.00  0.00    -0.137 C  
HETATM    2  C   UNL     1      -8.246   6.292  68.055  1.00  0.00    -0.115 C  
HETATM    3  N   UNL     1      -9.733   7.372  69.753  1.00  0.00    -0.170 NA 
HETATM    4  OXT UNL     1      -8.204   5.315  67.252  1.00  0.00    -0.104 OA 
HETATM    5  H2  UNL     1     -10.606   7.853  69.971  1.00  0.00     0.000 HD 
HETATM    6  O   UNL     1      -7.315   6.880  68.673  1.00  0.00    -0.088 OA 
HETATM    7  H1  UNL     1      -9.545   6.592  70.383  1.00  0.00     0.000 HD 
ENDROOT
BRANCH   1   8
HETATM    8  C   UNL     1      -9.975   8.018  67.397  1.00  0.00    -0.270 C  
BRANCH   8   9
HETATM    9  C   UNL     1      -9.996   9.392  68.074  1.00  0.00    -0.176 C  
BRANCH   9  10
HETATM   10  S   UNL     1      -9.023  10.612  67.081  1.00  0.00    -0.136 S  
HETATM   11  C   UNL     1      -7.989   9.368  66.253  1.00  0.00    -0.111 C  
BRANCH  10  12
HETATM   12  C   UNL     1     -10.254  10.809  65.724  1.00  0.00    -0.257 C  
BRANCH  12  13
HETATM   13  C   UNL     1     -11.399  11.733  66.160  1.00  0.00    -0.280 C  
HETATM   14  O   UNL     1     -10.953  12.643  67.185  1.00  0.00    -0.247 OA 
HETATM   15  C   UNL     1     -11.902  13.708  67.210  1.00  0.00    -0.391 C  
HETATM   16  C   UNL     1     -12.242  13.971  65.740  1.00  0.00    -0.453 C  
HETATM   17  H   UNL     1     -13.393  12.649  63.715  1.00  0.00     0.000 HD 
HETATM   18  O   UNL     1     -13.617  14.327  65.551  1.00  0.00    -0.650 OA 
HETATM   19  C   UNL     1     -11.919  12.641  65.042  1.00  0.00    -0.419 C  
HETATM   20  O   UNL     1     -13.070  12.086  64.408  1.00  0.00    -0.655 OA 
HETATM   21  H   UNL     1     -13.828  14.490  64.639  1.00  0.00     0.000 HD 
BRANCH  15  22
HETATM   22  N   UNL     1     -11.351  14.826  67.948  1.00  0.00    -0.303 NA 
HETATM   23  C   UNL     1     -11.724  15.241  69.199  1.00  0.00    -0.335 A  
HETATM   24  C   UNL     1     -10.572  16.826  68.351  1.00  0.00    -0.354 A  
HETATM   25  N   UNL     1     -11.278  16.452  69.472  1.00  0.00    -0.290 NA 
HETATM   26  C   UNL     1      -9.911  18.014  67.997  1.00  0.00    -0.323 A  
HETATM   27  N   UNL     1      -9.232  18.052  66.827  1.00  0.00    -0.273 NA 
HETATM   28  N   UNL     1      -9.939  19.164  68.774  1.00  0.00    -0.420 NA 
HETATM   29  H2  UNL     1      -9.621  18.906  69.708  1.00  0.00     0.000 HD 
HETATM   30  C   UNL     1      -9.268  16.963  66.031  1.00  0.00    -0.170 A  
HETATM   31  H1  UNL     1      -9.459  20.026  68.517  1.00  0.00     0.000 HD 
HETATM   32  N   UNL     1      -9.937  15.804  66.216  1.00  0.00    -0.274 NA 
HETATM   33  C   UNL     1     -10.554  15.804  67.414  1.00  0.00    -0.313 A  
ENDBRANCH  15  22
ENDBRANCH  12  13
ENDBRANCH  10  12
ENDBRANCH   9  10
ENDBRANCH   8   9
ENDBRANCH   1   8
TORSDOF 6
ENDMDL
MODEL      128
REMARK 921   NORMALIZED FREE ENERGY PREDICTED BY IDOCK:   -4.98 KCAL/MOL
REMARK 922        TOTAL FREE ENERGY PREDICTED BY IDOCK:   -8.15 KCAL/MOL
REMARK 923 INTER-LIGAND FREE ENERGY PREDICTED BY IDOCK:   -7.66 KCAL/MOL
REMARK 924 INTRA-LIGAND FREE ENERGY PREDICTED BY IDOCK:   -0.48 KCAL/MOL
REMARK 927      BINDING AFFINITY PREDICTED BY RF-SCORE:    0.00 PKD
ROOT
HETATM    1  CA  UNL     1      -8.676  11.278  66.402  1.00  0.00    -0.180 C  
HETATM    2  C   UNL     1     -10.119  10.670  66.219  1.00  0.00    -0.235 C  
HETATM    3  N   UNL     1      -7.930  11.137  65.100  1.00  0.00    -0.327 NA 
HETATM    4  OXT UNL     1     -10.608  10.143  67.261  1.00  0.00    -0.240 OA 
HETATM    5  H2  UNL     1      -7.027  11.611  65.111  1.00  0.00     0.000 HD 
HETATM    6  O   UNL     1     -10.599  10.775  65.056  1.00  0.00    -0.268 OA 
HETATM    7  H1  UNL     1      -7.851  10.143  64.887  1.00  0.00     0.000 HD 
ENDROOT
BRANCH   1   8
HETATM    8  C   UNL     1      -8.794  12.766  66.722  1.00  0.00    -0.161 C  
BRANCH   8   9
HETATM    9  C   UNL     1      -9.841  13.514  65.891  1.00  0.00    -0.241 C  
BRANCH   9  10
HETATM   10  S   UNL     1     -10.967  14.477  66.997  1.00  0.00    -0.320 S  
HETATM   11  C   UNL     1     -12.473  13.572  66.535  1.00  0.00    -0.253 C  
BRANCH  10  12
HETATM   12  C   UNL     1     -10.610  13.532  68.538  1.00  0.00    -0.247 C  
BRANCH  12  13
HETATM   13  C   UNL     1     -11.909  13.216  69.293  1.00  0.00    -0.323 C  
HETATM   14  O   UNL     1     -12.003  11.804  69.570  1.00  0.00    -0.302 OA 
HETATM   15  C   UNL     1     -12.966  11.667  70.612  1.00  0.00     0.093 C  
HETATM   16  C   UNL     1     -12.695  12.840  71.559  1.00  0.00    -0.229 C  
HETATM   17  H   UNL     1     -12.796  15.515  71.467  1.00  0.00     0.000 HD 
HETATM   18  O   UNL     1     -13.897  13.373  72.129  1.00  0.00    -0.509 OA 
HETATM   19  C   UNL     1     -12.001  13.882  70.669  1.00  0.00    -0.292 C  
HETATM   20  O   UNL     1     -12.738  15.101  70.613  1.00  0.00    -0.361 OA 
HETATM   21  H   UNL     1     -13.729  14.101  72.716  1.00  0.00     0.000 HD 
BRANCH  15  22
HETATM   22  N   UNL     1     -12.866  10.343  71.190  1.00  0.00    -0.385 NA 
HETATM   23  C   UNL     1     -13.843   9.679  71.884  1.00  0.00    -0.213 A  
HETATM   24  C   UNL     1     -12.018   8.634  72.253  1.00  0.00    -0.368 A  
HETATM   25  N   UNL     1     -13.363   8.645  72.547  1.00  0.00    -0.332 NA 
HETATM   26  C   UNL     1     -10.956   7.825  72.692  1.00  0.00    -0.364 A  
HETATM   27  N   UNL     1      -9.730   8.021  72.153  1.00  0.00    -0.200 NA 
HETATM   28  N   UNL     1     -11.093   6.850  73.669  1.00  0.00    -0.480 NA 
HETATM   29  H2  UNL     1     -11.846   6.228  73.373  1.00  0.00     0.000 HD 
HETATM   30  C   UNL     1      -9.575   9.022  71.262  1.00  0.00    -0.291 A  
HETATM   31  H1  UNL     1     -10.322   6.263  73.987  1.00  0.00     0.000 HD 
HETATM   32  N   UNL     1     -10.490   9.918  70.831  1.00  0.00    -0.231 NA 
HETATM   33  C   UNL     1     -11.699   9.647  71.362  1.00  0.00    -0.404 A  
ENDBRANCH  15  22
ENDBRANCH  12  13
ENDBRANCH  10  12
ENDBRANCH   9  10
ENDBRANCH   8   9
ENDBRANCH   1   8
TORSDOF 6
ENDMDL
MODEL      129
REMARK 921   NORMALIZED FREE ENERGY PREDICTED BY IDOCK:   -4.98 KCAL/MOL
REMARK 922        TOTAL FREE ENERGY PREDICTED BY IDOCK:   -8.14 KCAL/MOL
REMARK 923 INTER-LIGAND FREE ENERGY PREDICTED BY IDOCK:   -7.25 KCAL/MOL
REMARK 924 INTRA-LIGAND FREE ENERGY PREDICTED BY IDOCK:   -0.89 KCAL/MOL
REMARK 927      BINDING AFFINITY PREDICTED BY RF-SCORE:    0.00 PKD
ROOT
HETATM    1  CA  UNL     1      -9.074   6.894  71.195  1.00  0.00    -0.150 C  
HETATM    2  C   UNL     1      -8.124   6.785  72.448  1.00  0.00    -0.102 C  
HETATM    3  N   UNL     1      -9.928   5.654  71.133  1.00  0.00    -0.183 NA 
HETATM    4  OXT UNL     1      -6.997   7.345  72.307  1.00  0.00    -0.062 OA 
HETATM    5  H2  UNL     1     -10.647   5.705  70.412  1.00  0.00     0.000 HD 
HETATM    6  O   UNL     1      -8.600   6.144  73.426  1.00  0.00    -0.123 OA 
HETATM    7  H1  UNL     1      -9.309   4.851  71.017  1.00  0.00     0.000 HD 
ENDROOT
BRANCH   1   8
HETATM    8  C   UNL     1      -9.999   8.097  71.368  1.00  0.00    -0.230 C  
BRANCH   8   9
HETATM    9  C   UNL     1      -9.559   9.352  70.608  1.00  0.00    -0.268 C  
BRANCH   9  10
HETATM   10  S   UNL     1      -8.982   8.904  68.910  1.00  0.00    -0.137 S  
HETATM   11  C   UNL     1     -10.647   8.635  68.232  1.00  0.00    -0.128 C  
BRANCH  10  12
HETATM   12  C   UNL     1      -8.774  10.628  68.295  1.00  0.00    -0.135 C  
BRANCH  12  13
HETATM   13  C   UNL     1     -10.136  11.255  67.965  1.00  0.00    -0.177 C  
HETATM   14  O   UNL     1     -10.556  12.139  69.022  1.00  0.00    -0.181 OA 
HETATM   15  C   UNL     1     -11.562  12.980  68.460  1.00  0.00    -0.328 C  
HETATM   16  C   UNL     1     -11.065  13.301  67.047  1.00  0.00    -0.282 C  
HETATM   17  H   UNL     1     -10.555  11.962  64.784  1.00  0.00     0.000 HD 
HETATM   18  O   UNL     1     -12.135  13.384  66.096  1.00  0.00    -0.399 OA 
HETATM   19  C   UNL     1     -10.123  12.135  66.712  1.00  0.00    -0.200 C  
HETATM   20  O   UNL     1     -10.563  11.416  65.561  1.00  0.00    -0.268 OA 
HETATM   21  H   UNL     1     -11.827  13.582  65.219  1.00  0.00     0.000 HD 
BRANCH  15  22
HETATM   22  N   UNL     1     -11.783  14.116  69.331  1.00  0.00    -0.292 NA 
HETATM   23  C   UNL     1     -11.243  15.367  69.194  1.00  0.00    -0.287 A  
HETATM   24  C   UNL     1     -12.040  15.262  71.172  1.00  0.00    -0.348 A  
HETATM   25  N   UNL     1     -11.372  16.085  70.293  1.00  0.00    -0.365 NA 
HETATM   26  C   UNL     1     -12.423  15.418  72.515  1.00  0.00    -0.377 A  
HETATM   27  N   UNL     1     -13.148  14.435  73.098  1.00  0.00    -0.585 NA 
HETATM   28  N   UNL     1     -12.074  16.517  73.285  1.00  0.00    -0.474 NA 
HETATM   29  H2  UNL     1     -12.383  17.350  72.784  1.00  0.00     0.000 HD 
HETATM   30  C   UNL     1     -13.421  13.328  72.377  1.00  0.00    -0.569 A  
HETATM   31  H1  UNL     1     -12.352  16.630  74.260  1.00  0.00     0.000 HD 
HETATM   32  N   UNL     1     -13.036  13.023  71.118  1.00  0.00    -0.238 NA 
HETATM   33  C   UNL     1     -12.359  14.054  70.572  1.00  0.00    -0.367 A  
ENDBRANCH  15  22
ENDBRANCH  12  13
ENDBRANCH  10  12
ENDBRANCH   9  10
ENDBRANCH   8   9
ENDBRANCH   1   8
TORSDOF 6
ENDMDL
MODEL      130
REMARK 921   NORMALIZED FREE ENERGY PREDICTED BY IDOCK:   -4.97 KCAL/MOL
REMARK 922        TOTAL FREE ENERGY PREDICTED BY IDOCK:   -8.13 KCAL/MOL
REMARK 923 INTER-LIGAND FREE ENERGY PREDICTED BY IDOCK:   -7.44 KCAL/MOL
REMARK 924 INTRA-LIGAND FREE ENERGY PREDICTED BY IDOCK:   -0.70 KCAL/MOL
REMARK 927      BINDING AFFINITY PREDICTED BY RF-SCORE:    0.00 PKD
ROOT
HETATM    1  CA  UNL     1      -9.099  19.359  68.366  1.00  0.00    -0.358 C  
HETATM    2  C   UNL     1      -9.176  19.858  66.873  1.00  0.00    -0.370 C  
HETATM    3  N   UNL     1     -10.282  19.914  69.116  1.00  0.00    -0.590 NA 
HETATM    4  OXT UNL     1      -8.053  20.037  66.316  1.00  0.00    -0.316 OA 
HETATM    5  H2  UNL     1     -10.360  19.540  70.062  1.00  0.00     0.000 HD 
HETATM    6  O   UNL     1     -10.344  20.028  66.425  1.00  0.00    -0.456 OA 
HETATM    7  H1  UNL     1     -10.218  20.932  69.098  1.00  0.00     0.000 HD 
ENDROOT
BRANCH   1   8
HETATM    8  C   UNL     1      -9.194  17.835  68.393  1.00  0.00    -0.285 C  
BRANCH   8   9
HETATM    9  C   UNL     1     -10.625  17.289  68.425  1.00  0.00    -0.368 C  
BRANCH   9  10
HETATM   10  S   UNL     1     -10.615  15.493  68.868  1.00  0.00    -0.253 S  
HETATM   11  C   UNL     1     -12.248  15.508  69.666  1.00  0.00    -0.270 C  
BRANCH  10  12
HETATM   12  C   UNL     1     -11.181  14.868  67.229  1.00  0.00    -0.345 C  
BRANCH  12  13
HETATM   13  C   UNL     1     -10.486  13.544  66.884  1.00  0.00    -0.271 C  
HETATM   14  O   UNL     1     -10.475  12.665  68.026  1.00  0.00    -0.212 OA 
HETATM   15  C   UNL     1     -10.228  11.356  67.518  1.00  0.00    -0.185 C  
HETATM   16  C   UNL     1     -11.039  11.275  66.221  1.00  0.00    -0.166 C  
HETATM   17  H   UNL     1     -11.060  12.480  63.829  1.00  0.00     0.000 HD 
HETATM   18  O   UNL     1     -10.374  10.512  65.206  1.00  0.00    -0.287 OA 
HETATM   19  C   UNL     1     -11.196  12.741  65.791  1.00  0.00    -0.307 C  
HETATM   20  O   UNL     1     -10.620  12.978  64.508  1.00  0.00    -0.348 OA 
HETATM   21  H   UNL     1     -10.876  10.462  64.402  1.00  0.00     0.000 HD 
BRANCH  15  22
HETATM   22  N   UNL     1     -10.549  10.375  68.534  1.00  0.00    -0.196 NA 
HETATM   23  C   UNL     1     -10.849  10.629  69.847  1.00  0.00    -0.241 A  
HETATM   24  C   UNL     1     -10.447   8.537  69.708  1.00  0.00    -0.220 A  
HETATM   25  N   UNL     1     -10.787   9.539  70.587  1.00  0.00    -0.280 NA 
HETATM   26  C   UNL     1     -10.172   7.170  69.885  1.00  0.00    -0.207 A  
HETATM   27  N   UNL     1      -9.932   6.412  68.789  1.00  0.00    -0.142 NA 
HETATM   28  N   UNL     1     -10.109   6.559  71.129  1.00  0.00    -0.183 NA 
HETATM   29  H2  UNL     1     -10.987   6.757  71.609  1.00  0.00     0.000 HD 
HETATM   30  C   UNL     1      -9.914   7.018  67.584  1.00  0.00    -0.154 A  
HETATM   31  H1  UNL     1      -9.909   5.567  71.257  1.00  0.00     0.000 HD 
HETATM   32  N   UNL     1     -10.072   8.328  67.295  1.00  0.00    -0.221 NA 
HETATM   33  C   UNL     1     -10.354   9.025  68.414  1.00  0.00    -0.205 A  
ENDBRANCH  15  22
ENDBRANCH  12  13
ENDBRANCH  10  12
ENDBRANCH   9  10
ENDBRANCH   8   9
ENDBRANCH   1   8
TORSDOF 6
ENDMDL
MODEL      131
REMARK 921   NORMALIZED FREE ENERGY PREDICTED BY IDOCK:   -4.97 KCAL/MOL
REMARK 922        TOTAL FREE ENERGY PREDICTED BY IDOCK:   -8.13 KCAL/MOL
REMARK 923 INTER-LIGAND FREE ENERGY PREDICTED BY IDOCK:   -7.21 KCAL/MOL
REMARK 924 INTRA-LIGAND FREE ENERGY PREDICTED BY IDOCK:   -0.92 KCAL/MOL
REMARK 927      BINDING AFFINITY PREDICTED BY RF-SCORE:    0.00 PKD
ROOT
HETATM    1  CA  UNL     1     -11.799  13.340  65.401  1.00  0.00    -0.359 C  
HETATM    2  C   UNL     1     -11.381  12.906  63.944  1.00  0.00    -0.436 C  
HETATM    3  N   UNL     1     -13.037  14.194  65.308  1.00  0.00    -0.729 NA 
HETATM    4  OXT UNL     1     -10.135  12.766  63.771  1.00  0.00    -0.372 OA 
HETATM    5  H2  UNL     1     -13.431  14.418  66.222  1.00  0.00     0.000 HD 
HETATM    6  O   UNL     1     -12.338  12.767  63.133  1.00  0.00    -0.580 OA 
HETATM    7  H1  UNL     1     -12.807  15.025  64.763  1.00  0.00     0.000 HD 
ENDROOT
BRANCH   1   8
HETATM    8  C   UNL     1     -12.143  12.096  66.217  1.00  0.00    -0.037 C  
BRANCH   8   9
HETATM    9  C   UNL     1     -11.550  12.079  67.630  1.00  0.00    -0.321 C  
BRANCH   9  10
HETATM   10  S   UNL     1     -10.932  10.386  68.045  1.00  0.00    -0.289 S  
HETATM   11  C   UNL     1     -10.230  10.055  66.401  1.00  0.00    -0.221 C  
BRANCH  10  12
HETATM   12  C   UNL     1      -9.363  10.925  68.846  1.00  0.00    -0.160 C  
BRANCH  12  13
HETATM   13  C   UNL     1      -8.509  11.745  67.870  1.00  0.00    -0.154 C  
HETATM   14  O   UNL     1      -8.837  13.146  67.963  1.00  0.00    -0.176 OA 
HETATM   15  C   UNL     1      -7.742  13.850  67.381  1.00  0.00    -0.148 C  
HETATM   16  C   UNL     1      -6.493  13.099  67.852  1.00  0.00    -0.138 C  
HETATM   17  H   UNL     1      -5.424  10.662  67.544  1.00  0.00     0.000 HD 
HETATM   18  O   UNL     1      -5.467  13.062  66.851  1.00  0.00    -0.347 OA 
HETATM   19  C   UNL     1      -7.007  11.685  68.163  1.00  0.00    -0.071 C  
HETATM   20  O   UNL     1      -6.356  10.700  67.363  1.00  0.00    -0.056 OA 
HETATM   21  H   UNL     1      -4.693  12.596  67.142  1.00  0.00     0.000 HD 
BRANCH  15  22
HETATM   22  N   UNL     1      -7.821  15.249  67.747  1.00  0.00    -0.136 NA 
HETATM   23  C   UNL     1      -7.224  15.845  68.826  1.00  0.00    -0.148 A  
HETATM   24  C   UNL     1      -8.677  17.228  68.094  1.00  0.00    -0.243 A  
HETATM   25  N   UNL     1      -7.726  17.041  69.071  1.00  0.00    -0.220 NA 
HETATM   26  C   UNL     1      -9.592  18.265  67.845  1.00  0.00    -0.289 A  
HETATM   27  N   UNL     1     -10.367  18.191  66.738  1.00  0.00    -0.359 NA 
HETATM   28  N   UNL     1      -9.763  19.351  68.691  1.00  0.00    -0.410 NA 
HETATM   29  H2  UNL     1      -8.846  19.781  68.822  1.00  0.00     0.000 HD 
HETATM   30  C   UNL     1     -10.262  17.097  65.955  1.00  0.00    -0.321 A  
HETATM   31  H1  UNL     1     -10.427  20.104  68.510  1.00  0.00     0.000 HD 
HETATM   32  N   UNL     1      -9.492  16.001  66.135  1.00  0.00    -0.309 NA 
HETATM   33  C   UNL     1      -8.710  16.150  67.223  1.00  0.00    -0.183 A  
ENDBRANCH  15  22
ENDBRANCH  12  13
ENDBRANCH  10  12
ENDBRANCH   9  10
ENDBRANCH   8   9
ENDBRANCH   1   8
TORSDOF 6
ENDMDL
MODEL      132
REMARK 921   NORMALIZED FREE ENERGY PREDICTED BY IDOCK:   -4.95 KCAL/MOL
REMARK 922        TOTAL FREE ENERGY PREDICTED BY IDOCK:   -8.11 KCAL/MOL
REMARK 923 INTER-LIGAND FREE ENERGY PREDICTED BY IDOCK:   -7.35 KCAL/MOL
REMARK 924 INTRA-LIGAND FREE ENERGY PREDICTED BY IDOCK:   -0.76 KCAL/MOL
REMARK 927      BINDING AFFINITY PREDICTED BY RF-SCORE:    0.00 PKD
ROOT
HETATM    1  CA  UNL     1      -8.424  11.491  66.567  1.00  0.00    -0.160 C  
HETATM    2  C   UNL     1      -9.271  10.660  65.530  1.00  0.00    -0.196 C  
HETATM    3  N   UNL     1      -6.968  11.379  66.194  1.00  0.00    -0.371 NA 
HETATM    4  OXT UNL     1     -10.321  10.135  66.004  1.00  0.00    -0.232 OA 
HETATM    5  H2  UNL     1      -6.369  11.985  66.755  1.00  0.00     0.000 HD 
HETATM    6  O   UNL     1      -8.789  10.611  64.364  1.00  0.00    -0.190 OA 
HETATM    7  H1  UNL     1      -6.701  10.397  66.254  1.00  0.00     0.000 HD 
ENDROOT
BRANCH   1   8
HETATM    8  C   UNL     1      -8.823  12.962  66.479  1.00  0.00    -0.026 C  
BRANCH   8   9
HETATM    9  C   UNL     1     -10.089  13.229  65.660  1.00  0.00    -0.272 C  
BRANCH   9  10
HETATM   10  S   UNL     1     -10.821  14.862  66.124  1.00  0.00    -0.333 S  
HETATM   11  C   UNL     1     -12.529  14.253  66.246  1.00  0.00    -0.300 C  
BRANCH  10  12
HETATM   12  C   UNL     1     -10.429  14.766  67.922  1.00  0.00    -0.246 C  
BRANCH  12  13
HETATM   13  C   UNL     1     -11.543  14.035  68.682  1.00  0.00    -0.325 C  
HETATM   14  O   UNL     1     -11.248  12.627  68.783  1.00  0.00    -0.247 OA 
HETATM   15  C   UNL     1     -12.066  12.125  69.838  1.00  0.00    -0.253 C  
HETATM   16  C   UNL     1     -12.041  13.215  70.913  1.00  0.00    -0.119 C  
HETATM   17  H   UNL     1     -12.838  15.760  71.161  1.00  0.00     0.000 HD 
HETATM   18  O   UNL     1     -13.296  13.343  71.593  1.00  0.00    -0.374 OA 
HETATM   19  C   UNL     1     -11.706  14.496  70.133  1.00  0.00    -0.297 C  
HETATM   20  O   UNL     1     -12.737  15.474  70.261  1.00  0.00    -0.391 OA 
HETATM   21  H   UNL     1     -13.281  14.020  72.259  1.00  0.00     0.000 HD 
BRANCH  15  22
HETATM   22  N   UNL     1     -11.585  10.820  70.241  1.00  0.00    -0.316 NA 
HETATM   23  C   UNL     1     -10.464  10.184  69.775  1.00  0.00    -0.263 A  
HETATM   24  C   UNL     1     -11.620   8.708  70.797  1.00  0.00    -0.242 A  
HETATM   25  N   UNL     1     -10.458   8.902  70.085  1.00  0.00    -0.207 NA 
HETATM   26  C   UNL     1     -12.216   7.562  71.351  1.00  0.00    -0.335 A  
HETATM   27  N   UNL     1     -13.351   7.709  72.073  1.00  0.00    -0.217 NA 
HETATM   28  N   UNL     1     -11.715   6.281  71.174  1.00  0.00    -0.287 NA 
HETATM   29  H2  UNL     1     -10.741   6.292  71.477  1.00  0.00     0.000 HD 
HETATM   30  C   UNL     1     -13.887   8.943  72.180  1.00  0.00    -0.473 A  
HETATM   31  H1  UNL     1     -12.148   5.449  71.576  1.00  0.00     0.000 HD 
HETATM   32  N   UNL     1     -13.462  10.099  71.624  1.00  0.00    -0.322 NA 
HETATM   33  C   UNL     1     -12.306   9.902  70.958  1.00  0.00    -0.357 A  
ENDBRANCH  15  22
ENDBRANCH  12  13
ENDBRANCH  10  12
ENDBRANCH   9  10
ENDBRANCH   8   9
ENDBRANCH   1   8
TORSDOF 6
ENDMDL
MODEL      133
REMARK 921   NORMALIZED FREE ENERGY PREDICTED BY IDOCK:   -4.95 KCAL/MOL
REMARK 922        TOTAL FREE ENERGY PREDICTED BY IDOCK:   -8.10 KCAL/MOL
REMARK 923 INTER-LIGAND FREE ENERGY PREDICTED BY IDOCK:   -7.19 KCAL/MOL
REMARK 924 INTRA-LIGAND FREE ENERGY PREDICTED BY IDOCK:   -0.92 KCAL/MOL
REMARK 927      BINDING AFFINITY PREDICTED BY RF-SCORE:    0.00 PKD
ROOT
HETATM    1  CA  UNL     1      -7.925   7.075  65.748  1.00  0.00    -0.116 C  
HETATM    2  C   UNL     1      -7.859   8.521  65.123  1.00  0.00    -0.116 C  
HETATM    3  N   UNL     1      -6.894   6.981  66.843  1.00  0.00    -0.062 NA 
HETATM    4  OXT UNL     1      -8.141   8.578  63.891  1.00  0.00    -0.154 OA 
HETATM    5  H2  UNL     1      -6.956   6.109  67.369  1.00  0.00     0.000 HD 
HETATM    6  O   UNL     1      -7.521   9.435  65.926  1.00  0.00    -0.096 OA 
HETATM    7  H1  UNL     1      -5.975   7.125  66.425  1.00  0.00     0.000 HD 
ENDROOT
BRANCH   1   8
HETATM    8  C   UNL     1      -9.301   6.859  66.373  1.00  0.00    -0.183 C  
BRANCH   8   9
HETATM    9  C   UNL     1      -9.271   6.459  67.852  1.00  0.00    -0.113 C  
BRANCH   9  10
HETATM   10  S   UNL     1     -10.318   7.612  68.849  1.00  0.00    -0.202 S  
HETATM   11  C   UNL     1     -10.091   6.728  70.421  1.00  0.00    -0.183 C  
BRANCH  10  12
HETATM   12  C   UNL     1      -9.018   8.889  69.129  1.00  0.00    -0.140 C  
BRANCH  12  13
HETATM   13  C   UNL     1      -9.652  10.233  69.510  1.00  0.00    -0.202 C  
HETATM   14  O   UNL     1      -9.581  11.158  68.407  1.00  0.00    -0.178 OA 
HETATM   15  C   UNL     1     -10.543  12.175  68.679  1.00  0.00    -0.223 C  
HETATM   16  C   UNL     1     -11.748  11.435  69.266  1.00  0.00    -0.337 C  
HETATM   17  H   UNL     1     -12.296   9.974  71.444  1.00  0.00     0.000 HD 
HETATM   18  O   UNL     1     -12.407  12.188  70.292  1.00  0.00    -0.271 OA 
HETATM   19  C   UNL     1     -11.145  10.142  69.837  1.00  0.00    -0.293 C  
HETATM   20  O   UNL     1     -11.370  10.031  71.241  1.00  0.00    -0.357 OA 
HETATM   21  H   UNL     1     -13.154  11.729  70.657  1.00  0.00     0.000 HD 
BRANCH  15  22
HETATM   22  N   UNL     1     -10.789  12.940  67.474  1.00  0.00    -0.232 NA 
HETATM   23  C   UNL     1     -11.236  14.234  67.406  1.00  0.00    -0.316 A  
HETATM   24  C   UNL     1     -11.462  13.408  65.450  1.00  0.00    -0.302 A  
HETATM   25  N   UNL     1     -11.660  14.547  66.197  1.00  0.00    -0.368 NA 
HETATM   26  C   UNL     1     -11.761  13.083  64.116  1.00  0.00    -0.412 A  
HETATM   27  N   UNL     1     -11.368  11.877  63.642  1.00  0.00    -0.433 NA 
HETATM   28  N   UNL     1     -12.462  13.924  63.264  1.00  0.00    -1.112 NA 
HETATM   29  H2  UNL     1     -11.976  14.820  63.255  1.00  0.00     0.000 HD 
HETATM   30  C   UNL     1     -10.757  11.024  64.490  1.00  0.00    -0.264 A  
HETATM   31  H1  UNL     1     -12.679  13.687  62.296  1.00  0.00     0.000 HD 
HETATM   32  N   UNL     1     -10.496  11.184  65.806  1.00  0.00    -0.254 NA 
HETATM   33  C   UNL     1     -10.864  12.415  66.211  1.00  0.00    -0.266 A  
ENDBRANCH  15  22
ENDBRANCH  12  13
ENDBRANCH  10  12
ENDBRANCH   9  10
ENDBRANCH   8   9
ENDBRANCH   1   8
TORSDOF 6
ENDMDL
MODEL      134
REMARK 921   NORMALIZED FREE ENERGY PREDICTED BY IDOCK:   -4.95 KCAL/MOL
REMARK 922        TOTAL FREE ENERGY PREDICTED BY IDOCK:   -8.10 KCAL/MOL
REMARK 923 INTER-LIGAND FREE ENERGY PREDICTED BY IDOCK:   -7.79 KCAL/MOL
REMARK 924 INTRA-LIGAND FREE ENERGY PREDICTED BY IDOCK:   -0.31 KCAL/MOL
REMARK 927      BINDING AFFINITY PREDICTED BY RF-SCORE:    0.00 PKD
ROOT
HETATM    1  CA  UNL     1      -9.679  10.089  67.086  1.00  0.00    -0.174 C  
HETATM    2  C   UNL     1      -9.803   8.583  66.636  1.00  0.00    -0.272 C  
HETATM    3  N   UNL     1      -8.295  10.578  66.742  1.00  0.00    -0.126 NA 
HETATM    4  OXT UNL     1     -10.563   7.876  67.360  1.00  0.00    -0.279 OA 
HETATM    5  H2  UNL     1      -8.180  11.578  66.901  1.00  0.00     0.000 HD 
HETATM    6  O   UNL     1      -9.119   8.270  65.622  1.00  0.00    -0.156 OA 
HETATM    7  H1  UNL     1      -7.623  10.015  67.263  1.00  0.00     0.000 HD 
ENDROOT
BRANCH   1   8
HETATM    8  C   UNL     1     -10.685  10.931  66.305  1.00  0.00    -0.241 C  
BRANCH   8   9
HETATM    9  C   UNL     1     -10.240  11.302  64.887  1.00  0.00    -0.286 C  
BRANCH   9  10
HETATM   10  S   UNL     1     -10.787  13.019  64.472  1.00  0.00    -0.393 S  
HETATM   11  C   UNL     1     -12.534  12.583  64.225  1.00  0.00    -0.432 C  
BRANCH  10  12
HETATM   12  C   UNL     1     -10.956  13.613  66.208  1.00  0.00    -0.299 C  
BRANCH  12  13
HETATM   13  C   UNL     1     -11.327  15.102  66.238  1.00  0.00    -0.219 C  
HETATM   14  O   UNL     1     -10.719  15.754  67.371  1.00  0.00    -0.309 OA 
HETATM   15  C   UNL     1     -10.745  17.151  67.086  1.00  0.00    -0.177 C  
HETATM   16  C   UNL     1     -10.414  17.258  65.595  1.00  0.00    -0.181 C  
HETATM   17  H   UNL     1     -11.513  16.503  63.271  1.00  0.00     0.000 HD 
HETATM   18  O   UNL     1     -11.135  18.315  64.948  1.00  0.00    -0.615 OA 
HETATM   19  C   UNL     1     -10.821  15.889  65.026  1.00  0.00    -0.426 C  
HETATM   20  O   UNL     1     -11.827  16.014  64.023  1.00  0.00    -0.762 OA 
HETATM   21  H   UNL     1     -10.930  18.381  64.023  1.00  0.00     0.000 HD 
BRANCH  15  22
HETATM   22  N   UNL     1      -9.849  17.843  67.990  1.00  0.00    -0.305 NA 
HETATM   23  C   UNL     1     -10.044  19.082  68.541  1.00  0.00    -0.400 A  
HETATM   24  C   UNL     1      -7.987  18.597  68.845  1.00  0.00    -0.220 A  
HETATM   25  N   UNL     1      -8.934  19.573  69.059  1.00  0.00    -0.286 NA 
HETATM   26  C   UNL     1      -6.608  18.538  69.108  1.00  0.00    -0.265 A  
HETATM   27  N   UNL     1      -5.948  17.387  68.841  1.00  0.00    -0.176 NA 
HETATM   28  N   UNL     1      -5.879  19.610  69.604  1.00  0.00    -0.249 NA 
HETATM   29  H2  UNL     1      -6.338  19.917  70.461  1.00  0.00     0.000 HD 
HETATM   30  C   UNL     1      -6.637  16.369  68.283  1.00  0.00    -0.132 A  
HETATM   31  H1  UNL     1      -4.878  19.566  69.795  1.00  0.00     0.000 HD 
HETATM   32  N   UNL     1      -7.933  16.335  67.903  1.00  0.00    -0.144 NA 
HETATM   33  C   UNL     1      -8.550  17.487  68.235  1.00  0.00    -0.266 A  
ENDBRANCH  15  22
ENDBRANCH  12  13
ENDBRANCH  10  12
ENDBRANCH   9  10
ENDBRANCH   8   9
ENDBRANCH   1   8
TORSDOF 6
ENDMDL
MODEL      135
REMARK 921   NORMALIZED FREE ENERGY PREDICTED BY IDOCK:   -4.92 KCAL/MOL
REMARK 922        TOTAL FREE ENERGY PREDICTED BY IDOCK:   -8.07 KCAL/MOL
REMARK 923 INTER-LIGAND FREE ENERGY PREDICTED BY IDOCK:   -7.32 KCAL/MOL
REMARK 924 INTRA-LIGAND FREE ENERGY PREDICTED BY IDOCK:   -0.75 KCAL/MOL
REMARK 927      BINDING AFFINITY PREDICTED BY RF-SCORE:    0.00 PKD
ROOT
HETATM    1  CA  UNL     1      -8.705   3.518  67.631  1.00  0.00    -0.109 C  
HETATM    2  C   UNL     1      -8.226   2.659  66.399  1.00  0.00    -0.087 C  
HETATM    3  N   UNL     1      -7.761   3.272  68.780  1.00  0.00    -0.051 NA 
HETATM    4  OXT UNL     1      -9.158   2.253  65.643  1.00  0.00    -0.130 OA 
HETATM    5  H2  UNL     1      -7.943   3.882  69.576  1.00  0.00     0.000 HD 
HETATM    6  O   UNL     1      -6.980   2.473  66.328  1.00  0.00    -0.043 OA 
HETATM    7  H1  UNL     1      -7.809   2.282  69.021  1.00  0.00     0.000 HD 
ENDROOT
BRANCH   1   8
HETATM    8  C   UNL     1      -8.633   4.999  67.269  1.00  0.00    -0.104 C  
BRANCH   8   9
HETATM    9  C   UNL     1      -8.578   5.946  68.473  1.00  0.00    -0.110 C  
BRANCH   9  10
HETATM   10  S   UNL     1      -9.954   7.178  68.383  1.00  0.00    -0.163 S  
HETATM   11  C   UNL     1     -10.790   6.394  66.973  1.00  0.00    -0.392 C  
BRANCH  10  12
HETATM   12  C   UNL     1     -10.998   6.425  69.701  1.00  0.00    -0.358 C  
BRANCH  12  13
HETATM   13  C   UNL     1     -11.362   7.467  70.767  1.00  0.00    -0.280 C  
HETATM   14  O   UNL     1     -11.235   8.801  70.235  1.00  0.00    -0.253 OA 
HETATM   15  C   UNL     1     -11.986   9.648  71.103  1.00  0.00    -0.367 C  
HETATM   16  C   UNL     1     -13.241   8.843  71.454  1.00  0.00    -0.262 C  
HETATM   17  H   UNL     1     -13.832   6.569  72.740  1.00  0.00     0.000 HD 
HETATM   18  O   UNL     1     -13.672   9.061  72.803  1.00  0.00    -0.780 OA 
HETATM   19  C   UNL     1     -12.815   7.382  71.243  1.00  0.00    -0.321 C  
HETATM   20  O   UNL     1     -12.930   6.622  72.444  1.00  0.00     0.039 OA 
HETATM   21  H   UNL     1     -14.451   8.562  73.021  1.00  0.00     0.000 HD 
BRANCH  15  22
HETATM   22  N   UNL     1     -12.206  10.926  70.458  1.00  0.00    -0.336 NA 
HETATM   23  C   UNL     1     -11.709  11.324  69.246  1.00  0.00    -0.334 A  
HETATM   24  C   UNL     1     -12.424  13.085  70.217  1.00  0.00    -0.147 A  
HETATM   25  N   UNL     1     -11.816  12.627  69.071  1.00  0.00    -0.304 NA 
HETATM   26  C   UNL     1     -12.759  14.374  70.666  1.00  0.00    -0.357 A  
HETATM   27  N   UNL     1     -13.432  14.497  71.833  1.00  0.00    -0.348 NA 
HETATM   28  N   UNL     1     -12.412  15.532  69.985  1.00  0.00    -0.548 NA 
HETATM   29  H2  UNL     1     -12.766  15.442  69.032  1.00  0.00     0.000 HD 
HETATM   30  C   UNL     1     -13.701  13.379  72.538  1.00  0.00    -0.531 A  
HETATM   31  H1  UNL     1     -12.655  16.468  70.311  1.00  0.00     0.000 HD 
HETATM   32  N   UNL     1     -13.356  12.103  72.261  1.00  0.00    -0.396 NA 
HETATM   33  C   UNL     1     -12.732  12.034  71.068  1.00  0.00    -0.241 A  
ENDBRANCH  15  22
ENDBRANCH  12  13
ENDBRANCH  10  12
ENDBRANCH   9  10
ENDBRANCH   8   9
ENDBRANCH   1   8
TORSDOF 6
ENDMDL
MODEL      136
REMARK 921   NORMALIZED FREE ENERGY PREDICTED BY IDOCK:   -4.91 KCAL/MOL
REMARK 922        TOTAL FREE ENERGY PREDICTED BY IDOCK:   -8.05 KCAL/MOL
REMARK 923 INTER-LIGAND FREE ENERGY PREDICTED BY IDOCK:   -7.68 KCAL/MOL
REMARK 924 INTRA-LIGAND FREE ENERGY PREDICTED BY IDOCK:   -0.38 KCAL/MOL
REMARK 927      BINDING AFFINITY PREDICTED BY RF-SCORE:    0.00 PKD
ROOT
HETATM    1  CA  UNL     1     -11.208   8.291  72.397  1.00  0.00    -0.381 C  
HETATM    2  C   UNL     1     -12.027   7.166  71.656  1.00  0.00    -0.318 C  
HETATM    3  N   UNL     1     -10.067   7.642  73.137  1.00  0.00    -0.296 NA 
HETATM    4  OXT UNL     1     -13.266   7.399  71.546  1.00  0.00    -0.363 OA 
HETATM    5  H2  UNL     1      -9.427   8.321  73.548  1.00  0.00     0.000 HD 
HETATM    6  O   UNL     1     -11.347   6.171  71.278  1.00  0.00    -0.292 OA 
HETATM    7  H1  UNL     1     -10.462   7.003  73.828  1.00  0.00     0.000 HD 
ENDROOT
BRANCH   1   8
HETATM    8  C   UNL     1     -10.618   9.247  71.363  1.00  0.00    -0.417 C  
BRANCH   8   9
HETATM    9  C   UNL     1      -9.442   8.674  70.566  1.00  0.00    -0.178 C  
BRANCH   9  10
HETATM   10  S   UNL     1      -8.678   9.991  69.516  1.00  0.00    -0.183 S  
HETATM   11  C   UNL     1      -6.962   9.473  69.818  1.00  0.00    -0.071 C  
BRANCH  10  12
HETATM   12  C   UNL     1      -8.885   9.123  67.904  1.00  0.00    -0.128 C  
BRANCH  12  13
HETATM   13  C   UNL     1      -9.721   9.970  66.935  1.00  0.00    -0.189 C  
HETATM   14  O   UNL     1     -10.489  10.954  67.655  1.00  0.00    -0.188 OA 
HETATM   15  C   UNL     1     -10.869  11.940  66.697  1.00  0.00    -0.276 C  
HETATM   16  C   UNL     1      -9.641  12.114  65.799  1.00  0.00    -0.197 C  
HETATM   17  H   UNL     1      -8.224  10.623  64.084  1.00  0.00     0.000 HD 
HETATM   18  O   UNL     1      -9.993  12.352  64.430  1.00  0.00    -0.463 OA 
HETATM   19  C   UNL     1      -8.882  10.787  65.948  1.00  0.00    -0.179 C  
HETATM   20  O   UNL     1      -8.744  10.117  64.696  1.00  0.00    -0.163 OA 
HETATM   21  H   UNL     1      -9.231  12.460  63.873  1.00  0.00     0.000 HD 
BRANCH  15  22
HETATM   22  N   UNL     1     -11.330  13.128  67.386  1.00  0.00    -0.290 NA 
HETATM   23  C   UNL     1     -11.205  14.422  66.953  1.00  0.00    -0.334 A  
HETATM   24  C   UNL     1     -11.729  14.520  69.020  1.00  0.00    -0.311 A  
HETATM   25  N   UNL     1     -11.430  15.291  67.920  1.00  0.00    -0.332 NA 
HETATM   26  C   UNL     1     -12.003  14.843  70.360  1.00  0.00    -0.314 A  
HETATM   27  N   UNL     1     -12.338  13.844  71.210  1.00  0.00    -0.356 NA 
HETATM   28  N   UNL     1     -11.921  16.132  70.866  1.00  0.00    -0.548 NA 
HETATM   29  H2  UNL     1     -12.514  16.724  70.285  1.00  0.00     0.000 HD 
HETATM   30  C   UNL     1     -12.340  12.579  70.741  1.00  0.00    -0.286 A  
HETATM   31  H1  UNL     1     -12.120  16.366  71.839  1.00  0.00     0.000 HD 
HETATM   32  N   UNL     1     -12.011  12.135  69.508  1.00  0.00    -0.297 NA 
HETATM   33  C   UNL     1     -11.732  13.173  68.694  1.00  0.00    -0.326 A  
ENDBRANCH  15  22
ENDBRANCH  12  13
ENDBRANCH  10  12
ENDBRANCH   9  10
ENDBRANCH   8   9
ENDBRANCH   1   8
TORSDOF 6
ENDMDL
MODEL      137
REMARK 921   NORMALIZED FREE ENERGY PREDICTED BY IDOCK:   -4.91 KCAL/MOL
REMARK 922        TOTAL FREE ENERGY PREDICTED BY IDOCK:   -8.05 KCAL/MOL
REMARK 923 INTER-LIGAND FREE ENERGY PREDICTED BY IDOCK:   -7.39 KCAL/MOL
REMARK 924 INTRA-LIGAND FREE ENERGY PREDICTED BY IDOCK:   -0.67 KCAL/MOL
REMARK 927      BINDING AFFINITY PREDICTED BY RF-SCORE:    0.00 PKD
ROOT
HETATM    1  CA  UNL     1     -10.867   6.692  70.789  1.00  0.00    -0.252 C  
HETATM    2  C   UNL     1     -11.929   6.509  71.939  1.00  0.00    -0.341 C  
HETATM    3  N   UNL     1     -11.598   6.776  69.473  1.00  0.00    -0.620 NA 
HETATM    4  OXT UNL     1     -11.529   5.823  72.925  1.00  0.00    -0.275 OA 
HETATM    5  H2  UNL     1     -10.982   7.008  68.695  1.00  0.00     0.000 HD 
HETATM    6  O   UNL     1     -13.047   7.057  71.727  1.00  0.00    -0.361 OA 
HETATM    7  H1  UNL     1     -12.098   5.898  69.333  1.00  0.00     0.000 HD 
ENDROOT
BRANCH   1   8
HETATM    8  C   UNL     1     -10.119   8.007  70.999  1.00  0.00    -0.213 C  
BRANCH   8   9
HETATM    9  C   UNL     1      -9.910   8.829  69.724  1.00  0.00    -0.186 C  
BRANCH   9  10
HETATM   10  S   UNL     1      -8.145   8.728  69.179  1.00  0.00    -0.120 S  
HETATM   11  C   UNL     1      -8.472   7.659  67.746  1.00  0.00    -0.122 C  
BRANCH  10  12
HETATM   12  C   UNL     1      -8.117  10.324  68.258  1.00  0.00    -0.107 C  
BRANCH  12  13
HETATM   13  C   UNL     1      -9.541  10.859  68.056  1.00  0.00    -0.162 C  
HETATM   14  O   UNL     1      -9.673  12.176  68.627  1.00  0.00    -0.178 OA 
HETATM   15  C   UNL     1     -10.833  12.753  68.031  1.00  0.00    -0.233 C  
HETATM   16  C   UNL     1     -10.782  12.317  66.563  1.00  0.00    -0.246 C  
HETATM   17  H   UNL     1     -10.896  10.026  65.181  1.00  0.00     0.000 HD 
HETATM   18  O   UNL     1     -12.085  12.054  66.025  1.00  0.00    -0.561 OA 
HETATM   19  C   UNL     1      -9.930  11.039  66.586  1.00  0.00    -0.209 C  
HETATM   20  O   UNL     1     -10.655   9.914  66.093  1.00  0.00    -0.121 OA 
HETATM   21  H   UNL     1     -12.054  11.783  65.115  1.00  0.00     0.000 HD 
BRANCH  15  22
HETATM   22  N   UNL     1     -10.839  14.181  68.272  1.00  0.00    -0.241 NA 
HETATM   23  C   UNL     1     -11.748  14.877  69.025  1.00  0.00    -0.319 A  
HETATM   24  C   UNL     1     -10.672  16.323  67.881  1.00  0.00    -0.329 A  
HETATM   25  N   UNL     1     -11.681  16.176  68.805  1.00  0.00    -0.318 NA 
HETATM   26  C   UNL     1     -10.159  17.442  67.204  1.00  0.00    -0.307 A  
HETATM   27  N   UNL     1      -9.091  17.272  66.390  1.00  0.00    -0.327 NA 
HETATM   28  N   UNL     1     -10.707  18.713  67.306  1.00  0.00    -0.424 NA 
HETATM   29  H2  UNL     1     -10.743  18.948  68.298  1.00  0.00     0.000 HD 
HETATM   30  C   UNL     1      -8.605  16.024  66.225  1.00  0.00    -0.328 A  
HETATM   31  H1  UNL     1     -10.334  19.525  66.815  1.00  0.00     0.000 HD 
HETATM   32  N   UNL     1      -9.063  14.864  66.745  1.00  0.00    -0.254 NA 
HETATM   33  C   UNL     1     -10.094  15.099  67.581  1.00  0.00    -0.231 A  
ENDBRANCH  15  22
ENDBRANCH  12  13
ENDBRANCH  10  12
ENDBRANCH   9  10
ENDBRANCH   8   9
ENDBRANCH   1   8
TORSDOF 6
ENDMDL
MODEL      138
REMARK 921   NORMALIZED FREE ENERGY PREDICTED BY IDOCK:   -4.91 KCAL/MOL
REMARK 922        TOTAL FREE ENERGY PREDICTED BY IDOCK:   -8.05 KCAL/MOL
REMARK 923 INTER-LIGAND FREE ENERGY PREDICTED BY IDOCK:   -7.54 KCAL/MOL
REMARK 924 INTRA-LIGAND FREE ENERGY PREDICTED BY IDOCK:   -0.51 KCAL/MOL
REMARK 927      BINDING AFFINITY PREDICTED BY RF-SCORE:    0.00 PKD
ROOT
HETATM    1  CA  UNL     1      -8.076   6.541  71.985  1.00  0.00    -0.107 C  
HETATM    2  C   UNL     1      -8.470   7.856  72.760  1.00  0.00    -0.159 C  
HETATM    3  N   UNL     1      -7.910   5.428  72.988  1.00  0.00    -0.097 NA 
HETATM    4  OXT UNL     1      -8.046   8.926  72.235  1.00  0.00    -0.376 OA 
HETATM    5  H2  UNL     1      -7.765   4.519  72.548  1.00  0.00     0.000 HD 
HETATM    6  O   UNL     1      -9.147   7.675  73.811  1.00  0.00    -0.239 OA 
HETATM    7  H1  UNL     1      -7.152   5.684  73.621  1.00  0.00     0.000 HD 
ENDROOT
BRANCH   1   8
HETATM    8  C   UNL     1      -9.210   6.157  71.037  1.00  0.00    -0.166 C  
BRANCH   8   9
HETATM    9  C   UNL     1      -8.918   6.424  69.557  1.00  0.00    -0.136 C  
BRANCH   9  10
HETATM   10  S   UNL     1     -10.057   7.727  68.905  1.00  0.00    -0.199 S  
HETATM   11  C   UNL     1     -10.954   6.618  67.778  1.00  0.00    -0.281 C  
BRANCH  10  12
HETATM   12  C   UNL     1     -11.272   7.658  70.289  1.00  0.00    -0.216 C  
BRANCH  12  13
HETATM   13  C   UNL     1     -11.434   9.040  70.938  1.00  0.00    -0.291 C  
HETATM   14  O   UNL     1     -11.083  10.082  70.006  1.00  0.00    -0.256 OA 
HETATM   15  C   UNL     1     -11.662  11.281  70.515  1.00  0.00    -0.247 C  
HETATM   16  C   UNL     1     -13.034  10.862  71.052  1.00  0.00    -0.303 C  
HETATM   17  H   UNL     1     -13.995   9.274  72.982  1.00  0.00     0.000 HD 
HETATM   18  O   UNL     1     -13.402  11.582  72.235  1.00  0.00    -0.624 OA 
HETATM   19  C   UNL     1     -12.872   9.364  71.349  1.00  0.00    -0.345 C  
HETATM   20  O   UNL     1     -13.103   9.073  72.726  1.00  0.00    -0.386 OA 
HETATM   21  H   UNL     1     -14.253  11.322  72.568  1.00  0.00     0.000 HD 
BRANCH  15  22
HETATM   22  N   UNL     1     -11.664  12.293  69.478  1.00  0.00    -0.321 NA 
HETATM   23  C   UNL     1     -12.024  13.607  69.621  1.00  0.00    -0.343 A  
HETATM   24  C   UNL     1     -11.966  13.218  67.523  1.00  0.00    -0.324 A  
HETATM   25  N   UNL     1     -12.225  14.194  68.457  1.00  0.00    -0.262 NA 
HETATM   26  C   UNL     1     -12.056  13.196  66.121  1.00  0.00    -0.417 A  
HETATM   27  N   UNL     1     -11.655  12.082  65.465  1.00  0.00    -0.331 NA 
HETATM   28  N   UNL     1     -12.561  14.250  65.373  1.00  0.00    -0.486 NA 
HETATM   29  H2  UNL     1     -12.033  15.084  65.629  1.00  0.00     0.000 HD 
HETATM   30  C   UNL     1     -11.240  11.025  66.193  1.00  0.00     0.095 A  
HETATM   31  H1  UNL     1     -12.627  14.234  64.355  1.00  0.00     0.000 HD 
HETATM   32  N   UNL     1     -11.192  10.892  67.536  1.00  0.00    -0.380 NA 
HETATM   33  C   UNL     1     -11.556  12.043  68.136  1.00  0.00    -0.340 A  
ENDBRANCH  15  22
ENDBRANCH  12  13
ENDBRANCH  10  12
ENDBRANCH   9  10
ENDBRANCH   8   9
ENDBRANCH   1   8
TORSDOF 6
ENDMDL
MODEL      139
REMARK 921   NORMALIZED FREE ENERGY PREDICTED BY IDOCK:   -4.91 KCAL/MOL
REMARK 922        TOTAL FREE ENERGY PREDICTED BY IDOCK:   -8.05 KCAL/MOL
REMARK 923 INTER-LIGAND FREE ENERGY PREDICTED BY IDOCK:   -7.60 KCAL/MOL
REMARK 924 INTRA-LIGAND FREE ENERGY PREDICTED BY IDOCK:   -0.44 KCAL/MOL
REMARK 927      BINDING AFFINITY PREDICTED BY RF-SCORE:    0.00 PKD
ROOT
HETATM    1  CA  UNL     1     -12.354  13.404  65.274  1.00  0.00    -0.469 C  
HETATM    2  C   UNL     1     -10.947  13.771  64.666  1.00  0.00    -0.400 C  
HETATM    3  N   UNL     1     -13.022  12.404  64.365  1.00  0.00    -0.791 NA 
HETATM    4  OXT UNL     1     -10.565  14.956  64.894  1.00  0.00    -0.414 OA 
HETATM    5  H2  UNL     1     -13.889  12.036  64.755  1.00  0.00     0.000 HD 
HETATM    6  O   UNL     1     -10.386  12.843  64.019  1.00  0.00    -0.422 OA 
HETATM    7  H1  UNL     1     -13.154  12.845  63.455  1.00  0.00     0.000 HD 
ENDROOT
BRANCH   1   8
HETATM    8  C   UNL     1     -12.157  12.745  66.638  1.00  0.00    -0.316 C  
BRANCH   8   9
HETATM    9  C   UNL     1     -10.935  11.825  66.728  1.00  0.00    -0.288 C  
BRANCH   9  10
HETATM   10  S   UNL     1     -10.133  11.987  68.386  1.00  0.00    -0.197 S  
HETATM   11  C   UNL     1      -9.860  13.780  68.267  1.00  0.00    -0.232 C  
BRANCH  10  12
HETATM   12  C   UNL     1     -11.690  12.069  69.368  1.00  0.00    -0.340 C  
BRANCH  12  13
HETATM   13  C   UNL     1     -12.069  10.680  69.900  1.00  0.00    -0.299 C  
HETATM   14  O   UNL     1     -11.122   9.690  69.453  1.00  0.00    -0.217 OA 
HETATM   15  C   UNL     1     -11.285   8.566  70.316  1.00  0.00    -0.179 C  
HETATM   16  C   UNL     1     -11.500   9.165  71.710  1.00  0.00    -0.381 C  
HETATM   17  H   UNL     1     -13.320  10.699  72.938  1.00  0.00     0.000 HD 
HETATM   18  O   UNL     1     -12.431   8.408  72.494  1.00  0.00    -0.496 OA 
HETATM   19  C   UNL     1     -12.041  10.575  71.427  1.00  0.00    -0.282 C  
HETATM   20  O   UNL     1     -13.337  10.764  71.991  1.00  0.00    -0.447 OA 
HETATM   21  H   UNL     1     -12.565   8.779  73.358  1.00  0.00     0.000 HD 
BRANCH  15  22
HETATM   22  N   UNL     1     -10.150   7.678  70.171  1.00  0.00    -0.197 NA 
HETATM   23  C   UNL     1      -9.281   7.632  69.114  1.00  0.00    -0.141 A  
HETATM   24  C   UNL     1      -8.965   5.845  70.239  1.00  0.00    -0.146 A  
HETATM   25  N   UNL     1      -8.554   6.531  69.119  1.00  0.00    -0.129 NA 
HETATM   26  C   UNL     1      -8.620   4.588  70.764  1.00  0.00    -0.092 A  
HETATM   27  N   UNL     1      -9.156   4.214  71.949  1.00  0.00    -0.118 NA 
HETATM   28  N   UNL     1      -7.777   3.697  70.117  1.00  0.00    -0.047 NA 
HETATM   29  H2  UNL     1      -6.907   4.192  69.919  1.00  0.00     0.000 HD 
HETATM   30  C   UNL     1     -10.039   5.044  72.543  1.00  0.00    -0.183 A  
HETATM   31  H1  UNL     1      -7.526   2.784  70.498  1.00  0.00     0.000 HD 
HETATM   32  N   UNL     1     -10.516   6.227  72.099  1.00  0.00    -0.195 NA 
HETATM   33  C   UNL     1      -9.915   6.571  70.942  1.00  0.00    -0.184 A  
ENDBRANCH  15  22
ENDBRANCH  12  13
ENDBRANCH  10  12
ENDBRANCH   9  10
ENDBRANCH   8   9
ENDBRANCH   1   8
TORSDOF 6
ENDMDL
MODEL      140
REMARK 921   NORMALIZED FREE ENERGY PREDICTED BY IDOCK:   -4.89 KCAL/MOL
REMARK 922        TOTAL FREE ENERGY PREDICTED BY IDOCK:   -8.03 KCAL/MOL
REMARK 923 INTER-LIGAND FREE ENERGY PREDICTED BY IDOCK:   -6.35 KCAL/MOL
REMARK 924 INTRA-LIGAND FREE ENERGY PREDICTED BY IDOCK:   -1.68 KCAL/MOL
REMARK 927      BINDING AFFINITY PREDICTED BY RF-SCORE:    0.00 PKD
ROOT
HETATM    1  CA  UNL     1     -11.943   9.988  70.363  1.00  0.00    -0.236 C  
HETATM    2  C   UNL     1     -13.141  10.096  71.381  1.00  0.00    -0.416 C  
HETATM    3  N   UNL     1     -11.458  11.379  70.046  1.00  0.00    -0.446 NA 
HETATM    4  OXT UNL     1     -14.019   9.191  71.264  1.00  0.00    -0.302 OA 
HETATM    5  H2  UNL     1     -10.610  11.381  69.480  1.00  0.00     0.000 HD 
HETATM    6  O   UNL     1     -13.082  11.077  72.174  1.00  0.00    -0.460 OA 
HETATM    7  H1  UNL     1     -12.226  11.888  69.608  1.00  0.00     0.000 HD 
ENDROOT
BRANCH   1   8
HETATM    8  C   UNL     1     -10.794   9.225  71.019  1.00  0.00    -0.385 C  
BRANCH   8   9
HETATM    9  C   UNL     1     -10.764   7.726  70.704  1.00  0.00    -0.231 C  
BRANCH   9  10
HETATM   10  S   UNL     1      -9.317   7.327  69.623  1.00  0.00    -0.151 S  
HETATM   11  C   UNL     1     -10.163   7.711  68.061  1.00  0.00    -0.202 C  
BRANCH  10  12
HETATM   12  C   UNL     1      -8.460   8.947  69.810  1.00  0.00    -0.131 C  
BRANCH  12  13
HETATM   13  C   UNL     1      -8.346   9.660  68.456  1.00  0.00    -0.117 C  
HETATM   14  O   UNL     1      -8.899  10.988  68.535  1.00  0.00    -0.147 OA 
HETATM   15  C   UNL     1      -8.373  11.704  67.419  1.00  0.00    -0.152 C  
HETATM   16  C   UNL     1      -6.914  11.250  67.309  1.00  0.00    -0.109 C  
HETATM   17  H   UNL     1      -5.588   8.978  66.805  1.00  0.00     0.000 HD 
HETATM   18  O   UNL     1      -6.472  11.152  65.949  1.00  0.00    -0.340 OA 
HETATM   19  C   UNL     1      -6.903   9.873  67.990  1.00  0.00    -0.072 C  
HETATM   20  O   UNL     1      -6.483   8.846  67.094  1.00  0.00    -0.059 OA 
HETATM   21  H   UNL     1      -5.568  10.870  65.881  1.00  0.00     0.000 HD 
BRANCH  15  22
HETATM   22  N   UNL     1      -8.586  13.124  67.613  1.00  0.00    -0.179 NA 
HETATM   23  C   UNL     1      -7.640  14.051  67.962  1.00  0.00    -0.143 A  
HETATM   24  C   UNL     1      -9.539  14.980  68.257  1.00  0.00    -0.210 A  
HETATM   25  N   UNL     1      -8.182  15.183  68.367  1.00  0.00    -0.139 NA 
HETATM   26  C   UNL     1     -10.649  15.777  68.586  1.00  0.00    -0.250 A  
HETATM   27  N   UNL     1     -11.886  15.316  68.287  1.00  0.00    -0.299 NA 
HETATM   28  N   UNL     1     -10.545  17.003  69.226  1.00  0.00    -0.323 NA 
HETATM   29  H2  UNL     1      -9.910  17.580  68.674  1.00  0.00     0.000 HD 
HETATM   30  C   UNL     1     -11.997  14.089  67.738  1.00  0.00    -0.357 A  
HETATM   31  H1  UNL     1     -11.351  17.581  69.464  1.00  0.00     0.000 HD 
HETATM   32  N   UNL     1     -11.020  13.197  67.460  1.00  0.00    -0.257 NA 
HETATM   33  C   UNL     1      -9.811  13.725  67.733  1.00  0.00    -0.234 A  
ENDBRANCH  15  22
ENDBRANCH  12  13
ENDBRANCH  10  12
ENDBRANCH   9  10
ENDBRANCH   8   9
ENDBRANCH   1   8
TORSDOF 6
ENDMDL
MODEL      141
REMARK 921   NORMALIZED FREE ENERGY PREDICTED BY IDOCK:   -4.88 KCAL/MOL
REMARK 922        TOTAL FREE ENERGY PREDICTED BY IDOCK:   -8.01 KCAL/MOL
REMARK 923 INTER-LIGAND FREE ENERGY PREDICTED BY IDOCK:   -7.63 KCAL/MOL
REMARK 924 INTRA-LIGAND FREE ENERGY PREDICTED BY IDOCK:   -0.38 KCAL/MOL
REMARK 927      BINDING AFFINITY PREDICTED BY RF-SCORE:    0.00 PKD
ROOT
HETATM    1  CA  UNL     1     -12.658  14.006  65.365  1.00  0.00    -0.505 C  
HETATM    2  C   UNL     1     -11.419  14.604  64.596  1.00  0.00    -0.388 C  
HETATM    3  N   UNL     1     -12.926  12.621  64.835  1.00  0.00    -0.850 NA 
HETATM    4  OXT UNL     1     -11.450  15.860  64.438  1.00  0.00    -0.428 OA 
HETATM    5  H2  UNL     1     -13.644  12.128  65.366  1.00  0.00     0.000 HD 
HETATM    6  O   UNL     1     -10.560  13.756  64.225  1.00  0.00    -0.367 OA 
HETATM    7  H1  UNL     1     -13.152  12.700  63.844  1.00  0.00     0.000 HD 
ENDROOT
BRANCH   1   8
HETATM    8  C   UNL     1     -12.320  13.887  66.849  1.00  0.00    -0.331 C  
BRANCH   8   9
HETATM    9  C   UNL     1     -10.850  14.154  67.190  1.00  0.00    -0.290 C  
BRANCH   9  10
HETATM   10  S   UNL     1     -10.169  12.774  68.214  1.00  0.00    -0.243 S  
HETATM   11  C   UNL     1     -11.785  12.040  68.605  1.00  0.00    -0.326 C  
BRANCH  10  12
HETATM   12  C   UNL     1      -9.755  11.653  66.811  1.00  0.00    -0.201 C  
BRANCH  12  13
HETATM   13  C   UNL     1      -8.917  10.463  67.297  1.00  0.00    -0.135 C  
HETATM   14  O   UNL     1      -9.609   9.746  68.338  1.00  0.00    -0.145 OA 
HETATM   15  C   UNL     1      -8.994   8.462  68.414  1.00  0.00    -0.136 C  
HETATM   16  C   UNL     1      -8.724   8.066  66.959  1.00  0.00    -0.128 C  
HETATM   17  H   UNL     1      -7.227   8.949  64.920  1.00  0.00     0.000 HD 
HETATM   18  O   UNL     1      -7.499   7.337  66.808  1.00  0.00    -0.088 OA 
HETATM   19  C   UNL     1      -8.656   9.410  66.216  1.00  0.00    -0.131 C  
HETATM   20  O   UNL     1      -7.389   9.602  65.590  1.00  0.00    -0.095 OA 
HETATM   21  H   UNL     1      -7.331   7.091  65.906  1.00  0.00     0.000 HD 
BRANCH  15  22
HETATM   22  N   UNL     1      -9.841   7.565  69.172  1.00  0.00    -0.167 NA 
HETATM   23  C   UNL     1     -10.634   6.569  68.666  1.00  0.00    -0.245 A  
HETATM   24  C   UNL     1     -11.263   6.882  70.682  1.00  0.00    -0.301 A  
HETATM   25  N   UNL     1     -11.513   6.139  69.551  1.00  0.00    -0.381 NA 
HETATM   26  C   UNL     1     -11.890   6.940  71.939  1.00  0.00    -0.315 A  
HETATM   27  N   UNL     1     -11.354   7.738  72.891  1.00  0.00    -0.390 NA 
HETATM   28  N   UNL     1     -13.047   6.240  72.247  1.00  0.00    -0.396 NA 
HETATM   29  H2  UNL     1     -12.871   5.257  72.041  1.00  0.00     0.000 HD 
HETATM   30  C   UNL     1     -10.276   8.482  72.570  1.00  0.00    -0.253 A  
HETATM   31  H1  UNL     1     -13.502   6.282  73.159  1.00  0.00     0.000 HD 
HETATM   32  N   UNL     1      -9.642   8.582  71.381  1.00  0.00    -0.193 NA 
HETATM   33  C   UNL     1     -10.186   7.733  70.487  1.00  0.00    -0.201 A  
ENDBRANCH  15  22
ENDBRANCH  12  13
ENDBRANCH  10  12
ENDBRANCH   9  10
ENDBRANCH   8   9
ENDBRANCH   1   8
TORSDOF 6
ENDMDL
MODEL      142
REMARK 921   NORMALIZED FREE ENERGY PREDICTED BY IDOCK:   -4.87 KCAL/MOL
REMARK 922        TOTAL FREE ENERGY PREDICTED BY IDOCK:   -8.00 KCAL/MOL
REMARK 923 INTER-LIGAND FREE ENERGY PREDICTED BY IDOCK:   -7.48 KCAL/MOL
REMARK 924 INTRA-LIGAND FREE ENERGY PREDICTED BY IDOCK:   -0.53 KCAL/MOL
REMARK 927      BINDING AFFINITY PREDICTED BY RF-SCORE:    0.00 PKD
ROOT
HETATM    1  CA  UNL     1      -9.806   5.034  72.809  1.00  0.00    -0.159 C  
HETATM    2  C   UNL     1      -8.619   4.002  72.917  1.00  0.00    -0.099 C  
HETATM    3  N   UNL     1     -11.051   4.389  73.362  1.00  0.00    -0.286 NA 
HETATM    4  OXT UNL     1      -7.752   4.095  71.999  1.00  0.00    -0.071 OA 
HETATM    5  H2  UNL     1     -11.835   5.038  73.429  1.00  0.00     0.000 HD 
HETATM    6  O   UNL     1      -8.690   3.206  73.894  1.00  0.00    -0.076 OA 
HETATM    7  H1  UNL     1     -11.263   3.571  72.790  1.00  0.00     0.000 HD 
ENDROOT
BRANCH   1   8
HETATM    8  C   UNL     1      -9.488   6.257  73.665  1.00  0.00    -0.157 C  
BRANCH   8   9
HETATM    9  C   UNL     1      -9.493   7.586  72.902  1.00  0.00    -0.188 C  
BRANCH   9  10
HETATM   10  S   UNL     1     -10.445   7.415  71.326  1.00  0.00    -0.207 S  
HETATM   11  C   UNL     1     -11.936   8.256  71.938  1.00  0.00    -0.330 C  
BRANCH  10  12
HETATM   12  C   UNL     1      -9.708   8.873  70.474  1.00  0.00    -0.203 C  
BRANCH  12  13
HETATM   13  C   UNL     1     -10.749   9.567  69.586  1.00  0.00    -0.238 C  
HETATM   14  O   UNL     1     -11.163  10.817  70.171  1.00  0.00    -0.284 OA 
HETATM   15  C   UNL     1     -11.761  11.570  69.118  1.00  0.00    -0.329 C  
HETATM   16  C   UNL     1     -10.886  11.299  67.890  1.00  0.00    -0.228 C  
HETATM   17  H   UNL     1     -10.227   9.200  66.362  1.00  0.00     0.000 HD 
HETATM   18  O   UNL     1     -11.649  11.228  66.679  1.00  0.00    -0.385 OA 
HETATM   19  C   UNL     1     -10.223   9.948  68.200  1.00  0.00    -0.179 C  
HETATM   20  O   UNL     1     -10.553   8.963  67.223  1.00  0.00    -0.283 OA 
HETATM   21  H   UNL     1     -11.107  11.060  65.917  1.00  0.00     0.000 HD 
BRANCH  15  22
HETATM   22  N   UNL     1     -11.881  12.955  69.523  1.00  0.00    -0.323 NA 
HETATM   23  C   UNL     1     -11.219  14.024  68.979  1.00  0.00    -0.276 A  
HETATM   24  C   UNL     1     -12.046  14.698  70.829  1.00  0.00    -0.320 A  
HETATM   25  N   UNL     1     -11.289  15.093  69.749  1.00  0.00    -0.266 NA 
HETATM   26  C   UNL     1     -12.428  15.352  72.012  1.00  0.00    -0.373 A  
HETATM   27  N   UNL     1     -13.253  14.707  72.869  1.00  0.00    -0.494 NA 
HETATM   28  N   UNL     1     -11.981  16.618  72.362  1.00  0.00    -0.551 NA 
HETATM   29  H2  UNL     1     -12.202  17.243  71.586  1.00  0.00     0.000 HD 
HETATM   30  C   UNL     1     -13.625  13.445  72.572  1.00  0.00    -0.554 A  
HETATM   31  H1  UNL     1     -12.259  17.093  73.221  1.00  0.00     0.000 HD 
HETATM   32  N   UNL     1     -13.256  12.682  71.520  1.00  0.00    -0.302 NA 
HETATM   33  C   UNL     1     -12.475  13.388  70.679  1.00  0.00    -0.311 A  
ENDBRANCH  15  22
ENDBRANCH  12  13
ENDBRANCH  10  12
ENDBRANCH   9  10
ENDBRANCH   8   9
ENDBRANCH   1   8
TORSDOF 6
ENDMDL
MODEL      143
REMARK 921   NORMALIZED FREE ENERGY PREDICTED BY IDOCK:   -4.87 KCAL/MOL
REMARK 922        TOTAL FREE ENERGY PREDICTED BY IDOCK:   -8.00 KCAL/MOL
REMARK 923 INTER-LIGAND FREE ENERGY PREDICTED BY IDOCK:   -6.50 KCAL/MOL
REMARK 924 INTRA-LIGAND FREE ENERGY PREDICTED BY IDOCK:   -1.49 KCAL/MOL
REMARK 927      BINDING AFFINITY PREDICTED BY RF-SCORE:    0.00 PKD
ROOT
HETATM    1  CA  UNL     1      -5.937  11.287  68.818  1.00  0.00    -0.043 C  
HETATM    2  C   UNL     1      -6.467  12.142  67.604  1.00  0.00    -0.110 C  
HETATM    3  N   UNL     1      -6.798  11.580  70.020  1.00  0.00    -0.424 NA 
HETATM    4  OXT UNL     1      -5.574  12.507  66.784  1.00  0.00    -0.300 OA 
HETATM    5  H2  UNL     1      -6.584  10.977  70.814  1.00  0.00     0.000 HD 
HETATM    6  O   UNL     1      -7.709  12.365  67.609  1.00  0.00    -0.128 OA 
HETATM    7  H1  UNL     1      -6.704  12.571  70.241  1.00  0.00     0.000 HD 
ENDROOT
BRANCH   1   8
HETATM    8  C   UNL     1      -6.076   9.803  68.487  1.00  0.00    -0.042 C  
BRANCH   8   9
HETATM    9  C   UNL     1      -6.168   8.885  69.710  1.00  0.00    -0.035 C  
BRANCH   9  10
HETATM   10  S   UNL     1      -7.634   7.768  69.564  1.00  0.00    -0.102 S  
HETATM   11  C   UNL     1      -6.844   6.346  70.374  1.00  0.00    -0.058 C  
BRANCH  10  12
HETATM   12  C   UNL     1      -8.526   8.395  71.049  1.00  0.00    -0.143 C  
BRANCH  12  13
HETATM   13  C   UNL     1      -9.553   9.465  70.654  1.00  0.00    -0.268 C  
HETATM   14  O   UNL     1      -9.415   9.810  69.261  1.00  0.00    -0.172 OA 
HETATM   15  C   UNL     1     -10.636  10.446  68.887  1.00  0.00    -0.216 C  
HETATM   16  C   UNL     1     -11.732   9.649  69.599  1.00  0.00     0.173 C  
HETATM   17  H   UNL     1     -12.474   9.134  72.121  1.00  0.00     0.000 HD 
HETATM   18  O   UNL     1     -12.812  10.480  70.044  1.00  0.00    -0.517 OA 
HETATM   19  C   UNL     1     -11.007   9.006  70.792  1.00  0.00    -0.258 C  
HETATM   20  O   UNL     1     -11.572   9.418  72.035  1.00  0.00    -0.342 OA 
HETATM   21  H   UNL     1     -13.492   9.986  70.487  1.00  0.00     0.000 HD 
BRANCH  15  22
HETATM   22  N   UNL     1     -10.725  10.504  67.442  1.00  0.00    -0.263 NA 
HETATM   23  C   UNL     1     -10.067   9.698  66.551  1.00  0.00    -0.244 A  
HETATM   24  C   UNL     1     -10.828  11.349  65.431  1.00  0.00    -0.229 A  
HETATM   25  N   UNL     1     -10.101  10.185  65.326  1.00  0.00    -0.314 NA 
HETATM   26  C   UNL     1     -11.165  12.347  64.501  1.00  0.00    -0.323 A  
HETATM   27  N   UNL     1     -11.971  13.357  64.901  1.00  0.00    -0.360 NA 
HETATM   28  N   UNL     1     -10.692  12.364  63.197  1.00  0.00    -0.628 NA 
HETATM   29  H2  UNL     1     -10.928  11.466  62.776  1.00  0.00     0.000 HD 
HETATM   30  C   UNL     1     -12.367  13.387  66.191  1.00  0.00    -0.380 A  
HETATM   31  H1  UNL     1     -10.936  13.089  62.522  1.00  0.00     0.000 HD 
HETATM   32  N   UNL     1     -12.040  12.544  67.194  1.00  0.00    -0.495 NA 
HETATM   33  C   UNL     1     -11.278  11.534  66.730  1.00  0.00    -0.285 A  
ENDBRANCH  15  22
ENDBRANCH  12  13
ENDBRANCH  10  12
ENDBRANCH   9  10
ENDBRANCH   8   9
ENDBRANCH   1   8
TORSDOF 6
ENDMDL
MODEL      144
REMARK 921   NORMALIZED FREE ENERGY PREDICTED BY IDOCK:   -4.86 KCAL/MOL
REMARK 922        TOTAL FREE ENERGY PREDICTED BY IDOCK:   -7.99 KCAL/MOL
REMARK 923 INTER-LIGAND FREE ENERGY PREDICTED BY IDOCK:   -7.28 KCAL/MOL
REMARK 924 INTRA-LIGAND FREE ENERGY PREDICTED BY IDOCK:   -0.71 KCAL/MOL
REMARK 927      BINDING AFFINITY PREDICTED BY RF-SCORE:    0.00 PKD
ROOT
HETATM    1  CA  UNL     1      -7.355  18.906  68.949  1.00  0.00    -0.310 C  
HETATM    2  C   UNL     1      -6.712  17.510  69.300  1.00  0.00    -0.221 C  
HETATM    3  N   UNL     1      -6.675  19.966  69.777  1.00  0.00    -0.330 NA 
HETATM    4  OXT UNL     1      -7.506  16.527  69.221  1.00  0.00    -0.240 OA 
HETATM    5  H2  UNL     1      -6.962  20.911  69.521  1.00  0.00     0.000 HD 
HETATM    6  O   UNL     1      -5.493  17.550  69.627  1.00  0.00    -0.183 OA 
HETATM    7  H1  UNL     1      -6.845  19.756  70.760  1.00  0.00     0.000 HD 
ENDROOT
BRANCH   1   8
HETATM    8  C   UNL     1      -7.102  19.221  67.477  1.00  0.00    -0.236 C  
BRANCH   8   9
HETATM    9  C   UNL     1      -8.296  18.953  66.555  1.00  0.00    -0.302 C  
BRANCH   9  10
HETATM   10  S   UNL     1      -9.854  19.585  67.325  1.00  0.00    -0.384 S  
HETATM   11  C   UNL     1     -10.385  20.538  65.871  1.00  0.00     0.144 C  
BRANCH  10  12
HETATM   12  C   UNL     1     -10.878  18.090  66.990  1.00  0.00    -0.118 C  
BRANCH  12  13
HETATM   13  C   UNL     1     -10.234  16.842  67.609  1.00  0.00    -0.289 C  
HETATM   14  O   UNL     1     -11.082  16.291  68.637  1.00  0.00    -0.324 OA 
HETATM   15  C   UNL     1     -10.644  14.949  68.837  1.00  0.00    -0.247 C  
HETATM   16  C   UNL     1     -10.328  14.422  67.434  1.00  0.00    -0.252 C  
HETATM   17  H   UNL     1      -8.595  14.968  65.465  1.00  0.00     0.000 HD 
HETATM   18  O   UNL     1      -9.200  13.538  67.422  1.00  0.00    -0.204 OA 
HETATM   19  C   UNL     1     -10.038  15.692  66.618  1.00  0.00    -0.273 C  
HETATM   20  O   UNL     1      -8.717  15.681  66.080  1.00  0.00    -0.317 OA 
HETATM   21  H   UNL     1      -9.004  13.211  66.552  1.00  0.00     0.000 HD 
BRANCH  15  22
HETATM   22  N   UNL     1     -11.649  14.220  69.581  1.00  0.00    -0.280 NA 
HETATM   23  C   UNL     1     -12.514  14.738  70.509  1.00  0.00    -0.352 A  
HETATM   24  C   UNL     1     -12.574  12.617  70.740  1.00  0.00    -0.217 A  
HETATM   25  N   UNL     1     -13.084  13.796  71.234  1.00  0.00    -0.320 NA 
HETATM   26  C   UNL     1     -12.742  11.275  71.122  1.00  0.00    -0.390 A  
HETATM   27  N   UNL     1     -12.150  10.312  70.377  1.00  0.00    -0.289 NA 
HETATM   28  N   UNL     1     -13.462  10.885  72.242  1.00  0.00    -0.528 NA 
HETATM   29  H2  UNL     1     -14.392  11.295  72.162  1.00  0.00     0.000 HD 
HETATM   30  C   UNL     1     -11.382  10.692  69.335  1.00  0.00    -0.284 A  
HETATM   31  H1  UNL     1     -13.583   9.910  72.520  1.00  0.00     0.000 HD 
HETATM   32  N   UNL     1     -11.074  11.941  68.924  1.00  0.00    -0.233 NA 
HETATM   33  C   UNL     1     -11.726  12.855  69.670  1.00  0.00    -0.299 A  
ENDBRANCH  15  22
ENDBRANCH  12  13
ENDBRANCH  10  12
ENDBRANCH   9  10
ENDBRANCH   8   9
ENDBRANCH   1   8
TORSDOF 6
ENDMDL
MODEL      145
REMARK 921   NORMALIZED FREE ENERGY PREDICTED BY IDOCK:   -4.86 KCAL/MOL
REMARK 922        TOTAL FREE ENERGY PREDICTED BY IDOCK:   -7.99 KCAL/MOL
REMARK 923 INTER-LIGAND FREE ENERGY PREDICTED BY IDOCK:   -7.28 KCAL/MOL
REMARK 924 INTRA-LIGAND FREE ENERGY PREDICTED BY IDOCK:   -0.71 KCAL/MOL
REMARK 927      BINDING AFFINITY PREDICTED BY RF-SCORE:    0.00 PKD
ROOT
HETATM    1  CA  UNL     1      -8.091  11.030  67.046  1.00  0.00    -0.136 C  
HETATM    2  C   UNL     1      -7.441   9.852  66.223  1.00  0.00    -0.102 C  
HETATM    3  N   UNL     1      -7.251  12.266  66.854  1.00  0.00    -0.369 NA 
HETATM    4  OXT UNL     1      -7.594   8.703  66.733  1.00  0.00    -0.085 OA 
HETATM    5  H2  UNL     1      -7.674  13.098  67.266  1.00  0.00     0.000 HD 
HETATM    6  O   UNL     1      -6.840  10.204  65.170  1.00  0.00    -0.124 OA 
HETATM    7  H1  UNL     1      -6.319  12.075  67.221  1.00  0.00     0.000 HD 
ENDROOT
BRANCH   1   8
HETATM    8  C   UNL     1      -9.487  11.316  66.497  1.00  0.00    -0.213 C  
BRANCH   8   9
HETATM    9  C   UNL     1     -10.578  10.374  67.014  1.00  0.00    -0.245 C  
BRANCH   9  10
HETATM   10  S   UNL     1     -11.826  11.320  67.999  1.00  0.00    -0.066 S  
HETATM   11  C   UNL     1     -10.832  11.374  69.521  1.00  0.00    -0.108 C  
BRANCH  10  12
HETATM   12  C   UNL     1     -11.363  12.992  67.378  1.00  0.00    -0.305 C  
BRANCH  12  13
HETATM   13  C   UNL     1     -10.924  13.898  68.536  1.00  0.00    -0.257 C  
HETATM   14  O   UNL     1      -9.802  14.713  68.144  1.00  0.00    -0.214 OA 
HETATM   15  C   UNL     1      -9.748  15.790  69.078  1.00  0.00    -0.242 C  
HETATM   16  C   UNL     1     -11.209  16.178  69.321  1.00  0.00    -0.337 C  
HETATM   17  H   UNL     1     -13.404  15.048  70.360  1.00  0.00     0.000 HD 
HETATM   18  O   UNL     1     -11.453  16.574  70.677  1.00  0.00    -0.541 OA 
HETATM   19  C   UNL     1     -11.993  14.904  68.972  1.00  0.00    -0.272 C  
HETATM   20  O   UNL     1     -12.741  14.424  70.088  1.00  0.00    -0.334 OA 
HETATM   21  H   UNL     1     -12.359  16.815  70.828  1.00  0.00     0.000 HD 
BRANCH  15  22
HETATM   22  N   UNL     1      -8.887  16.834  68.560  1.00  0.00    -0.240 NA 
HETATM   23  C   UNL     1      -7.683  17.230  69.079  1.00  0.00    -0.166 A  
HETATM   24  C   UNL     1      -8.284  18.750  67.705  1.00  0.00    -0.263 A  
HETATM   25  N   UNL     1      -7.293  18.392  68.590  1.00  0.00    -0.288 NA 
HETATM   26  C   UNL     1      -8.484  19.895  66.916  1.00  0.00    -0.327 A  
HETATM   27  N   UNL     1      -9.543  19.922  66.074  1.00  0.00    -0.393 NA 
HETATM   28  N   UNL     1      -7.665  21.014  66.973  1.00  0.00    -0.626 NA 
HETATM   29  H2  UNL     1      -6.709  20.698  66.811  1.00  0.00     0.000 HD 
HETATM   30  C   UNL     1     -10.388  18.870  66.074  1.00  0.00    -0.429 A  
HETATM   31  H1  UNL     1      -7.811  21.845  66.399  1.00  0.00     0.000 HD 
HETATM   32  N   UNL     1     -10.354  17.760  66.844  1.00  0.00    -0.346 NA 
HETATM   33  C   UNL     1      -9.256  17.765  67.626  1.00  0.00    -0.249 A  
ENDBRANCH  15  22
ENDBRANCH  12  13
ENDBRANCH  10  12
ENDBRANCH   9  10
ENDBRANCH   8   9
ENDBRANCH   1   8
TORSDOF 6
ENDMDL
MODEL      146
REMARK 921   NORMALIZED FREE ENERGY PREDICTED BY IDOCK:   -4.86 KCAL/MOL
REMARK 922        TOTAL FREE ENERGY PREDICTED BY IDOCK:   -7.98 KCAL/MOL
REMARK 923 INTER-LIGAND FREE ENERGY PREDICTED BY IDOCK:   -7.17 KCAL/MOL
REMARK 924 INTRA-LIGAND FREE ENERGY PREDICTED BY IDOCK:   -0.81 KCAL/MOL
REMARK 927      BINDING AFFINITY PREDICTED BY RF-SCORE:    0.00 PKD
ROOT
HETATM    1  CA  UNL     1     -10.305   6.762  67.350  1.00  0.00    -0.223 C  
HETATM    2  C   UNL     1     -10.318   6.544  68.911  1.00  0.00    -0.196 C  
HETATM    3  N   UNL     1     -11.626   6.299  66.792  1.00  0.00    -0.540 NA 
HETATM    4  OXT UNL     1      -9.190   6.272  69.417  1.00  0.00    -0.137 OA 
HETATM    5  H2  UNL     1     -11.732   6.515  65.801  1.00  0.00     0.000 HD 
HETATM    6  O   UNL     1     -11.451   6.654  69.457  1.00  0.00    -0.320 OA 
HETATM    7  H1  UNL     1     -11.721   5.304  66.991  1.00  0.00     0.000 HD 
ENDROOT
BRANCH   1   8
HETATM    8  C   UNL     1     -10.162   8.253  67.052  1.00  0.00    -0.380 C  
BRANCH   8   9
HETATM    9  C   UNL     1      -8.722   8.718  66.813  1.00  0.00    -0.124 C  
BRANCH   9  10
HETATM   10  S   UNL     1      -8.584  10.542  67.087  1.00  0.00    -0.127 S  
HETATM   11  C   UNL     1      -6.958  10.709  66.293  1.00  0.00    -0.133 C  
BRANCH  10  12
HETATM   12  C   UNL     1      -9.590  11.052  65.630  1.00  0.00    -0.226 C  
BRANCH  12  13
HETATM   13  C   UNL     1     -10.212  12.436  65.858  1.00  0.00    -0.251 C  
HETATM   14  O   UNL     1      -9.343  13.255  66.665  1.00  0.00    -0.251 OA 
HETATM   15  C   UNL     1      -9.765  14.602  66.462  1.00  0.00    -0.280 C  
HETATM   16  C   UNL     1     -10.096  14.693  64.969  1.00  0.00    -0.282 C  
HETATM   17  H   UNL     1     -11.862  13.611  63.271  1.00  0.00     0.000 HD 
HETATM   18  O   UNL     1     -11.215  15.549  64.707  1.00  0.00    -0.471 OA 
HETATM   19  C   UNL     1     -10.410  13.243  64.571  1.00  0.00    -0.374 C  
HETATM   20  O   UNL     1     -11.739  13.111  64.069  1.00  0.00    -0.390 OA 
HETATM   21  H   UNL     1     -11.420  15.606  63.781  1.00  0.00     0.000 HD 
BRANCH  15  22
HETATM   22  N   UNL     1      -8.741  15.506  66.945  1.00  0.00    -0.229 NA 
HETATM   23  C   UNL     1      -7.557  15.155  67.538  1.00  0.00    -0.192 A  
HETATM   24  C   UNL     1      -7.835  17.237  67.919  1.00  0.00    -0.196 A  
HETATM   25  N   UNL     1      -6.987  16.178  68.146  1.00  0.00    -0.124 NA 
HETATM   26  C   UNL     1      -7.820  18.575  68.349  1.00  0.00    -0.310 A  
HETATM   27  N   UNL     1      -8.779  19.412  67.889  1.00  0.00    -0.309 NA 
HETATM   28  N   UNL     1      -6.887  19.079  69.243  1.00  0.00    -0.303 NA 
HETATM   29  H2  UNL     1      -5.962  18.872  68.865  1.00  0.00     0.000 HD 
HETATM   30  C   UNL     1      -9.736  18.907  67.083  1.00  0.00    -0.303 A  
HETATM   31  H1  UNL     1      -6.876  20.050  69.555  1.00  0.00     0.000 HD 
HETATM   32  N   UNL     1      -9.909  17.631  66.675  1.00  0.00    -0.295 NA 
HETATM   33  C   UNL     1      -8.903  16.855  67.122  1.00  0.00    -0.206 A  
ENDBRANCH  15  22
ENDBRANCH  12  13
ENDBRANCH  10  12
ENDBRANCH   9  10
ENDBRANCH   8   9
ENDBRANCH   1   8
TORSDOF 6
ENDMDL
MODEL      147
REMARK 921   NORMALIZED FREE ENERGY PREDICTED BY IDOCK:   -4.85 KCAL/MOL
REMARK 922        TOTAL FREE ENERGY PREDICTED BY IDOCK:   -7.97 KCAL/MOL
REMARK 923 INTER-LIGAND FREE ENERGY PREDICTED BY IDOCK:   -6.65 KCAL/MOL
REMARK 924 INTRA-LIGAND FREE ENERGY PREDICTED BY IDOCK:   -1.31 KCAL/MOL
REMARK 927      BINDING AFFINITY PREDICTED BY RF-SCORE:    0.00 PKD
ROOT
HETATM    1  CA  UNL     1     -11.953   9.639  70.869  1.00  0.00    -0.309 C  
HETATM    2  C   UNL     1     -13.279   9.923  71.672  1.00  0.00    -0.421 C  
HETATM    3  N   UNL     1     -11.401  10.953  70.378  1.00  0.00    -0.446 NA 
HETATM    4  OXT UNL     1     -14.150   9.007  71.598  1.00  0.00    -0.360 OA 
HETATM    5  H2  UNL     1     -10.482  10.857  69.945  1.00  0.00     0.000 HD 
HETATM    6  O   UNL     1     -13.311  11.031  72.276  1.00  0.00    -0.390 OA 
HETATM    7  H1  UNL     1     -12.090  11.370  69.752  1.00  0.00     0.000 HD 
ENDROOT
BRANCH   1   8
HETATM    8  C   UNL     1     -10.922   9.013  71.805  1.00  0.00    -0.443 C  
BRANCH   8   9
HETATM    9  C   UNL     1     -11.115   7.514  72.053  1.00  0.00    -0.247 C  
BRANCH   9  10
HETATM   10  S   UNL     1      -9.977   6.534  70.975  1.00  0.00    -0.183 S  
HETATM   11  C   UNL     1     -11.114   6.452  69.559  1.00  0.00    -0.396 C  
BRANCH  10  12
HETATM   12  C   UNL     1      -8.979   7.960  70.369  1.00  0.00    -0.147 C  
BRANCH  12  13
HETATM   13  C   UNL     1      -9.249   8.217  68.881  1.00  0.00    -0.147 C  
HETATM   14  O   UNL     1      -9.502   9.617  68.646  1.00  0.00    -0.143 OA 
HETATM   15  C   UNL     1      -9.307   9.828  67.250  1.00  0.00    -0.138 C  
HETATM   16  C   UNL     1      -8.089   8.974  66.887  1.00  0.00    -0.112 C  
HETATM   17  H   UNL     1      -7.442   6.375  66.847  1.00  0.00     0.000 HD 
HETATM   18  O   UNL     1      -8.197   8.391  65.581  1.00  0.00    -0.116 OA 
HETATM   19  C   UNL     1      -8.062   7.887  67.972  1.00  0.00    -0.126 C  
HETATM   20  O   UNL     1      -8.178   6.580  67.411  1.00  0.00    -0.119 OA 
HETATM   21  H   UNL     1      -7.442   7.861  65.356  1.00  0.00     0.000 HD 
BRANCH  15  22
HETATM   22  N   UNL     1      -9.193  11.247  66.988  1.00  0.00    -0.163 NA 
HETATM   23  C   UNL     1      -8.034  11.976  66.932  1.00  0.00    -0.112 A  
HETATM   24  C   UNL     1      -9.632  13.385  67.071  1.00  0.00    -0.244 A  
HETATM   25  N   UNL     1      -8.262  13.274  66.991  1.00  0.00    -0.105 NA 
HETATM   26  C   UNL     1     -10.489  14.489  67.216  1.00  0.00    -0.266 A  
HETATM   27  N   UNL     1     -11.825  14.277  67.191  1.00  0.00    -0.410 NA 
HETATM   28  N   UNL     1     -10.035  15.786  67.409  1.00  0.00    -0.235 NA 
HETATM   29  H2  UNL     1      -9.392  16.000  66.647  1.00  0.00     0.000 HD 
HETATM   30  C   UNL     1     -12.270  13.008  67.083  1.00  0.00    -0.138 A  
HETATM   31  H1  UNL     1     -10.658  16.588  67.514  1.00  0.00     0.000 HD 
HETATM   32  N   UNL     1     -11.553  11.864  67.028  1.00  0.00    -0.532 NA 
HETATM   33  C   UNL     1     -10.233  12.137  67.009  1.00  0.00    -0.207 A  
ENDBRANCH  15  22
ENDBRANCH  12  13
ENDBRANCH  10  12
ENDBRANCH   9  10
ENDBRANCH   8   9
ENDBRANCH   1   8
TORSDOF 6
ENDMDL
MODEL      148
REMARK 921   NORMALIZED FREE ENERGY PREDICTED BY IDOCK:   -4.83 KCAL/MOL
REMARK 922        TOTAL FREE ENERGY PREDICTED BY IDOCK:   -7.94 KCAL/MOL
REMARK 923 INTER-LIGAND FREE ENERGY PREDICTED BY IDOCK:   -6.98 KCAL/MOL
REMARK 924 INTRA-LIGAND FREE ENERGY PREDICTED BY IDOCK:   -0.96 KCAL/MOL
REMARK 927      BINDING AFFINITY PREDICTED BY RF-SCORE:    0.00 PKD
ROOT
HETATM    1  CA  UNL     1     -10.223   6.111  70.391  1.00  0.00    -0.203 C  
HETATM    2  C   UNL     1      -9.445   5.960  69.029  1.00  0.00    -0.127 C  
HETATM    3  N   UNL     1      -9.361   6.892  71.349  1.00  0.00    -0.157 NA 
HETATM    4  OXT UNL     1      -9.684   4.888  68.399  1.00  0.00    -0.142 OA 
HETATM    5  H2  UNL     1      -9.847   7.127  72.215  1.00  0.00     0.000 HD 
HETATM    6  O   UNL     1      -8.674   6.918  68.745  1.00  0.00    -0.129 OA 
HETATM    7  H1  UNL     1      -8.505   6.362  71.509  1.00  0.00     0.000 HD 
ENDROOT
BRANCH   1   8
HETATM    8  C   UNL     1     -11.506   6.905  70.153  1.00  0.00    -0.354 C  
BRANCH   8   9
HETATM    9  C   UNL     1     -12.091   7.558  71.409  1.00  0.00    -0.327 C  
BRANCH   9  10
HETATM   10  S   UNL     1     -13.191   8.970  70.943  1.00  0.00     0.259 S  
HETATM   11  C   UNL     1     -13.707   9.349  72.644  1.00  0.00    -0.266 C  
BRANCH  10  12
HETATM   12  C   UNL     1     -11.864  10.244  70.831  1.00  0.00    -0.377 C  
BRANCH  12  13
HETATM   13  C   UNL     1     -11.875  10.918  69.452  1.00  0.00    -0.328 C  
HETATM   14  O   UNL     1     -11.801  12.351  69.589  1.00  0.00    -0.305 OA 
HETATM   15  C   UNL     1     -11.383  12.850  68.320  1.00  0.00    -0.291 C  
HETATM   16  C   UNL     1     -10.330  11.852  67.829  1.00  0.00    -0.198 C  
HETATM   17  H   UNL     1     -10.235   9.268  67.133  1.00  0.00     0.000 HD 
HETATM   18  O   UNL     1     -10.383  11.654  66.410  1.00  0.00    -0.217 OA 
HETATM   19  C   UNL     1     -10.673  10.555  68.577  1.00  0.00    -0.224 C  
HETATM   20  O   UNL     1     -10.981   9.493  67.676  1.00  0.00    -0.248 OA 
HETATM   21  H   UNL     1      -9.730  11.035  66.105  1.00  0.00     0.000 HD 
BRANCH  15  22
HETATM   22  N   UNL     1     -10.944  14.223  68.462  1.00  0.00    -0.243 NA 
HETATM   23  C   UNL     1     -10.915  14.954  69.620  1.00  0.00    -0.274 A  
HETATM   24  C   UNL     1     -10.688  16.345  68.017  1.00  0.00    -0.334 A  
HETATM   25  N   UNL     1     -10.771  16.244  69.387  1.00  0.00    -0.296 NA 
HETATM   26  C   UNL     1     -10.587  17.446  67.149  1.00  0.00    -0.264 A  
HETATM   27  N   UNL     1     -10.448  17.214  65.824  1.00  0.00    -0.515 NA 
HETATM   28  N   UNL     1     -10.650  18.764  67.579  1.00  0.00    -0.432 NA 
HETATM   29  H2  UNL     1      -9.940  18.882  68.301  1.00  0.00     0.000 HD 
HETATM   30  C   UNL     1     -10.468  15.935  65.393  1.00  0.00    -0.405 A  
HETATM   31  H1  UNL     1     -10.578  19.563  66.949  1.00  0.00     0.000 HD 
HETATM   32  N   UNL     1     -10.646  14.805  66.111  1.00  0.00    -0.301 NA 
HETATM   33  C   UNL     1     -10.732  15.092  67.425  1.00  0.00    -0.286 A  
ENDBRANCH  15  22
ENDBRANCH  12  13
ENDBRANCH  10  12
ENDBRANCH   9  10
ENDBRANCH   8   9
ENDBRANCH   1   8
TORSDOF 6
ENDMDL
MODEL      149
REMARK 921   NORMALIZED FREE ENERGY PREDICTED BY IDOCK:   -4.82 KCAL/MOL
REMARK 922        TOTAL FREE ENERGY PREDICTED BY IDOCK:   -7.93 KCAL/MOL
REMARK 923 INTER-LIGAND FREE ENERGY PREDICTED BY IDOCK:   -7.31 KCAL/MOL
REMARK 924 INTRA-LIGAND FREE ENERGY PREDICTED BY IDOCK:   -0.62 KCAL/MOL
REMARK 927      BINDING AFFINITY PREDICTED BY RF-SCORE:    0.00 PKD
ROOT
HETATM    1  CA  UNL     1     -11.030  12.373  64.556  1.00  0.00    -0.316 C  
HETATM    2  C   UNL     1     -12.238  12.921  63.704  1.00  0.00    -0.499 C  
HETATM    3  N   UNL     1      -9.878  13.335  64.425  1.00  0.00    -0.653 NA 
HETATM    4  OXT UNL     1     -12.978  12.026  63.198  1.00  0.00    -0.662 OA 
HETATM    5  H2  UNL     1      -9.099  13.103  65.042  1.00  0.00     0.000 HD 
HETATM    6  O   UNL     1     -12.307  14.179  63.622  1.00  0.00    -0.741 OA 
HETATM    7  H1  UNL     1      -9.606  13.370  63.443  1.00  0.00     0.000 HD 
ENDROOT
BRANCH   1   8
HETATM    8  C   UNL     1     -11.437  12.319  66.027  1.00  0.00    -0.434 C  
BRANCH   8   9
HETATM    9  C   UNL     1     -10.532  11.449  66.905  1.00  0.00    -0.240 C  
BRANCH   9  10
HETATM   10  S   UNL     1     -10.721  11.919  68.684  1.00  0.00    -0.236 S  
HETATM   11  C   UNL     1     -12.403  11.252  68.856  1.00  0.00     0.104 C  
BRANCH  10  12
HETATM   12  C   UNL     1      -9.837  10.462  69.383  1.00  0.00    -0.213 C  
BRANCH  12  13
HETATM   13  C   UNL     1     -10.832   9.365  69.784  1.00  0.00    -0.232 C  
HETATM   14  O   UNL     1     -10.473   8.108  69.178  1.00  0.00    -0.220 OA 
HETATM   15  C   UNL     1     -11.151   7.099  69.923  1.00  0.00    -0.235 C  
HETATM   16  C   UNL     1     -11.052   7.551  71.383  1.00  0.00    -0.238 C  
HETATM   17  H   UNL     1     -11.918   9.599  72.877  1.00  0.00     0.000 HD 
HETATM   18  O   UNL     1     -12.230   7.234  72.135  1.00  0.00    -0.384 OA 
HETATM   19  C   UNL     1     -10.855   9.071  71.287  1.00  0.00    -0.315 C  
HETATM   20  O   UNL     1     -11.903   9.780  71.944  1.00  0.00    -0.342 OA 
HETATM   21  H   UNL     1     -12.170   7.515  73.041  1.00  0.00     0.000 HD 
BRANCH  15  22
HETATM   22  N   UNL     1     -10.577   5.805  69.616  1.00  0.00    -0.297 NA 
HETATM   23  C   UNL     1      -9.831   5.022  70.457  1.00  0.00    -0.219 A  
HETATM   24  C   UNL     1      -9.559   4.233  68.492  1.00  0.00    -0.136 A  
HETATM   25  N   UNL     1      -9.193   4.067  69.808  1.00  0.00    -0.124 NA 
HETATM   26  C   UNL     1      -9.177   3.577  67.309  1.00  0.00    -0.193 A  
HETATM   27  N   UNL     1      -9.781   3.930  66.151  1.00  0.00    -0.187 NA 
HETATM   28  N   UNL     1      -8.193   2.601  67.263  1.00  0.00    -0.077 NA 
HETATM   29  H2  UNL     1      -8.447   1.881  67.940  1.00  0.00     0.000 HD 
HETATM   30  C   UNL     1     -10.681   4.935  66.179  1.00  0.00    -0.184 A  
HETATM   31  H1  UNL     1      -7.916   2.124  66.404  1.00  0.00     0.000 HD 
HETATM   32  N   UNL     1     -11.063   5.697  67.227  1.00  0.00     0.040 NA 
HETATM   33  C   UNL     1     -10.468   5.272  68.359  1.00  0.00    -0.073 A  
ENDBRANCH  15  22
ENDBRANCH  12  13
ENDBRANCH  10  12
ENDBRANCH   9  10
ENDBRANCH   8   9
ENDBRANCH   1   8
TORSDOF 6
ENDMDL
MODEL      150
REMARK 921   NORMALIZED FREE ENERGY PREDICTED BY IDOCK:   -4.81 KCAL/MOL
REMARK 922        TOTAL FREE ENERGY PREDICTED BY IDOCK:   -7.92 KCAL/MOL
REMARK 923 INTER-LIGAND FREE ENERGY PREDICTED BY IDOCK:   -6.18 KCAL/MOL
REMARK 924 INTRA-LIGAND FREE ENERGY PREDICTED BY IDOCK:   -1.74 KCAL/MOL
REMARK 927      BINDING AFFINITY PREDICTED BY RF-SCORE:    0.00 PKD
ROOT
HETATM    1  CA  UNL     1      -9.384  10.067  63.457  1.00  0.00    -0.256 C  
HETATM    2  C   UNL     1      -7.833  10.055  63.740  1.00  0.00    -0.152 C  
HETATM    3  N   UNL     1     -10.102   9.639  64.711  1.00  0.00    -0.259 NA 
HETATM    4  OXT UNL     1      -7.115   9.765  62.739  1.00  0.00    -0.109 OA 
HETATM    5  H2  UNL     1     -11.115   9.732  64.636  1.00  0.00     0.000 HD 
HETATM    6  O   UNL     1      -7.505  10.323  64.929  1.00  0.00    -0.143 OA 
HETATM    7  H1  UNL     1      -9.808   8.688  64.934  1.00  0.00     0.000 HD 
ENDROOT
BRANCH   1   8
HETATM    8  C   UNL     1      -9.824  11.490  63.122  1.00  0.00    -0.413 C  
BRANCH   8   9
HETATM    9  C   UNL     1     -11.209  11.869  63.655  1.00  0.00    -0.441 C  
BRANCH   9  10
HETATM   10  S   UNL     1     -11.186  13.589  64.334  1.00  0.00    -0.365 S  
HETATM   11  C   UNL     1     -12.767  13.443  65.219  1.00  0.00    -0.422 C  
BRANCH  10  12
HETATM   12  C   UNL     1     -10.096  13.234  65.776  1.00  0.00    -0.286 C  
BRANCH  12  13
HETATM   13  C   UNL     1     -10.882  12.527  66.889  1.00  0.00    -0.248 C  
HETATM   14  O   UNL     1     -10.382  11.191  67.092  1.00  0.00    -0.197 OA 
HETATM   15  C   UNL     1     -10.844  10.785  68.379  1.00  0.00    -0.232 C  
HETATM   16  C   UNL     1     -10.708  12.032  69.259  1.00  0.00    -0.013 C  
HETATM   17  H   UNL     1     -11.761  14.492  69.371  1.00  0.00     0.000 HD 
HETATM   18  O   UNL     1     -11.766  12.143  70.219  1.00  0.00    -0.497 OA 
HETATM   19  C   UNL     1     -10.750  13.197  68.259  1.00  0.00    -0.245 C  
HETATM   20  O   UNL     1     -11.843  14.076  68.521  1.00  0.00    -0.332 OA 
HETATM   21  H   UNL     1     -11.683  12.915  70.765  1.00  0.00     0.000 HD 
BRANCH  15  22
HETATM   22  N   UNL     1     -10.105   9.616  68.810  1.00  0.00    -0.172 NA 
HETATM   23  C   UNL     1      -9.079   9.588  69.717  1.00  0.00    -0.205 A  
HETATM   24  C   UNL     1      -9.041   7.713  68.698  1.00  0.00    -0.135 A  
HETATM   25  N   UNL     1      -8.407   8.454  69.669  1.00  0.00    -0.120 NA 
HETATM   26  C   UNL     1      -8.774   6.451  68.140  1.00  0.00    -0.116 A  
HETATM   27  N   UNL     1      -9.642   5.950  67.231  1.00  0.00    -0.112 NA 
HETATM   28  N   UNL     1      -7.650   5.701  68.454  1.00  0.00    -0.081 NA 
HETATM   29  H2  UNL     1      -7.630   5.594  69.468  1.00  0.00     0.000 HD 
HETATM   30  C   UNL     1     -10.694   6.711  66.863  1.00  0.00    -0.331 A  
HETATM   31  H1  UNL     1      -7.457   4.785  68.048  1.00  0.00     0.000 HD 
HETATM   32  N   UNL     1     -11.006   7.965  67.256  1.00  0.00    -0.102 NA 
HETATM   33  C   UNL     1     -10.138   8.394  68.193  1.00  0.00    -0.200 A  
ENDBRANCH  15  22
ENDBRANCH  12  13
ENDBRANCH  10  12
ENDBRANCH   9  10
ENDBRANCH   8   9
ENDBRANCH   1   8
TORSDOF 6
ENDMDL
MODEL      151
REMARK 921   NORMALIZED FREE ENERGY PREDICTED BY IDOCK:   -4.80 KCAL/MOL
REMARK 922        TOTAL FREE ENERGY PREDICTED BY IDOCK:   -7.90 KCAL/MOL
REMARK 923 INTER-LIGAND FREE ENERGY PREDICTED BY IDOCK:   -7.32 KCAL/MOL
REMARK 924 INTRA-LIGAND FREE ENERGY PREDICTED BY IDOCK:   -0.58 KCAL/MOL
REMARK 927      BINDING AFFINITY PREDICTED BY RF-SCORE:    0.00 PKD
ROOT
HETATM    1  CA  UNL     1      -9.571   8.784  70.484  1.00  0.00    -0.191 C  
HETATM    2  C   UNL     1     -10.992   8.619  71.145  1.00  0.00    -0.260 C  
HETATM    3  N   UNL     1      -9.200   7.485  69.817  1.00  0.00    -0.148 NA 
HETATM    4  OXT UNL     1     -11.167   9.294  72.201  1.00  0.00    -0.272 OA 
HETATM    5  H2  UNL     1      -8.341   7.553  69.271  1.00  0.00     0.000 HD 
HETATM    6  O   UNL     1     -11.771   7.825  70.546  1.00  0.00    -0.223 OA 
HETATM    7  H1  UNL     1      -9.154   6.763  70.536  1.00  0.00     0.000 HD 
ENDROOT
BRANCH   1   8
HETATM    8  C   UNL     1      -9.639   9.866  69.408  1.00  0.00    -0.229 C  
BRANCH   8   9
HETATM    9  C   UNL     1      -8.559   9.756  68.327  1.00  0.00    -0.119 C  
BRANCH   9  10
HETATM   10  S   UNL     1      -7.525  11.288  68.295  1.00  0.00    -0.106 S  
HETATM   11  C   UNL     1      -5.948  10.422  68.035  1.00  0.00    -0.044 C  
BRANCH  10  12
HETATM   12  C   UNL     1      -7.832  11.714  66.529  1.00  0.00    -0.025 C  
BRANCH  12  13
HETATM   13  C   UNL     1      -9.311  12.054  66.302  1.00  0.00    -0.223 C  
HETATM   14  O   UNL     1      -9.541  13.466  66.479  1.00  0.00    -0.265 OA 
HETATM   15  C   UNL     1     -10.784  13.750  65.842  1.00  0.00    -0.285 C  
HETATM   16  C   UNL     1     -10.776  12.907  64.563  1.00  0.00    -0.371 C  
HETATM   17  H   UNL     1     -10.741  10.309  63.913  1.00  0.00     0.000 HD 
HETATM   18  O   UNL     1     -12.074  12.396  64.235  1.00  0.00    -0.387 OA 
HETATM   19  C   UNL     1      -9.801  11.763  64.881  1.00  0.00    -0.223 C  
HETATM   20  O   UNL     1     -10.438  10.489  64.795  1.00  0.00    -0.304 OA 
HETATM   21  H   UNL     1     -12.069  11.873  63.443  1.00  0.00     0.000 HD 
BRANCH  15  22
HETATM   22  N   UNL     1     -10.919  15.180  65.663  1.00  0.00    -0.345 NA 
HETATM   23  C   UNL     1     -11.081  15.842  64.474  1.00  0.00    -0.277 A  
HETATM   24  C   UNL     1     -10.555  17.318  65.924  1.00  0.00    -0.204 A  
HETATM   25  N   UNL     1     -10.859  17.136  64.594  1.00  0.00    -0.747 NA 
HETATM   26  C   UNL     1     -10.170  18.448  66.665  1.00  0.00    -0.394 A  
HETATM   27  N   UNL     1     -10.006  18.318  68.002  1.00  0.00    -0.328 NA 
HETATM   28  N   UNL     1      -9.921  19.687  66.093  1.00  0.00    -0.445 NA 
HETATM   29  H2  UNL     1     -10.749  19.945  65.556  1.00  0.00     0.000 HD 
HETATM   30  C   UNL     1     -10.169  17.097  68.551  1.00  0.00    -0.346 A  
HETATM   31  H1  UNL     1      -9.641  20.507  66.631  1.00  0.00     0.000 HD 
HETATM   32  N   UNL     1     -10.448  15.926  67.938  1.00  0.00    -0.279 NA 
HETATM   33  C   UNL     1     -10.646  16.122  66.620  1.00  0.00    -0.274 A  
ENDBRANCH  15  22
ENDBRANCH  12  13
ENDBRANCH  10  12
ENDBRANCH   9  10
ENDBRANCH   8   9
ENDBRANCH   1   8
TORSDOF 6
ENDMDL
MODEL      152
REMARK 921   NORMALIZED FREE ENERGY PREDICTED BY IDOCK:   -4.75 KCAL/MOL
REMARK 922        TOTAL FREE ENERGY PREDICTED BY IDOCK:   -7.84 KCAL/MOL
REMARK 923 INTER-LIGAND FREE ENERGY PREDICTED BY IDOCK:   -6.91 KCAL/MOL
REMARK 924 INTRA-LIGAND FREE ENERGY PREDICTED BY IDOCK:   -0.92 KCAL/MOL
REMARK 927      BINDING AFFINITY PREDICTED BY RF-SCORE:    0.00 PKD
ROOT
HETATM    1  CA  UNL     1      -8.297   9.560  63.319  1.00  0.00    -0.181 C  
HETATM    2  C   UNL     1      -7.594   9.191  64.681  1.00  0.00    -0.106 C  
HETATM    3  N   UNL     1      -8.560   8.287  62.557  1.00  0.00    -0.414 NA 
HETATM    4  OXT UNL     1      -6.779  10.060  65.108  1.00  0.00    -0.112 OA 
HETATM    5  H2  UNL     1      -9.116   8.439  61.715  1.00  0.00     0.000 HD 
HETATM    6  O   UNL     1      -7.921   8.072  65.165  1.00  0.00    -0.112 OA 
HETATM    7  H1  UNL     1      -7.662   7.844  62.362  1.00  0.00     0.000 HD 
ENDROOT
BRANCH   1   8
HETATM    8  C   UNL     1      -9.641  10.223  63.611  1.00  0.00    -0.334 C  
BRANCH   8   9
HETATM    9  C   UNL     1      -9.750  11.675  63.136  1.00  0.00    -0.360 C  
BRANCH   9  10
HETATM   10  S   UNL     1     -10.413  12.744  64.491  1.00  0.00    -0.370 S  
HETATM   11  C   UNL     1     -11.983  13.121  63.656  1.00  0.00    -0.514 C  
BRANCH  10  12
HETATM   12  C   UNL     1     -11.052  11.376  65.547  1.00  0.00    -0.136 C  
BRANCH  12  13
HETATM   13  C   UNL     1     -10.639  11.582  67.011  1.00  0.00    -0.242 C  
HETATM   14  O   UNL     1     -10.359  12.972  67.268  1.00  0.00    -0.236 OA 
HETATM   15  C   UNL     1     -10.417  13.134  68.683  1.00  0.00    -0.227 C  
HETATM   16  C   UNL     1     -11.598  12.268  69.133  1.00  0.00    -0.318 C  
HETATM   17  H   UNL     1     -12.247   9.670  69.145  1.00  0.00     0.000 HD 
HETATM   18  O   UNL     1     -11.366  11.641  70.400  1.00  0.00    -0.479 OA 
HETATM   19  C   UNL     1     -11.733  11.220  68.018  1.00  0.00    -0.233 C  
HETATM   20  O   UNL     1     -11.568   9.895  68.520  1.00  0.00     0.018 OA 
HETATM   21  H   UNL     1     -12.098  11.104  70.679  1.00  0.00     0.000 HD 
BRANCH  15  22
HETATM   22  N   UNL     1     -10.501  14.544  69.004  1.00  0.00    -0.243 NA 
HETATM   23  C   UNL     1     -11.647  15.281  69.150  1.00  0.00    -0.332 A  
HETATM   24  C   UNL     1     -10.043  16.679  68.977  1.00  0.00    -0.293 A  
HETATM   25  N   UNL     1     -11.407  16.578  69.128  1.00  0.00    -0.225 NA 
HETATM   26  C   UNL     1      -9.182  17.780  68.827  1.00  0.00    -0.215 A  
HETATM   27  N   UNL     1      -7.849  17.554  68.770  1.00  0.00    -0.264 NA 
HETATM   28  N   UNL     1      -9.630  19.087  68.707  1.00  0.00    -0.390 NA 
HETATM   29  H2  UNL     1     -10.229  19.278  69.511  1.00  0.00     0.000 HD 
HETATM   30  C   UNL     1      -7.414  16.278  68.806  1.00  0.00    -0.195 A  
HETATM   31  H1  UNL     1      -9.006  19.886  68.598  1.00  0.00     0.000 HD 
HETATM   32  N   UNL     1      -8.139  15.140  68.857  1.00  0.00    -0.165 NA 
HETATM   33  C   UNL     1      -9.453  15.424  68.959  1.00  0.00    -0.236 A  
ENDBRANCH  15  22
ENDBRANCH  12  13
ENDBRANCH  10  12
ENDBRANCH   9  10
ENDBRANCH   8   9
ENDBRANCH   1   8
TORSDOF 6
ENDMDL
MODEL      153
REMARK 921   NORMALIZED FREE ENERGY PREDICTED BY IDOCK:   -4.75 KCAL/MOL
REMARK 922        TOTAL FREE ENERGY PREDICTED BY IDOCK:   -7.84 KCAL/MOL
REMARK 923 INTER-LIGAND FREE ENERGY PREDICTED BY IDOCK:   -6.89 KCAL/MOL
REMARK 924 INTRA-LIGAND FREE ENERGY PREDICTED BY IDOCK:   -0.95 KCAL/MOL
REMARK 927      BINDING AFFINITY PREDICTED BY RF-SCORE:    0.00 PKD
ROOT
HETATM    1  CA  UNL     1      -8.636   6.952  66.593  1.00  0.00    -0.124 C  
HETATM    2  C   UNL     1      -8.494   5.527  65.935  1.00  0.00    -0.130 C  
HETATM    3  N   UNL     1      -9.446   7.826  65.670  1.00  0.00    -0.369 NA 
HETATM    4  OXT UNL     1      -7.412   4.926  66.201  1.00  0.00    -0.083 OA 
HETATM    5  H2  UNL     1      -9.674   8.730  66.083  1.00  0.00     0.000 HD 
HETATM    6  O   UNL     1      -9.469   5.171  65.216  1.00  0.00    -0.111 OA 
HETATM    7  H1  UNL     1      -8.937   7.912  64.790  1.00  0.00     0.000 HD 
ENDROOT
BRANCH   1   8
HETATM    8  C   UNL     1      -9.396   6.824  67.911  1.00  0.00    -0.113 C  
BRANCH   8   9
HETATM    9  C   UNL     1      -8.560   6.289  69.078  1.00  0.00    -0.123 C  
BRANCH   9  10
HETATM   10  S   UNL     1      -9.581   5.168  70.137  1.00  0.00    -0.199 S  
HETATM   11  C   UNL     1      -9.249   6.055  71.688  1.00  0.00    -0.145 C  
BRANCH  10  12
HETATM   12  C   UNL     1     -11.206   5.960  69.778  1.00  0.00    -0.261 C  
BRANCH  12  13
HETATM   13  C   UNL     1     -11.492   7.088  70.779  1.00  0.00    -0.318 C  
HETATM   14  O   UNL     1     -11.322   8.376  70.154  1.00  0.00    -0.195 OA 
HETATM   15  C   UNL     1     -12.009   9.313  70.981  1.00  0.00    -0.300 C  
HETATM   16  C   UNL     1     -13.288   8.592  71.418  1.00  0.00    -0.230 C  
HETATM   17  H   UNL     1     -13.941   6.439  72.871  1.00  0.00     0.000 HD 
HETATM   18  O   UNL     1     -13.670   8.919  72.760  1.00  0.00    -0.762 OA 
HETATM   19  C   UNL     1     -12.933   7.102  71.297  1.00  0.00    -0.324 C  
HETATM   20  O   UNL     1     -13.047   6.430  72.550  1.00  0.00     0.175 OA 
HETATM   21  H   UNL     1     -14.463   8.473  73.031  1.00  0.00     0.000 HD 
BRANCH  15  22
HETATM   22  N   UNL     1     -12.191  10.553  70.256  1.00  0.00    -0.309 NA 
HETATM   23  C   UNL     1     -11.820  10.803  68.961  1.00  0.00    -0.254 A  
HETATM   24  C   UNL     1     -12.235  12.698  69.852  1.00  0.00    -0.168 A  
HETATM   25  N   UNL     1     -11.826  12.093  68.685  1.00  0.00    -0.318 NA 
HETATM   26  C   UNL     1     -12.387  14.046  70.220  1.00  0.00    -0.358 A  
HETATM   27  N   UNL     1     -12.888  14.328  71.445  1.00  0.00    -0.325 NA 
HETATM   28  N   UNL     1     -12.025  15.106  69.402  1.00  0.00    -0.418 NA 
HETATM   29  H2  UNL     1     -12.506  14.979  68.511  1.00  0.00     0.000 HD 
HETATM   30  C   UNL     1     -13.166  13.301  72.275  1.00  0.00    -0.467 A  
HETATM   31  H1  UNL     1     -12.135  16.084  69.670  1.00  0.00     0.000 HD 
HETATM   32  N   UNL     1     -12.981  11.978  72.072  1.00  0.00    -0.346 NA 
HETATM   33  C   UNL     1     -12.526  11.754  70.824  1.00  0.00    -0.312 A  
ENDBRANCH  15  22
ENDBRANCH  12  13
ENDBRANCH  10  12
ENDBRANCH   9  10
ENDBRANCH   8   9
ENDBRANCH   1   8
TORSDOF 6
ENDMDL
MODEL      154
REMARK 921   NORMALIZED FREE ENERGY PREDICTED BY IDOCK:   -4.73 KCAL/MOL
REMARK 922        TOTAL FREE ENERGY PREDICTED BY IDOCK:   -7.81 KCAL/MOL
REMARK 923 INTER-LIGAND FREE ENERGY PREDICTED BY IDOCK:   -6.93 KCAL/MOL
REMARK 924 INTRA-LIGAND FREE ENERGY PREDICTED BY IDOCK:   -0.87 KCAL/MOL
REMARK 927      BINDING AFFINITY PREDICTED BY RF-SCORE:    0.00 PKD
ROOT
HETATM    1  CA  UNL     1      -8.814   6.618  66.745  1.00  0.00    -0.130 C  
HETATM    2  C   UNL     1      -9.554   6.370  68.115  1.00  0.00    -0.115 C  
HETATM    3  N   UNL     1      -9.703   6.134  65.628  1.00  0.00    -0.297 NA 
HETATM    4  OXT UNL     1      -8.788   6.116  69.091  1.00  0.00    -0.123 OA 
HETATM    5  H2  UNL     1      -9.337   6.366  64.705  1.00  0.00     0.000 HD 
HETATM    6  O   UNL     1     -10.813   6.442  68.064  1.00  0.00    -0.263 OA 
HETATM    7  H1  UNL     1      -9.850   5.132  65.754  1.00  0.00     0.000 HD 
ENDROOT
BRANCH   1   8
HETATM    8  C   UNL     1      -8.592   8.117  66.557  1.00  0.00    -0.146 C  
BRANCH   8   9
HETATM    9  C   UNL     1      -9.734   8.843  65.839  1.00  0.00    -0.189 C  
BRANCH   9  10
HETATM   10  S   UNL     1      -9.133  10.443  65.135  1.00  0.00    -0.215 S  
HETATM   11  C   UNL     1      -9.133   9.878  63.408  1.00  0.00    -0.261 C  
BRANCH  10  12
HETATM   12  C   UNL     1     -10.772  11.283  65.088  1.00  0.00    -0.246 C  
BRANCH  12  13
HETATM   13  C   UNL     1     -11.108  11.894  66.455  1.00  0.00    -0.306 C  
HETATM   14  O   UNL     1     -11.072  10.885  67.484  1.00  0.00    -0.279 OA 
HETATM   15  C   UNL     1     -10.958  11.584  68.722  1.00  0.00    -0.222 C  
HETATM   16  C   UNL     1      -9.989  12.736  68.439  1.00  0.00    -0.210 C  
HETATM   17  H   UNL     1      -9.926  14.928  66.901  1.00  0.00     0.000 HD 
HETATM   18  O   UNL     1     -10.334  13.930  69.154  1.00  0.00    -0.402 OA 
HETATM   19  C   UNL     1     -10.105  12.952  66.922  1.00  0.00    -0.241 C  
HETATM   20  O   UNL     1     -10.549  14.271  66.611  1.00  0.00    -0.275 OA 
HETATM   21  H   UNL     1      -9.734  14.644  68.978  1.00  0.00     0.000 HD 
BRANCH  15  22
HETATM   22  N   UNL     1     -10.562  10.658  69.763  1.00  0.00    -0.220 NA 
HETATM   23  C   UNL     1      -9.362  10.005  69.861  1.00  0.00    -0.169 A  
HETATM   24  C   UNL     1     -10.696   9.030  71.213  1.00  0.00    -0.309 A  
HETATM   25  N   UNL     1      -9.411   9.007  70.722  1.00  0.00    -0.227 NA 
HETATM   26  C   UNL     1     -11.386   8.198  72.110  1.00  0.00    -0.336 A  
HETATM   27  N   UNL     1     -12.651   8.530  72.457  1.00  0.00    -0.348 NA 
HETATM   28  N   UNL     1     -10.846   7.035  72.641  1.00  0.00    -0.253 NA 
HETATM   29  H2  UNL     1      -9.960   7.285  73.080  1.00  0.00     0.000 HD 
HETATM   30  C   UNL     1     -13.209   9.616  71.882  1.00  0.00    -0.446 A  
HETATM   31  H1  UNL     1     -11.348   6.431  73.292  1.00  0.00     0.000 HD 
HETATM   32  N   UNL     1     -12.685  10.437  70.946  1.00  0.00    -0.361 NA 
HETATM   33  C   UNL     1     -11.412  10.088  70.674  1.00  0.00    -0.345 A  
ENDBRANCH  15  22
ENDBRANCH  12  13
ENDBRANCH  10  12
ENDBRANCH   9  10
ENDBRANCH   8   9
ENDBRANCH   1   8
TORSDOF 6
ENDMDL
MODEL      155
REMARK 921   NORMALIZED FREE ENERGY PREDICTED BY IDOCK:   -4.72 KCAL/MOL
REMARK 922        TOTAL FREE ENERGY PREDICTED BY IDOCK:   -7.80 KCAL/MOL
REMARK 923 INTER-LIGAND FREE ENERGY PREDICTED BY IDOCK:   -7.30 KCAL/MOL
REMARK 924 INTRA-LIGAND FREE ENERGY PREDICTED BY IDOCK:   -0.50 KCAL/MOL
REMARK 927      BINDING AFFINITY PREDICTED BY RF-SCORE:    0.00 PKD
ROOT
HETATM    1  CA  UNL     1      -8.160  20.437  66.581  1.00  0.00    -0.184 C  
HETATM    2  C   UNL     1      -6.964  19.920  65.692  1.00  0.00    -0.307 C  
HETATM    3  N   UNL     1      -9.454  20.068  65.901  1.00  0.00    -0.502 NA 
HETATM    4  OXT UNL     1      -5.921  20.635  65.742  1.00  0.00    -0.197 OA 
HETATM    5  H2  UNL     1     -10.272  20.272  66.475  1.00  0.00     0.000 HD 
HETATM    6  O   UNL     1      -7.202  18.868  65.035  1.00  0.00    -0.324 OA 
HETATM    7  H1  UNL     1      -9.480  20.538  64.996  1.00  0.00     0.000 HD 
ENDROOT
BRANCH   1   8
HETATM    8  C   UNL     1      -8.120  19.734  67.935  1.00  0.00    -0.336 C  
BRANCH   8   9
HETATM    9  C   UNL     1      -7.263  18.465  67.968  1.00  0.00    -0.241 C  
BRANCH   9  10
HETATM   10  S   UNL     1      -8.333  16.964  67.814  1.00  0.00    -0.197 S  
HETATM   11  C   UNL     1      -7.492  16.023  69.122  1.00  0.00    -0.216 C  
BRANCH  10  12
HETATM   12  C   UNL     1      -9.721  17.586  68.854  1.00  0.00    -0.259 C  
BRANCH  12  13
HETATM   13  C   UNL     1     -10.932  16.648  68.759  1.00  0.00    -0.309 C  
HETATM   14  O   UNL     1     -10.783  15.737  67.652  1.00  0.00    -0.297 OA 
HETATM   15  C   UNL     1     -11.688  14.663  67.897  1.00  0.00    -0.351 C  
HETATM   16  C   UNL     1     -11.598  14.404  69.404  1.00  0.00    -0.304 C  
HETATM   17  H   UNL     1     -12.148  15.724  71.668  1.00  0.00     0.000 HD 
HETATM   18  O   UNL     1     -12.861  14.035  69.973  1.00  0.00    -0.357 OA 
HETATM   19  C   UNL     1     -11.107  15.741  69.980  1.00  0.00    -0.344 C  
HETATM   20  O   UNL     1     -12.039  16.287  70.911  1.00  0.00    -0.255 OA 
HETATM   21  H   UNL     1     -12.805  13.874  70.907  1.00  0.00     0.000 HD 
BRANCH  15  22
HETATM   22  N   UNL     1     -11.355  13.546  67.037  1.00  0.00    -0.312 NA 
HETATM   23  C   UNL     1     -12.213  12.865  66.215  1.00  0.00    -0.270 A  
HETATM   24  C   UNL     1     -10.450  11.672  66.376  1.00  0.00    -0.244 A  
HETATM   25  N   UNL     1     -11.701  11.721  65.805  1.00  0.00    -0.349 NA 
HETATM   26  C   UNL     1      -9.440  10.695  66.371  1.00  0.00    -0.171 A  
HETATM   27  N   UNL     1      -8.265  10.977  66.980  1.00  0.00    -0.133 NA 
HETATM   28  N   UNL     1      -9.595   9.442  65.796  1.00  0.00    -0.259 NA 
HETATM   29  H2  UNL     1      -9.881   9.586  64.827  1.00  0.00     0.000 HD 
HETATM   30  C   UNL     1      -8.140  12.163  67.610  1.00  0.00    -0.158 A  
HETATM   31  H1  UNL     1      -8.862   8.732  65.792  1.00  0.00     0.000 HD 
HETATM   32  N   UNL     1      -9.060  13.140  67.761  1.00  0.00    -0.190 NA 
HETATM   33  C   UNL     1     -10.190  12.827  67.097  1.00  0.00    -0.233 A  
ENDBRANCH  15  22
ENDBRANCH  12  13
ENDBRANCH  10  12
ENDBRANCH   9  10
ENDBRANCH   8   9
ENDBRANCH   1   8
TORSDOF 6
ENDMDL
MODEL      156
REMARK 921   NORMALIZED FREE ENERGY PREDICTED BY IDOCK:   -4.70 KCAL/MOL
REMARK 922        TOTAL FREE ENERGY PREDICTED BY IDOCK:   -7.77 KCAL/MOL
REMARK 923 INTER-LIGAND FREE ENERGY PREDICTED BY IDOCK:   -7.60 KCAL/MOL
REMARK 924 INTRA-LIGAND FREE ENERGY PREDICTED BY IDOCK:   -0.18 KCAL/MOL
REMARK 927      BINDING AFFINITY PREDICTED BY RF-SCORE:    0.00 PKD
ROOT
HETATM    1  CA  UNL     1     -10.758   7.505  70.337  1.00  0.00    -0.239 C  
HETATM    2  C   UNL     1     -11.851   7.935  71.389  1.00  0.00    -0.299 C  
HETATM    3  N   UNL     1     -11.431   6.716  69.244  1.00  0.00    -0.628 NA 
HETATM    4  OXT UNL     1     -11.435   8.014  72.582  1.00  0.00    -0.381 OA 
HETATM    5  H2  UNL     1     -10.803   6.501  68.469  1.00  0.00     0.000 HD 
HETATM    6  O   UNL     1     -13.003   8.133  70.912  1.00  0.00    -0.021 OA 
HETATM    7  H1  UNL     1     -11.840   5.882  69.663  1.00  0.00     0.000 HD 
ENDROOT
BRANCH   1   8
HETATM    8  C   UNL     1     -10.144   8.755  69.710  1.00  0.00    -0.198 C  
BRANCH   8   9
HETATM    9  C   UNL     1      -9.892   8.651  68.203  1.00  0.00    -0.165 C  
BRANCH   9  10
HETATM   10  S   UNL     1      -8.095   8.365  67.871  1.00  0.00    -0.124 S  
HETATM   11  C   UNL     1      -8.359   7.120  66.574  1.00  0.00    -0.117 C  
BRANCH  10  12
HETATM   12  C   UNL     1      -7.857   9.804  66.745  1.00  0.00    -0.102 C  
BRANCH  12  13
HETATM   13  C   UNL     1      -9.112  10.042  65.895  1.00  0.00    -0.159 C  
HETATM   14  O   UNL     1      -9.729  11.297  66.243  1.00  0.00    -0.204 OA 
HETATM   15  C   UNL     1     -10.585  11.635  65.154  1.00  0.00    -0.290 C  
HETATM   16  C   UNL     1      -9.804  11.237  63.898  1.00  0.00    -0.300 C  
HETATM   17  H   UNL     1      -8.857   8.987  62.794  1.00  0.00     0.000 HD 
HETATM   18  O   UNL     1     -10.653  10.721  62.864  1.00  0.00    -0.745 OA 
HETATM   19  C   UNL     1      -8.829  10.158  64.395  1.00  0.00    -0.211 C  
HETATM   20  O   UNL     1      -9.032   8.916  63.725  1.00  0.00    -0.020 OA 
HETATM   21  H   UNL     1     -10.169  10.474  62.086  1.00  0.00     0.000 HD 
BRANCH  15  22
HETATM   22  N   UNL     1     -10.966  13.028  65.253  1.00  0.00    -0.280 NA 
HETATM   23  C   UNL     1     -11.822  13.702  64.422  1.00  0.00    -0.424 A  
HETATM   24  C   UNL     1     -10.780  15.184  65.551  1.00  0.00    -0.365 A  
HETATM   25  N   UNL     1     -11.728  15.009  64.569  1.00  0.00    -0.406 NA 
HETATM   26  C   UNL     1     -10.195  16.331  66.114  1.00  0.00    -0.346 A  
HETATM   27  N   UNL     1      -9.322  16.175  67.137  1.00  0.00    -0.212 NA 
HETATM   28  N   UNL     1     -10.445  17.617  65.658  1.00  0.00    -0.623 NA 
HETATM   29  H2  UNL     1     -11.456  17.753  65.675  1.00  0.00     0.000 HD 
HETATM   30  C   UNL     1      -9.014  14.921  67.530  1.00  0.00    -0.185 A  
HETATM   31  H1  UNL     1     -10.020  18.449  66.067  1.00  0.00     0.000 HD 
HETATM   32  N   UNL     1      -9.437  13.747  67.014  1.00  0.00    -0.246 NA 
HETATM   33  C   UNL     1     -10.337  13.962  66.034  1.00  0.00    -0.305 A  
ENDBRANCH  15  22
ENDBRANCH  12  13
ENDBRANCH  10  12
ENDBRANCH   9  10
ENDBRANCH   8   9
ENDBRANCH   1   8
TORSDOF 6
ENDMDL
MODEL      157
REMARK 921   NORMALIZED FREE ENERGY PREDICTED BY IDOCK:   -4.69 KCAL/MOL
REMARK 922        TOTAL FREE ENERGY PREDICTED BY IDOCK:   -7.76 KCAL/MOL
REMARK 923 INTER-LIGAND FREE ENERGY PREDICTED BY IDOCK:   -7.07 KCAL/MOL
REMARK 924 INTRA-LIGAND FREE ENERGY PREDICTED BY IDOCK:   -0.69 KCAL/MOL
REMARK 927      BINDING AFFINITY PREDICTED BY RF-SCORE:    0.00 PKD
ROOT
HETATM    1  CA  UNL     1     -12.453  12.167  64.424  1.00  0.00    -0.324 C  
HETATM    2  C   UNL     1     -12.759  13.709  64.307  1.00  0.00     0.013 C  
HETATM    3  N   UNL     1     -12.480  11.568  63.040  1.00  0.00    -0.914 NA 
HETATM    4  OXT UNL     1     -13.376  14.202  65.296  1.00  0.00    -0.715 OA 
HETATM    5  H2  UNL     1     -12.179  10.594  63.027  1.00  0.00     0.000 HD 
HETATM    6  O   UNL     1     -12.364  14.253  63.238  1.00  0.00    -0.616 OA 
HETATM    7  H1  UNL     1     -13.418  11.697  62.659  1.00  0.00     0.000 HD 
ENDROOT
BRANCH   1   8
HETATM    8  C   UNL     1     -11.050  11.974  64.995  1.00  0.00    -0.368 C  
BRANCH   8   9
HETATM    9  C   UNL     1     -10.035  11.394  64.005  1.00  0.00    -0.297 C  
BRANCH   9  10
HETATM   10  S   UNL     1      -9.453   9.737  64.582  1.00  0.00    -0.148 S  
HETATM   11  C   UNL     1      -8.767   9.231  62.976  1.00  0.00    -0.196 C  
BRANCH  10  12
HETATM   12  C   UNL     1      -7.868  10.315  65.322  1.00  0.00    -0.145 C  
BRANCH  12  13
HETATM   13  C   UNL     1      -8.099  10.873  66.733  1.00  0.00    -0.142 C  
HETATM   14  O   UNL     1      -8.202  12.310  66.700  1.00  0.00    -0.105 OA 
HETATM   15  C   UNL     1      -8.833  12.691  67.921  1.00  0.00    -0.182 C  
HETATM   16  C   UNL     1      -9.915  11.633  68.155  1.00  0.00    -0.195 C  
HETATM   17  H   UNL     1     -10.028   8.997  68.620  1.00  0.00     0.000 HD 
HETATM   18  O   UNL     1     -10.081  11.317  69.543  1.00  0.00    -0.432 OA 
HETATM   19  C   UNL     1      -9.412  10.410  67.371  1.00  0.00    -0.149 C  
HETATM   20  O   UNL     1      -9.214   9.284  68.224  1.00  0.00    -0.132 OA 
HETATM   21  H   UNL     1     -10.752  10.661  69.689  1.00  0.00     0.000 HD 
BRANCH  15  22
HETATM   22  N   UNL     1      -9.292  14.061  67.818  1.00  0.00    -0.198 NA 
HETATM   23  C   UNL     1      -8.938  14.971  66.857  1.00  0.00    -0.251 A  
HETATM   24  C   UNL     1      -9.865  16.078  68.430  1.00  0.00    -0.213 A  
HETATM   25  N   UNL     1      -9.261  16.203  67.200  1.00  0.00    -0.204 NA 
HETATM   26  C   UNL     1     -10.373  17.021  69.340  1.00  0.00    -0.230 A  
HETATM   27  N   UNL     1     -10.986  16.572  70.460  1.00  0.00    -0.194 NA 
HETATM   28  N   UNL     1     -10.256  18.392  69.162  1.00  0.00    -0.434 NA 
HETATM   29  H2  UNL     1     -10.647  18.613  68.246  1.00  0.00     0.000 HD 
HETATM   30  C   UNL     1     -11.030  15.241  70.676  1.00  0.00    -0.284 A  
HETATM   31  H1  UNL     1     -10.625  19.076  69.822  1.00  0.00     0.000 HD 
HETATM   32  N   UNL     1     -10.504  14.247  69.928  1.00  0.00     0.217 NA 
HETATM   33  C   UNL     1      -9.949  14.746  68.806  1.00  0.00    -0.234 A  
ENDBRANCH  15  22
ENDBRANCH  12  13
ENDBRANCH  10  12
ENDBRANCH   9  10
ENDBRANCH   8   9
ENDBRANCH   1   8
TORSDOF 6
ENDMDL
MODEL      158
REMARK 921   NORMALIZED FREE ENERGY PREDICTED BY IDOCK:   -4.69 KCAL/MOL
REMARK 922        TOTAL FREE ENERGY PREDICTED BY IDOCK:   -7.76 KCAL/MOL
REMARK 923 INTER-LIGAND FREE ENERGY PREDICTED BY IDOCK:   -7.57 KCAL/MOL
REMARK 924 INTRA-LIGAND FREE ENERGY PREDICTED BY IDOCK:   -0.19 KCAL/MOL
REMARK 927      BINDING AFFINITY PREDICTED BY RF-SCORE:    0.00 PKD
ROOT
HETATM    1  CA  UNL     1     -10.278   6.542  69.463  1.00  0.00    -0.186 C  
HETATM    2  C   UNL     1     -10.826   6.472  70.940  1.00  0.00    -0.253 C  
HETATM    3  N   UNL     1     -11.335   5.998  68.536  1.00  0.00    -0.203 NA 
HETATM    4  OXT UNL     1      -9.941   6.275  71.824  1.00  0.00    -0.171 OA 
HETATM    5  H2  UNL     1     -11.094   6.117  67.552  1.00  0.00     0.000 HD 
HETATM    6  O   UNL     1     -12.076   6.608  71.054  1.00  0.00    -0.369 OA 
HETATM    7  H1  UNL     1     -11.503   5.024  68.786  1.00  0.00     0.000 HD 
ENDROOT
BRANCH   1   8
HETATM    8  C   UNL     1     -10.026   8.001  69.089  1.00  0.00    -0.188 C  
BRANCH   8   9
HETATM    9  C   UNL     1      -9.919   8.261  67.583  1.00  0.00    -0.190 C  
BRANCH   9  10
HETATM   10  S   UNL     1      -8.189   7.962  67.002  1.00  0.00    -0.118 S  
HETATM   11  C   UNL     1      -8.650   6.779  65.702  1.00  0.00    -0.117 C  
BRANCH  10  12
HETATM   12  C   UNL     1      -8.072   9.445  65.914  1.00  0.00    -0.114 C  
BRANCH  12  13
HETATM   13  C   UNL     1      -9.452   9.818  65.356  1.00  0.00    -0.269 C  
HETATM   14  O   UNL     1     -10.126  10.734  66.241  1.00  0.00    -0.217 OA 
HETATM   15  C   UNL     1     -11.156  11.348  65.468  1.00  0.00    -0.136 C  
HETATM   16  C   UNL     1     -10.527  11.591  64.093  1.00  0.00    -0.353 C  
HETATM   17  H   UNL     1      -9.543  10.116  62.085  1.00  0.00     0.000 HD 
HETATM   18  O   UNL     1     -11.463  11.410  63.023  1.00  0.00    -0.853 OA 
HETATM   19  C   UNL     1      -9.396  10.554  64.014  1.00  0.00    -0.267 C  
HETATM   20  O   UNL     1      -9.577   9.660  62.917  1.00  0.00    -0.009 OA 
HETATM   21  H   UNL     1     -11.073  11.560  62.170  1.00  0.00     0.000 HD 
BRANCH  15  22
HETATM   22  N   UNL     1     -11.645  12.521  66.162  1.00  0.00    -0.375 NA 
HETATM   23  C   UNL     1     -11.816  13.771  65.631  1.00  0.00    -0.365 A  
HETATM   24  C   UNL     1     -11.912  13.994  67.752  1.00  0.00    -0.357 A  
HETATM   25  N   UNL     1     -11.970  14.689  66.565  1.00  0.00    -0.324 NA 
HETATM   26  C   UNL     1     -11.951  14.403  69.096  1.00  0.00    -0.322 A  
HETATM   27  N   UNL     1     -11.943  13.454  70.060  1.00  0.00    -0.338 NA 
HETATM   28  N   UNL     1     -11.970  15.734  69.488  1.00  0.00    -0.393 NA 
HETATM   29  H2  UNL     1     -12.755  16.179  69.013  1.00  0.00     0.000 HD 
HETATM   30  C   UNL     1     -11.843  12.161  69.685  1.00  0.00    -0.322 A  
HETATM   31  H1  UNL     1     -11.998  16.030  70.464  1.00  0.00     0.000 HD 
HETATM   32  N   UNL     1     -11.710  11.651  68.442  1.00  0.00    -0.393 NA 
HETATM   33  C   UNL     1     -11.771  12.634  67.522  1.00  0.00    -0.368 A  
ENDBRANCH  15  22
ENDBRANCH  12  13
ENDBRANCH  10  12
ENDBRANCH   9  10
ENDBRANCH   8   9
ENDBRANCH   1   8
TORSDOF 6
ENDMDL
MODEL      159
REMARK 921   NORMALIZED FREE ENERGY PREDICTED BY IDOCK:   -4.69 KCAL/MOL
REMARK 922        TOTAL FREE ENERGY PREDICTED BY IDOCK:   -7.76 KCAL/MOL
REMARK 923 INTER-LIGAND FREE ENERGY PREDICTED BY IDOCK:   -6.56 KCAL/MOL
REMARK 924 INTRA-LIGAND FREE ENERGY PREDICTED BY IDOCK:   -1.20 KCAL/MOL
REMARK 927      BINDING AFFINITY PREDICTED BY RF-SCORE:    0.00 PKD
ROOT
HETATM    1  CA  UNL     1      -6.732   9.157  68.780  1.00  0.00    -0.053 C  
HETATM    2  C   UNL     1      -6.468  10.711  68.815  1.00  0.00    -0.051 C  
HETATM    3  N   UNL     1      -7.473   8.771  70.035  1.00  0.00    -0.052 NA 
HETATM    4  OXT UNL     1      -5.398  11.078  68.247  1.00  0.00    -0.040 OA 
HETATM    5  H2  UNL     1      -7.778   7.798  70.028  1.00  0.00     0.000 HD 
HETATM    6  O   UNL     1      -7.347  11.390  69.414  1.00  0.00    -0.085 OA 
HETATM    7  H1  UNL     1      -6.878   8.993  70.833  1.00  0.00     0.000 HD 
ENDROOT
BRANCH   1   8
HETATM    8  C   UNL     1      -7.622   8.825  67.584  1.00  0.00    -0.097 C  
BRANCH   8   9
HETATM    9  C   UNL     1      -8.582   7.653  67.812  1.00  0.00    -0.121 C  
BRANCH   9  10
HETATM   10  S   UNL     1     -10.308   8.142  67.363  1.00  0.00    -0.290 S  
HETATM   11  C   UNL     1     -10.936   6.442  67.233  1.00  0.00    -0.392 C  
BRANCH  10  12
HETATM   12  C   UNL     1     -10.892   8.458  69.082  1.00  0.00    -0.023 C  
BRANCH  12  13
HETATM   13  C   UNL     1     -10.764   9.947  69.433  1.00  0.00    -0.232 C  
HETATM   14  O   UNL     1     -10.724  10.749  68.236  1.00  0.00    -0.184 OA 
HETATM   15  C   UNL     1     -11.042  12.079  68.639  1.00  0.00    -0.250 C  
HETATM   16  C   UNL     1     -12.153  11.923  69.682  1.00  0.00    -0.239 C  
HETATM   17  H   UNL     1     -12.433  10.844  72.118  1.00  0.00     0.000 HD 
HETATM   18  O   UNL     1     -12.054  12.890  70.736  1.00  0.00    -0.470 OA 
HETATM   19  C   UNL     1     -11.953  10.499  70.224  1.00  0.00    -0.325 C  
HETATM   20  O   UNL     1     -11.695  10.502  71.627  1.00  0.00    -0.096 OA 
HETATM   21  H   UNL     1     -12.742  12.793  71.383  1.00  0.00     0.000 HD 
BRANCH  15  22
HETATM   22  N   UNL     1     -11.371  12.870  67.471  1.00  0.00    -0.290 NA 
HETATM   23  C   UNL     1     -11.751  12.395  66.244  1.00  0.00    -0.395 A  
HETATM   24  C   UNL     1     -11.246  14.451  65.969  1.00  0.00    -0.333 A  
HETATM   25  N   UNL     1     -11.677  13.323  65.309  1.00  0.00    -0.318 NA 
HETATM   26  C   UNL     1     -10.919  15.744  65.527  1.00  0.00    -0.268 A  
HETATM   27  N   UNL     1     -10.587  16.677  66.449  1.00  0.00    -0.250 NA 
HETATM   28  N   UNL     1     -10.892  16.108  64.188  1.00  0.00    -0.856 NA 
HETATM   29  H2  UNL     1     -11.802  15.874  63.792  1.00  0.00     0.000 HD 
HETATM   30  C   UNL     1     -10.533  16.306  67.745  1.00  0.00    -0.295 A  
HETATM   31  H1  UNL     1     -10.654  17.047  63.867  1.00  0.00     0.000 HD 
HETATM   32  N   UNL     1     -10.736  15.083  68.281  1.00  0.00    -0.248 NA 
HETATM   33  C   UNL     1     -11.108  14.207  67.327  1.00  0.00    -0.305 A  
ENDBRANCH  15  22
ENDBRANCH  12  13
ENDBRANCH  10  12
ENDBRANCH   9  10
ENDBRANCH   8   9
ENDBRANCH   1   8
TORSDOF 6
ENDMDL
MODEL      160
REMARK 921   NORMALIZED FREE ENERGY PREDICTED BY IDOCK:   -4.67 KCAL/MOL
REMARK 922        TOTAL FREE ENERGY PREDICTED BY IDOCK:   -7.73 KCAL/MOL
REMARK 923 INTER-LIGAND FREE ENERGY PREDICTED BY IDOCK:   -7.26 KCAL/MOL
REMARK 924 INTRA-LIGAND FREE ENERGY PREDICTED BY IDOCK:   -0.47 KCAL/MOL
REMARK 927      BINDING AFFINITY PREDICTED BY RF-SCORE:    0.00 PKD
ROOT
HETATM    1  CA  UNL     1      -7.797  14.704  68.455  1.00  0.00    -0.133 C  
HETATM    2  C   UNL     1      -6.586  15.570  67.938  1.00  0.00    -0.158 C  
HETATM    3  N   UNL     1      -7.302  13.797  69.552  1.00  0.00    -0.322 NA 
HETATM    4  OXT UNL     1      -6.638  15.873  66.710  1.00  0.00    -0.254 OA 
HETATM    5  H2  UNL     1      -8.056  13.287  70.012  1.00  0.00     0.000 HD 
HETATM    6  O   UNL     1      -5.712  15.840  68.809  1.00  0.00    -0.098 OA 
HETATM    7  H1  UNL     1      -6.594  13.180  69.155  1.00  0.00     0.000 HD 
ENDROOT
BRANCH   1   8
HETATM    8  C   UNL     1      -8.858  15.628  69.049  1.00  0.00    -0.243 C  
BRANCH   8   9
HETATM    9  C   UNL     1     -10.258  15.456  68.451  1.00  0.00    -0.221 C  
BRANCH   9  10
HETATM   10  S   UNL     1     -11.045  13.912  69.094  1.00  0.00    -0.222 S  
HETATM   11  C   UNL     1     -12.175  14.761  70.236  1.00  0.00    -0.338 C  
BRANCH  10  12
HETATM   12  C   UNL     1     -12.249  13.698  67.716  1.00  0.00    -0.166 C  
BRANCH  12  13
HETATM   13  C   UNL     1     -11.519  13.591  66.370  1.00  0.00    -0.331 C  
HETATM   14  O   UNL     1     -10.527  12.546  66.412  1.00  0.00    -0.242 OA 
HETATM   15  C   UNL     1     -10.225  12.229  65.055  1.00  0.00    -0.285 C  
HETATM   16  C   UNL     1     -11.572  12.278  64.328  1.00  0.00    -0.371 C  
HETATM   17  H   UNL     1     -13.439  14.112  63.754  1.00  0.00     0.000 HD 
HETATM   18  O   UNL     1     -11.457  12.795  62.996  1.00  0.00    -0.780 OA 
HETATM   19  C   UNL     1     -12.432  13.204  65.202  1.00  0.00    -0.483 C  
HETATM   20  O   UNL     1     -12.873  14.351  64.478  1.00  0.00    -0.634 OA 
HETATM   21  H   UNL     1     -12.292  12.825  62.544  1.00  0.00     0.000 HD 
BRANCH  15  22
HETATM   22  N   UNL     1      -9.517  10.967  65.001  1.00  0.00    -0.225 NA 
HETATM   23  C   UNL     1      -8.832  10.461  63.928  1.00  0.00    -0.210 A  
HETATM   24  C   UNL     1      -9.088   8.847  65.301  1.00  0.00    -0.136 A  
HETATM   25  N   UNL     1      -8.566   9.177  64.072  1.00  0.00    -0.189 NA 
HETATM   26  C   UNL     1      -9.180   7.631  65.999  1.00  0.00    -0.063 A  
HETATM   27  N   UNL     1      -9.698   7.641  67.250  1.00  0.00    -0.157 NA 
HETATM   28  N   UNL     1      -8.792   6.412  65.462  1.00  0.00    -0.336 NA 
HETATM   29  H2  UNL     1      -7.825   6.511  65.153  1.00  0.00     0.000 HD 
HETATM   30  C   UNL     1     -10.152   8.811  67.745  1.00  0.00    -0.207 A  
HETATM   31  H1  UNL     1      -8.859   5.529  65.969  1.00  0.00     0.000 HD 
HETATM   32  N   UNL     1     -10.201  10.020  67.144  1.00  0.00    -0.215 NA 
HETATM   33  C   UNL     1      -9.631   9.961  65.923  1.00  0.00    -0.239 A  
ENDBRANCH  15  22
ENDBRANCH  12  13
ENDBRANCH  10  12
ENDBRANCH   9  10
ENDBRANCH   8   9
ENDBRANCH   1   8
TORSDOF 6
ENDMDL
MODEL      161
REMARK 921   NORMALIZED FREE ENERGY PREDICTED BY IDOCK:   -4.67 KCAL/MOL
REMARK 922        TOTAL FREE ENERGY PREDICTED BY IDOCK:   -7.72 KCAL/MOL
REMARK 923 INTER-LIGAND FREE ENERGY PREDICTED BY IDOCK:   -6.81 KCAL/MOL
REMARK 924 INTRA-LIGAND FREE ENERGY PREDICTED BY IDOCK:   -0.91 KCAL/MOL
REMARK 927      BINDING AFFINITY PREDICTED BY RF-SCORE:    0.00 PKD
ROOT
HETATM    1  CA  UNL     1     -10.177   5.196  65.707  1.00  0.00    -0.053 C  
HETATM    2  C   UNL     1      -8.935   4.351  65.229  1.00  0.00    -0.140 C  
HETATM    3  N   UNL     1     -11.431   4.532  65.197  1.00  0.00    -1.109 NA 
HETATM    4  OXT UNL     1      -7.889   5.028  65.007  1.00  0.00    -0.085 OA 
HETATM    5  H2  UNL     1     -12.281   4.961  65.563  1.00  0.00     0.000 HD 
HETATM    6  O   UNL     1      -9.143   3.111  65.116  1.00  0.00    -0.137 OA 
HETATM    7  H1  UNL     1     -11.396   4.533  64.178  1.00  0.00     0.000 HD 
ENDROOT
BRANCH   1   8
HETATM    8  C   UNL     1     -10.230   5.194  67.233  1.00  0.00    -0.239 C  
BRANCH   8   9
HETATM    9  C   UNL     1      -9.813   6.517  67.885  1.00  0.00    -0.123 C  
BRANCH   9  10
HETATM   10  S   UNL     1     -10.764   6.789  69.447  1.00  0.00    -0.272 S  
HETATM   11  C   UNL     1     -10.417   5.147  70.144  1.00  0.00    -0.235 C  
BRANCH  10  12
HETATM   12  C   UNL     1      -9.435   7.692  70.349  1.00  0.00    -0.164 C  
BRANCH  12  13
HETATM   13  C   UNL     1      -9.839   9.153  70.590  1.00  0.00    -0.249 C  
HETATM   14  O   UNL     1      -9.437   9.980  69.480  1.00  0.00    -0.204 OA 
HETATM   15  C   UNL     1     -10.209  11.175  69.575  1.00  0.00     0.083 C  
HETATM   16  C   UNL     1     -11.605  10.713  70.003  1.00  0.00    -0.325 C  
HETATM   17  H   UNL     1     -12.723   9.516  72.122  1.00  0.00     0.000 HD 
HETATM   18  O   UNL     1     -12.239  11.637  70.896  1.00  0.00    -0.364 OA 
HETATM   19  C   UNL     1     -11.352   9.366  70.697  1.00  0.00    -0.292 C  
HETATM   20  O   UNL     1     -11.785   9.384  72.056  1.00  0.00    -0.355 OA 
HETATM   21  H   UNL     1     -13.104  11.350  71.162  1.00  0.00     0.000 HD 
BRANCH  15  22
HETATM   22  N   UNL     1     -10.132  11.900  68.323  1.00  0.00    -0.199 NA 
HETATM   23  C   UNL     1      -9.413  11.539  67.215  1.00  0.00    -0.169 A  
HETATM   24  C   UNL     1      -9.972  13.581  66.939  1.00  0.00    -0.256 A  
HETATM   25  N   UNL     1      -9.287  12.536  66.360  1.00  0.00    -0.231 NA 
HETATM   26  C   UNL     1     -10.159  14.921  66.559  1.00  0.00    -0.271 A  
HETATM   27  N   UNL     1     -10.962  15.701  67.318  1.00  0.00    -0.302 NA 
HETATM   28  N   UNL     1      -9.542  15.494  65.456  1.00  0.00    -0.282 NA 
HETATM   29  H2  UNL     1      -9.767  14.915  64.647  1.00  0.00     0.000 HD 
HETATM   30  C   UNL     1     -11.500  15.170  68.436  1.00  0.00    -0.332 A  
HETATM   31  H1  UNL     1      -9.678  16.467  65.181  1.00  0.00     0.000 HD 
HETATM   32  N   UNL     1     -11.324  13.934  68.952  1.00  0.00    -0.265 NA 
HETATM   33  C   UNL     1     -10.557  13.188  68.133  1.00  0.00    -0.245 A  
ENDBRANCH  15  22
ENDBRANCH  12  13
ENDBRANCH  10  12
ENDBRANCH   9  10
ENDBRANCH   8   9
ENDBRANCH   1   8
TORSDOF 6
ENDMDL
MODEL      162
REMARK 921   NORMALIZED FREE ENERGY PREDICTED BY IDOCK:   -4.66 KCAL/MOL
REMARK 922        TOTAL FREE ENERGY PREDICTED BY IDOCK:   -7.72 KCAL/MOL
REMARK 923 INTER-LIGAND FREE ENERGY PREDICTED BY IDOCK:   -7.04 KCAL/MOL
REMARK 924 INTRA-LIGAND FREE ENERGY PREDICTED BY IDOCK:   -0.68 KCAL/MOL
REMARK 927      BINDING AFFINITY PREDICTED BY RF-SCORE:    0.00 PKD
ROOT
HETATM    1  CA  UNL     1     -10.398  10.999  64.791  1.00  0.00    -0.324 C  
HETATM    2  C   UNL     1     -10.191  11.977  63.573  1.00  0.00    -0.450 C  
HETATM    3  N   UNL     1      -9.988   9.612  64.365  1.00  0.00    -0.333 NA 
HETATM    4  OXT UNL     1     -11.013  12.939  63.521  1.00  0.00    -0.370 OA 
HETATM    5  H2  UNL     1      -9.988   8.946  65.137  1.00  0.00     0.000 HD 
HETATM    6  O   UNL     1      -9.241  11.673  62.798  1.00  0.00    -0.346 OA 
HETATM    7  H1  UNL     1     -10.595   9.326  63.597  1.00  0.00     0.000 HD 
ENDROOT
BRANCH   1   8
HETATM    8  C   UNL     1      -9.490  11.428  65.942  1.00  0.00    -0.251 C  
BRANCH   8   9
HETATM    9  C   UNL     1      -9.289  10.362  67.024  1.00  0.00    -0.154 C  
BRANCH   9  10
HETATM   10  S   UNL     1      -9.298  11.142  68.701  1.00  0.00    -0.160 S  
HETATM   11  C   UNL     1      -8.082  12.431  68.293  1.00  0.00    -0.166 C  
BRANCH  10  12
HETATM   12  C   UNL     1     -10.802  12.175  68.446  1.00  0.00    -0.224 C  
BRANCH  12  13
HETATM   13  C   UNL     1     -11.974  11.643  69.282  1.00  0.00    -0.317 C  
HETATM   14  O   UNL     1     -11.823  10.230  69.524  1.00  0.00    -0.184 OA 
HETATM   15  C   UNL     1     -12.672   9.923  70.628  1.00  0.00    -0.154 C  
HETATM   16  C   UNL     1     -12.519  11.108  71.587  1.00  0.00    -0.168 C  
HETATM   17  H   UNL     1     -13.049  13.734  71.577  1.00  0.00     0.000 HD 
HETATM   18  O   UNL     1     -13.745  11.433  72.255  1.00  0.00    -0.444 OA 
HETATM   19  C   UNL     1     -12.067  12.263  70.679  1.00  0.00    -0.237 C  
HETATM   20  O   UNL     1     -12.990  13.349  70.710  1.00  0.00    -0.188 OA 
HETATM   21  H   UNL     1     -13.650  12.168  72.850  1.00  0.00     0.000 HD 
BRANCH  15  22
HETATM   22  N   UNL     1     -12.320   8.623  71.160  1.00  0.00    -0.259 NA 
HETATM   23  C   UNL     1     -13.176   7.580  71.397  1.00  0.00    -0.316 A  
HETATM   24  C   UNL     1     -11.358   7.120  72.419  1.00  0.00    -0.274 A  
HETATM   25  N   UNL     1     -12.629   6.656  72.164  1.00  0.00    -0.204 NA 
HETATM   26  C   UNL     1     -10.309   6.627  73.213  1.00  0.00    -0.253 A  
HETATM   27  N   UNL     1      -9.127   7.287  73.203  1.00  0.00    -0.142 NA 
HETATM   28  N   UNL     1     -10.428   5.512  74.030  1.00  0.00    -0.275 NA 
HETATM   29  H2  UNL     1     -10.753   4.742  73.445  1.00  0.00     0.000 HD 
HETATM   30  C   UNL     1      -9.032   8.418  72.473  1.00  0.00    -0.238 A  
HETATM   31  H1  UNL     1      -9.666   5.155  74.606  1.00  0.00     0.000 HD 
HETATM   32  N   UNL     1      -9.987   9.036  71.746  1.00  0.00    -0.328 NA 
HETATM   33  C   UNL     1     -11.125   8.313  71.753  1.00  0.00    -0.278 A  
ENDBRANCH  15  22
ENDBRANCH  12  13
ENDBRANCH  10  12
ENDBRANCH   9  10
ENDBRANCH   8   9
ENDBRANCH   1   8
TORSDOF 6
ENDMDL
MODEL      163
REMARK 921   NORMALIZED FREE ENERGY PREDICTED BY IDOCK:   -4.66 KCAL/MOL
REMARK 922        TOTAL FREE ENERGY PREDICTED BY IDOCK:   -7.71 KCAL/MOL
REMARK 923 INTER-LIGAND FREE ENERGY PREDICTED BY IDOCK:   -6.97 KCAL/MOL
REMARK 924 INTRA-LIGAND FREE ENERGY PREDICTED BY IDOCK:   -0.74 KCAL/MOL
REMARK 927      BINDING AFFINITY PREDICTED BY RF-SCORE:    0.00 PKD
ROOT
HETATM    1  CA  UNL     1      -6.706  17.733  67.597  1.00  0.00    -0.183 C  
HETATM    2  C   UNL     1      -7.589  18.422  66.487  1.00  0.00    -0.240 C  
HETATM    3  N   UNL     1      -6.651  18.644  68.796  1.00  0.00    -0.255 NA 
HETATM    4  OXT UNL     1      -7.244  18.159  65.298  1.00  0.00    -0.461 OA 
HETATM    5  H2  UNL     1      -6.189  18.213  69.597  1.00  0.00     0.000 HD 
HETATM    6  O   UNL     1      -8.518  19.157  66.924  1.00  0.00    -0.276 OA 
HETATM    7  H1  UNL     1      -6.209  19.517  68.509  1.00  0.00     0.000 HD 
ENDROOT
BRANCH   1   8
HETATM    8  C   UNL     1      -7.366  16.425  68.026  1.00  0.00    -0.144 C  
BRANCH   8   9
HETATM    9  C   UNL     1      -8.232  16.534  69.285  1.00  0.00    -0.072 C  
BRANCH   9  10
HETATM   10  S   UNL     1      -9.726  15.454  69.130  1.00  0.00    -0.266 S  
HETATM   11  C   UNL     1     -10.922  16.823  69.118  1.00  0.00    -0.223 C  
BRANCH  10  12
HETATM   12  C   UNL     1      -9.636  15.229  67.304  1.00  0.00    -0.211 C  
BRANCH  12  13
HETATM   13  C   UNL     1      -9.665  13.738  66.940  1.00  0.00    -0.265 C  
HETATM   14  O   UNL     1      -9.681  12.925  68.130  1.00  0.00    -0.218 OA 
HETATM   15  C   UNL     1     -10.140  11.637  67.725  1.00  0.00    -0.187 C  
HETATM   16  C   UNL     1     -11.250  11.913  66.707  1.00  0.00    -0.327 C  
HETATM   17  H   UNL     1     -11.470  13.037  64.285  1.00  0.00     0.000 HD 
HETATM   18  O   UNL     1     -11.271  10.951  65.645  1.00  0.00     0.038 OA 
HETATM   19  C   UNL     1     -10.920  13.315  66.171  1.00  0.00    -0.279 C  
HETATM   20  O   UNL     1     -10.692  13.299  64.763  1.00  0.00    -0.333 OA 
HETATM   21  H   UNL     1     -11.959  11.122  65.013  1.00  0.00     0.000 HD 
BRANCH  15  22
HETATM   22  N   UNL     1     -10.522  10.872  68.894  1.00  0.00    -0.194 NA 
HETATM   23  C   UNL     1     -10.270   9.545  69.119  1.00  0.00    -0.201 A  
HETATM   24  C   UNL     1     -11.746  10.133  70.545  1.00  0.00    -0.322 A  
HETATM   25  N   UNL     1     -11.001   9.062  70.105  1.00  0.00    -0.238 NA 
HETATM   26  C   UNL     1     -12.747  10.257  71.523  1.00  0.00    -0.452 A  
HETATM   27  N   UNL     1     -13.251  11.486  71.780  1.00  0.00    -0.432 NA 
HETATM   28  N   UNL     1     -13.266   9.178  72.223  1.00  0.00    -0.439 NA 
HETATM   29  H2  UNL     1     -12.481   8.689  72.654  1.00  0.00     0.000 HD 
HETATM   30  C   UNL     1     -12.806  12.526  71.045  1.00  0.00    -0.157 A  
HETATM   31  H1  UNL     1     -13.993   9.268  72.933  1.00  0.00     0.000 HD 
HETATM   32  N   UNL     1     -11.920  12.522  70.025  1.00  0.00    -0.334 NA 
HETATM   33  C   UNL     1     -11.418  11.284  69.845  1.00  0.00    -0.293 A  
ENDBRANCH  15  22
ENDBRANCH  12  13
ENDBRANCH  10  12
ENDBRANCH   9  10
ENDBRANCH   8   9
ENDBRANCH   1   8
TORSDOF 6
ENDMDL
MODEL      164
REMARK 921   NORMALIZED FREE ENERGY PREDICTED BY IDOCK:   -4.65 KCAL/MOL
REMARK 922        TOTAL FREE ENERGY PREDICTED BY IDOCK:   -7.70 KCAL/MOL
REMARK 923 INTER-LIGAND FREE ENERGY PREDICTED BY IDOCK:   -7.57 KCAL/MOL
REMARK 924 INTRA-LIGAND FREE ENERGY PREDICTED BY IDOCK:   -0.13 KCAL/MOL
REMARK 927      BINDING AFFINITY PREDICTED BY RF-SCORE:    0.00 PKD
ROOT
HETATM    1  CA  UNL     1      -9.945  17.360  67.491  1.00  0.00    -0.298 C  
HETATM    2  C   UNL     1     -10.483  18.453  66.490  1.00  0.00    -0.381 C  
HETATM    3  N   UNL     1      -9.129  18.048  68.555  1.00  0.00    -0.288 NA 
HETATM    4  OXT UNL     1     -10.608  18.059  65.294  1.00  0.00    -0.615 OA 
HETATM    5  H2  UNL     1      -8.843  17.415  69.302  1.00  0.00     0.000 HD 
HETATM    6  O   UNL     1     -10.707  19.584  67.004  1.00  0.00    -0.467 OA 
HETATM    7  H1  UNL     1      -8.339  18.505  68.101  1.00  0.00     0.000 HD 
ENDROOT
BRANCH   1   8
HETATM    8  C   UNL     1     -11.128  16.675  68.171  1.00  0.00    -0.285 C  
BRANCH   8   9
HETATM    9  C   UNL     1     -10.894  16.313  69.640  1.00  0.00    -0.345 C  
BRANCH   9  10
HETATM   10  S   UNL     1     -10.985  14.480  69.871  1.00  0.00    -0.038 S  
HETATM   11  C   UNL     1     -12.414  14.523  70.994  1.00  0.00    -0.341 C  
BRANCH  10  12
HETATM   12  C   UNL     1     -11.929  14.119  68.331  1.00  0.00    -0.331 C  
BRANCH  12  13
HETATM   13  C   UNL     1     -11.061  13.345  67.331  1.00  0.00    -0.278 C  
HETATM   14  O   UNL     1     -10.634  12.089  67.896  1.00  0.00    -0.192 OA 
HETATM   15  C   UNL     1     -10.230  11.275  66.796  1.00  0.00    -0.226 C  
HETATM   16  C   UNL     1     -11.254  11.562  65.694  1.00  0.00    -0.148 C  
HETATM   17  H   UNL     1     -12.013  13.652  64.201  1.00  0.00     0.000 HD 
HETATM   18  O   UNL     1     -10.667  11.556  64.386  1.00  0.00    -0.306 OA 
HETATM   19  C   UNL     1     -11.797  12.955  66.046  1.00  0.00    -0.430 C  
HETATM   20  O   UNL     1     -11.557  13.893  64.998  1.00  0.00    -0.322 OA 
HETATM   21  H   UNL     1     -11.302  11.734  63.703  1.00  0.00     0.000 HD 
BRANCH  15  22
HETATM   22  N   UNL     1     -10.127   9.897  67.229  1.00  0.00    -0.199 NA 
HETATM   23  C   UNL     1     -10.330   8.783  66.459  1.00  0.00    -0.184 A  
HETATM   24  C   UNL     1     -10.341   8.128  68.491  1.00  0.00    -0.198 A  
HETATM   25  N   UNL     1     -10.474   7.695  67.191  1.00  0.00    -0.318 NA 
HETATM   26  C   UNL     1     -10.449   7.469  69.727  1.00  0.00    -0.230 A  
HETATM   27  N   UNL     1     -10.187   8.168  70.856  1.00  0.00    -0.188 NA 
HETATM   28  N   UNL     1     -10.836   6.143  69.854  1.00  0.00    -0.316 NA 
HETATM   29  H2  UNL     1     -10.212   5.587  69.268  1.00  0.00     0.000 HD 
HETATM   30  C   UNL     1      -9.888   9.479  70.743  1.00  0.00    -0.239 A  
HETATM   31  H1  UNL     1     -10.915   5.665  70.752  1.00  0.00     0.000 HD 
HETATM   32  N   UNL     1      -9.842  10.240  69.628  1.00  0.00    -0.224 NA 
HETATM   33  C   UNL     1     -10.063   9.485  68.534  1.00  0.00    -0.178 A  
ENDBRANCH  15  22
ENDBRANCH  12  13
ENDBRANCH  10  12
ENDBRANCH   9  10
ENDBRANCH   8   9
ENDBRANCH   1   8
TORSDOF 6
ENDMDL
MODEL      165
REMARK 921   NORMALIZED FREE ENERGY PREDICTED BY IDOCK:   -4.64 KCAL/MOL
REMARK 922        TOTAL FREE ENERGY PREDICTED BY IDOCK:   -7.69 KCAL/MOL
REMARK 923 INTER-LIGAND FREE ENERGY PREDICTED BY IDOCK:   -6.87 KCAL/MOL
REMARK 924 INTRA-LIGAND FREE ENERGY PREDICTED BY IDOCK:   -0.82 KCAL/MOL
REMARK 927      BINDING AFFINITY PREDICTED BY RF-SCORE:    0.00 PKD
ROOT
HETATM    1  CA  UNL     1      -9.547   7.970  70.676  1.00  0.00    -0.166 C  
HETATM    2  C   UNL     1     -11.013   7.449  70.928  1.00  0.00    -0.253 C  
HETATM    3  N   UNL     1      -8.920   7.128  69.595  1.00  0.00    -0.141 NA 
HETATM    4  OXT UNL     1     -11.420   7.571  72.121  1.00  0.00    -0.267 OA 
HETATM    5  H2  UNL     1      -8.010   7.479  69.299  1.00  0.00     0.000 HD 
HETATM    6  O   UNL     1     -11.590   6.967  69.915  1.00  0.00    -0.272 OA 
HETATM    7  H1  UNL     1      -8.882   6.164  69.927  1.00  0.00     0.000 HD 
ENDROOT
BRANCH   1   8
HETATM    8  C   UNL     1      -9.603   9.413  70.180  1.00  0.00    -0.275 C  
BRANCH   8   9
HETATM    9  C   UNL     1      -9.106   9.610  68.744  1.00  0.00    -0.134 C  
BRANCH   9  10
HETATM   10  S   UNL     1      -7.788  10.907  68.696  1.00  0.00    -0.133 S  
HETATM   11  C   UNL     1      -6.530   9.839  67.934  1.00  0.00    -0.060 C  
BRANCH  10  12
HETATM   12  C   UNL     1      -8.351  11.722  67.142  1.00  0.00    -0.168 C  
BRANCH  12  13
HETATM   13  C   UNL     1      -9.282  12.901  67.455  1.00  0.00    -0.192 C  
HETATM   14  O   UNL     1      -8.550  14.143  67.445  1.00  0.00    -0.186 OA 
HETATM   15  C   UNL     1      -9.522  15.176  67.306  1.00  0.00    -0.210 C  
HETATM   16  C   UNL     1     -10.543  14.628  66.305  1.00  0.00    -0.306 C  
HETATM   17  H   UNL     1     -12.297  12.607  66.183  1.00  0.00     0.000 HD 
HETATM   18  O   UNL     1     -11.884  15.033  66.612  1.00  0.00    -0.229 OA 
HETATM   19  C   UNL     1     -10.391  13.103  66.419  1.00  0.00    -0.287 C  
HETATM   20  O   UNL     1     -11.609  12.482  66.825  1.00  0.00    -0.342 OA 
HETATM   21  H   UNL     1     -12.517  14.693  65.991  1.00  0.00     0.000 HD 
BRANCH  15  22
HETATM   22  N   UNL     1      -8.863  16.411  66.934  1.00  0.00    -0.192 NA 
HETATM   23  C   UNL     1      -7.539  16.567  66.621  1.00  0.00    -0.275 A  
HETATM   24  C   UNL     1      -8.319  18.526  66.953  1.00  0.00    -0.263 A  
HETATM   25  N   UNL     1      -7.173  17.834  66.633  1.00  0.00    -0.202 NA 
HETATM   26  C   UNL     1      -8.575  19.890  67.177  1.00  0.00    -0.325 A  
HETATM   27  N   UNL     1      -9.850  20.278  67.410  1.00  0.00    -0.429 NA 
HETATM   28  N   UNL     1      -7.582  20.858  67.199  1.00  0.00    -0.540 NA 
HETATM   29  H2  UNL     1      -7.069  20.786  66.320  1.00  0.00     0.000 HD 
HETATM   30  C   UNL     1     -10.807  19.329  67.470  1.00  0.00    -0.415 A  
HETATM   31  H1  UNL     1      -7.768  21.848  67.362  1.00  0.00     0.000 HD 
HETATM   32  N   UNL     1     -10.675  17.989  67.362  1.00  0.00    -0.366 NA 
HETATM   33  C   UNL     1      -9.397  17.664  67.085  1.00  0.00    -0.245 A  
ENDBRANCH  15  22
ENDBRANCH  12  13
ENDBRANCH  10  12
ENDBRANCH   9  10
ENDBRANCH   8   9
ENDBRANCH   1   8
TORSDOF 6
ENDMDL
MODEL      166
REMARK 921   NORMALIZED FREE ENERGY PREDICTED BY IDOCK:   -4.64 KCAL/MOL
REMARK 922        TOTAL FREE ENERGY PREDICTED BY IDOCK:   -7.69 KCAL/MOL
REMARK 923 INTER-LIGAND FREE ENERGY PREDICTED BY IDOCK:   -6.94 KCAL/MOL
REMARK 924 INTRA-LIGAND FREE ENERGY PREDICTED BY IDOCK:   -0.75 KCAL/MOL
REMARK 927      BINDING AFFINITY PREDICTED BY RF-SCORE:    0.00 PKD
ROOT
HETATM    1  CA  UNL     1      -8.959   9.674  65.532  1.00  0.00    -0.183 C  
HETATM    2  C   UNL     1     -10.329  10.354  65.915  1.00  0.00    -0.190 C  
HETATM    3  N   UNL     1      -8.944   9.435  64.044  1.00  0.00    -0.387 NA 
HETATM    4  OXT UNL     1     -10.764  10.056  67.065  1.00  0.00    -0.234 OA 
HETATM    5  H2  UNL     1      -8.042   9.101  63.708  1.00  0.00     0.000 HD 
HETATM    6  O   UNL     1     -10.824  11.098  65.023  1.00  0.00    -0.261 OA 
HETATM    7  H1  UNL     1      -9.709   8.799  63.819  1.00  0.00     0.000 HD 
ENDROOT
BRANCH   1   8
HETATM    8  C   UNL     1      -7.814  10.626  65.869  1.00  0.00    -0.150 C  
BRANCH   8   9
HETATM    9  C   UNL     1      -7.187  10.403  67.249  1.00  0.00    -0.089 C  
BRANCH   9  10
HETATM   10  S   UNL     1      -7.863  11.621  68.465  1.00  0.00    -0.131 S  
HETATM   11  C   UNL     1      -6.408  11.596  69.554  1.00  0.00    -0.122 C  
BRANCH  10  12
HETATM   12  C   UNL     1      -7.402  13.137  67.523  1.00  0.00    -0.148 C  
BRANCH  12  13
HETATM   13  C   UNL     1      -8.651  13.949  67.158  1.00  0.00    -0.203 C  
HETATM   14  O   UNL     1      -9.745  13.621  68.038  1.00  0.00    -0.212 OA 
HETATM   15  C   UNL     1     -10.682  14.690  67.924  1.00  0.00    -0.250 C  
HETATM   16  C   UNL     1      -9.827  15.959  67.847  1.00  0.00    -0.218 C  
HETATM   17  H   UNL     1      -8.020  17.022  66.181  1.00  0.00     0.000 HD 
HETATM   18  O   UNL     1     -10.388  16.945  66.970  1.00  0.00    -0.306 OA 
HETATM   19  C   UNL     1      -8.473  15.462  67.318  1.00  0.00    -0.192 C  
HETATM   20  O   UNL     1      -8.130  16.084  66.082  1.00  0.00    -0.222 OA 
HETATM   21  H   UNL     1      -9.858  17.731  66.922  1.00  0.00     0.000 HD 
BRANCH  15  22
HETATM   22  N   UNL     1     -11.626  14.622  69.019  1.00  0.00    -0.282 NA 
HETATM   23  C   UNL     1     -12.054  15.668  69.794  1.00  0.00    -0.326 A  
HETATM   24  C   UNL     1     -12.630  13.882  70.812  1.00  0.00    -0.354 A  
HETATM   25  N   UNL     1     -12.657  15.256  70.892  1.00  0.00    -0.378 NA 
HETATM   26  C   UNL     1     -13.054  12.871  71.691  1.00  0.00    -0.335 A  
HETATM   27  N   UNL     1     -12.955  11.582  71.288  1.00  0.00    -0.358 NA 
HETATM   28  N   UNL     1     -13.547  13.122  72.963  1.00  0.00    -0.511 NA 
HETATM   29  H2  UNL     1     -14.319  13.781  72.864  1.00  0.00     0.000 HD 
HETATM   30  C   UNL     1     -12.401  11.329  70.084  1.00  0.00    -0.276 A  
HETATM   31  H1  UNL     1     -13.855  12.388  73.600  1.00  0.00     0.000 HD 
HETATM   32  N   UNL     1     -11.878  12.201  69.195  1.00  0.00    -0.312 NA 
HETATM   33  C   UNL     1     -12.047  13.468  69.625  1.00  0.00    -0.306 A  
ENDBRANCH  15  22
ENDBRANCH  12  13
ENDBRANCH  10  12
ENDBRANCH   9  10
ENDBRANCH   8   9
ENDBRANCH   1   8
TORSDOF 6
ENDMDL
MODEL      167
REMARK 921   NORMALIZED FREE ENERGY PREDICTED BY IDOCK:   -4.62 KCAL/MOL
REMARK 922        TOTAL FREE ENERGY PREDICTED BY IDOCK:   -7.66 KCAL/MOL
REMARK 923 INTER-LIGAND FREE ENERGY PREDICTED BY IDOCK:   -6.58 KCAL/MOL
REMARK 924 INTRA-LIGAND FREE ENERGY PREDICTED BY IDOCK:   -1.07 KCAL/MOL
REMARK 927      BINDING AFFINITY PREDICTED BY RF-SCORE:    0.00 PKD
ROOT
HETATM    1  CA  UNL     1     -10.551   7.522  69.848  1.00  0.00    -0.237 C  
HETATM    2  C   UNL     1     -10.313   6.176  70.632  1.00  0.00    -0.214 C  
HETATM    3  N   UNL     1     -10.990   8.576  70.832  1.00  0.00    -0.243 NA 
HETATM    4  OXT UNL     1     -10.564   5.126  69.971  1.00  0.00    -0.285 OA 
HETATM    5  H2  UNL     1     -11.054   9.504  70.413  1.00  0.00     0.000 HD 
HETATM    6  O   UNL     1      -9.914   6.314  71.822  1.00  0.00    -0.171 OA 
HETATM    7  H1  UNL     1     -11.868   8.271  71.251  1.00  0.00     0.000 HD 
ENDROOT
BRANCH   1   8
HETATM    8  C   UNL     1      -9.237   7.979  69.220  1.00  0.00    -0.152 C  
BRANCH   8   9
HETATM    9  C   UNL     1      -9.200   7.897  67.691  1.00  0.00    -0.136 C  
BRANCH   9  10
HETATM   10  S   UNL     1      -8.836   9.560  66.969  1.00  0.00    -0.128 S  
HETATM   11  C   UNL     1      -9.055   9.044  65.240  1.00  0.00    -0.167 C  
BRANCH  10  12
HETATM   12  C   UNL     1     -10.522  10.265  67.200  1.00  0.00    -0.254 C  
BRANCH  12  13
HETATM   13  C   UNL     1     -10.493  11.419  68.212  1.00  0.00    -0.198 C  
HETATM   14  O   UNL     1      -9.903  12.595  67.623  1.00  0.00    -0.202 OA 
HETATM   15  C   UNL     1     -10.305  13.693  68.440  1.00  0.00    -0.248 C  
HETATM   16  C   UNL     1     -11.764  13.401  68.805  1.00  0.00    -0.340 C  
HETATM   17  H   UNL     1     -13.119  11.547  70.183  1.00  0.00     0.000 HD 
HETATM   18  O   UNL     1     -12.089  13.821  70.137  1.00  0.00    -0.319 OA 
HETATM   19  C   UNL     1     -11.882  11.876  68.667  1.00  0.00    -0.308 C  
HETATM   20  O   UNL     1     -12.258  11.263  69.900  1.00  0.00    -0.299 OA 
HETATM   21  H   UNL     1     -12.993  13.640  70.364  1.00  0.00     0.000 HD 
BRANCH  15  22
HETATM   22  N   UNL     1     -10.060  14.934  67.735  1.00  0.00    -0.233 NA 
HETATM   23  C   UNL     1     -10.608  15.314  66.539  1.00  0.00    -0.304 A  
HETATM   24  C   UNL     1      -8.968  16.632  66.902  1.00  0.00    -0.222 A  
HETATM   25  N   UNL     1      -9.966  16.334  66.002  1.00  0.00    -0.325 NA 
HETATM   26  C   UNL     1      -7.921  17.568  66.884  1.00  0.00    -0.226 A  
HETATM   27  N   UNL     1      -7.128  17.671  67.975  1.00  0.00    -0.195 NA 
HETATM   28  N   UNL     1      -7.639  18.377  65.792  1.00  0.00    -0.526 NA 
HETATM   29  H2  UNL     1      -8.496  18.877  65.556  1.00  0.00     0.000 HD 
HETATM   30  C   UNL     1      -7.347  16.831  69.008  1.00  0.00    -0.231 A  
HETATM   31  H1  UNL     1      -6.878  19.056  65.779  1.00  0.00     0.000 HD 
HETATM   32  N   UNL     1      -8.257  15.837  69.108  1.00  0.00    -0.233 NA 
HETATM   33  C   UNL     1      -9.047  15.811  68.017  1.00  0.00    -0.187 A  
ENDBRANCH  15  22
ENDBRANCH  12  13
ENDBRANCH  10  12
ENDBRANCH   9  10
ENDBRANCH   8   9
ENDBRANCH   1   8
TORSDOF 6
ENDMDL
MODEL      168
REMARK 921   NORMALIZED FREE ENERGY PREDICTED BY IDOCK:   -4.61 KCAL/MOL
REMARK 922        TOTAL FREE ENERGY PREDICTED BY IDOCK:   -7.65 KCAL/MOL
REMARK 923 INTER-LIGAND FREE ENERGY PREDICTED BY IDOCK:   -7.03 KCAL/MOL
REMARK 924 INTRA-LIGAND FREE ENERGY PREDICTED BY IDOCK:   -0.62 KCAL/MOL
REMARK 927      BINDING AFFINITY PREDICTED BY RF-SCORE:    0.00 PKD
ROOT
HETATM    1  CA  UNL     1     -10.232   7.913  72.583  1.00  0.00    -0.296 C  
HETATM    2  C   UNL     1     -11.365   6.913  72.136  1.00  0.00    -0.265 C  
HETATM    3  N   UNL     1      -9.821   7.571  73.992  1.00  0.00    -0.399 NA 
HETATM    4  OXT UNL     1     -12.214   7.399  71.333  1.00  0.00    -0.311 OA 
HETATM    5  H2  UNL     1      -9.012   8.106  74.307  1.00  0.00     0.000 HD 
HETATM    6  O   UNL     1     -11.291   5.760  72.645  1.00  0.00    -0.282 OA 
HETATM    7  H1  UNL     1     -10.634   7.693  74.596  1.00  0.00     0.000 HD 
ENDROOT
BRANCH   1   8
HETATM    8  C   UNL     1      -9.015   7.731  71.678  1.00  0.00    -0.157 C  
BRANCH   8   9
HETATM    9  C   UNL     1      -9.192   6.678  70.580  1.00  0.00    -0.156 C  
BRANCH   9  10
HETATM   10  S   UNL     1      -8.478   7.288  68.987  1.00  0.00    -0.129 S  
HETATM   11  C   UNL     1      -7.812   5.677  68.473  1.00  0.00    -0.096 C  
BRANCH  10  12
HETATM   12  C   UNL     1     -10.038   7.199  68.009  1.00  0.00    -0.169 C  
BRANCH  12  13
HETATM   13  C   UNL     1     -10.316   8.536  67.308  1.00  0.00    -0.302 C  
HETATM   14  O   UNL     1     -11.030   9.429  68.185  1.00  0.00    -0.166 OA 
HETATM   15  C   UNL     1     -10.861  10.737  67.644  1.00  0.00    -0.279 C  
HETATM   16  C   UNL     1      -9.406  10.782  67.166  1.00  0.00    -0.155 C  
HETATM   17  H   UNL     1      -7.894   9.548  65.332  1.00  0.00     0.000 HD 
HETATM   18  O   UNL     1      -9.249  11.549  65.965  1.00  0.00    -0.214 OA 
HETATM   19  C   UNL     1      -9.050   9.307  66.926  1.00  0.00    -0.131 C  
HETATM   20  O   UNL     1      -8.679   9.070  65.569  1.00  0.00    -0.159 OA 
HETATM   21  H   UNL     1      -8.347  11.577  65.668  1.00  0.00     0.000 HD 
BRANCH  15  22
HETATM   22  N   UNL     1     -11.237  11.722  68.638  1.00  0.00    -0.234 NA 
HETATM   23  C   UNL     1     -11.901  11.484  69.812  1.00  0.00    -0.357 A  
HETATM   24  C   UNL     1     -11.981  13.592  69.485  1.00  0.00    -0.334 A  
HETATM   25  N   UNL     1     -12.373  12.593  70.347  1.00  0.00    -0.283 NA 
HETATM   26  C   UNL     1     -12.220  14.976  69.463  1.00  0.00    -0.232 A  
HETATM   27  N   UNL     1     -11.624  15.720  68.502  1.00  0.00    -0.377 NA 
HETATM   28  N   UNL     1     -13.057  15.620  70.363  1.00  0.00    -0.725 NA 
HETATM   29  H2  UNL     1     -12.733  15.383  71.301  1.00  0.00     0.000 HD 
HETATM   30  C   UNL     1     -10.874  15.086  67.576  1.00  0.00    -0.297 A  
HETATM   31  H1  UNL     1     -13.230  16.625  70.347  1.00  0.00     0.000 HD 
HETATM   32  N   UNL     1     -10.644  13.762  67.438  1.00  0.00    -0.259 NA 
HETATM   33  C   UNL     1     -11.220  13.078  68.446  1.00  0.00    -0.269 A  
ENDBRANCH  15  22
ENDBRANCH  12  13
ENDBRANCH  10  12
ENDBRANCH   9  10
ENDBRANCH   8   9
ENDBRANCH   1   8
TORSDOF 6
ENDMDL
MODEL      169
REMARK 921   NORMALIZED FREE ENERGY PREDICTED BY IDOCK:   -4.59 KCAL/MOL
REMARK 922        TOTAL FREE ENERGY PREDICTED BY IDOCK:   -7.62 KCAL/MOL
REMARK 923 INTER-LIGAND FREE ENERGY PREDICTED BY IDOCK:   -6.46 KCAL/MOL
REMARK 924 INTRA-LIGAND FREE ENERGY PREDICTED BY IDOCK:   -1.16 KCAL/MOL
REMARK 927      BINDING AFFINITY PREDICTED BY RF-SCORE:    0.00 PKD
ROOT
HETATM    1  CA  UNL     1      -8.162  13.686  67.138  1.00  0.00    -0.107 C  
HETATM    2  C   UNL     1      -7.182  12.468  67.339  1.00  0.00    -0.146 C  
HETATM    3  N   UNL     1      -9.402  13.191  66.438  1.00  0.00    -0.400 NA 
HETATM    4  OXT UNL     1      -5.953  12.767  67.304  1.00  0.00    -0.263 OA 
HETATM    5  H2  UNL     1     -10.130  13.903  66.375  1.00  0.00     0.000 HD 
HETATM    6  O   UNL     1      -7.745  11.349  67.497  1.00  0.00    -0.114 OA 
HETATM    7  H1  UNL     1      -9.125  12.828  65.526  1.00  0.00     0.000 HD 
ENDROOT
BRANCH   1   8
HETATM    8  C   UNL     1      -8.576  14.231  68.503  1.00  0.00    -0.175 C  
BRANCH   8   9
HETATM    9  C   UNL     1      -8.615  15.759  68.593  1.00  0.00    -0.194 C  
BRANCH   9  10
HETATM   10  S   UNL     1     -10.175  16.313  69.416  1.00  0.00    -0.254 S  
HETATM   11  C   UNL     1     -10.161  17.983  68.699  1.00  0.00    -0.394 C  
BRANCH  10  12
HETATM   12  C   UNL     1     -11.336  15.564  68.198  1.00  0.00    -0.345 C  
BRANCH  12  13
HETATM   13  C   UNL     1     -12.316  14.612  68.897  1.00  0.00    -0.034 C  
HETATM   14  O   UNL     1     -11.927  13.240  68.689  1.00  0.00    -0.339 OA 
HETATM   15  C   UNL     1     -12.596  12.480  69.693  1.00  0.00     0.384 C  
HETATM   16  C   UNL     1     -12.524  13.343  70.956  1.00  0.00    -0.353 C  
HETATM   17  H   UNL     1     -13.446  15.721  71.776  1.00  0.00     0.000 HD 
HETATM   18  O   UNL     1     -13.706  13.237  71.760  1.00  0.00    -0.341 OA 
HETATM   19  C   UNL     1     -12.353  14.772  70.419  1.00  0.00    -0.344 C  
HETATM   20  O   UNL     1     -13.423  15.621  70.831  1.00  0.00    -0.569 OA 
HETATM   21  H   UNL     1     -13.662  13.772  72.543  1.00  0.00     0.000 HD 
BRANCH  15  22
HETATM   22  N   UNL     1     -11.995  11.166  69.783  1.00  0.00    -0.329 NA 
HETATM   23  C   UNL     1     -11.682  10.489  70.933  1.00  0.00    -0.335 A  
HETATM   24  C   UNL     1     -10.668   9.488  69.343  1.00  0.00    -0.225 A  
HETATM   25  N   UNL     1     -10.872   9.473  70.704  1.00  0.00    -0.280 NA 
HETATM   26  C   UNL     1      -9.865   8.708  68.494  1.00  0.00    -0.169 A  
HETATM   27  N   UNL     1      -9.935   8.925  67.160  1.00  0.00    -0.204 NA 
HETATM   28  N   UNL     1      -8.982   7.741  68.954  1.00  0.00    -0.142 NA 
HETATM   29  H2  UNL     1      -9.515   7.100  69.542  1.00  0.00     0.000 HD 
HETATM   30  C   UNL     1     -10.731   9.918  66.713  1.00  0.00    -0.084 A  
HETATM   31  H1  UNL     1      -8.400   7.175  68.337  1.00  0.00     0.000 HD 
HETATM   32  N   UNL     1     -11.476  10.789  67.429  1.00  0.00    -0.460 NA 
HETATM   33  C   UNL     1     -11.406  10.497  68.743  1.00  0.00    -0.249 A  
ENDBRANCH  15  22
ENDBRANCH  12  13
ENDBRANCH  10  12
ENDBRANCH   9  10
ENDBRANCH   8   9
ENDBRANCH   1   8
TORSDOF 6
ENDMDL
MODEL      170
REMARK 921   NORMALIZED FREE ENERGY PREDICTED BY IDOCK:   -4.56 KCAL/MOL
REMARK 922        TOTAL FREE ENERGY PREDICTED BY IDOCK:   -7.57 KCAL/MOL
REMARK 923 INTER-LIGAND FREE ENERGY PREDICTED BY IDOCK:   -7.04 KCAL/MOL
REMARK 924 INTRA-LIGAND FREE ENERGY PREDICTED BY IDOCK:   -0.53 KCAL/MOL
REMARK 927      BINDING AFFINITY PREDICTED BY RF-SCORE:    0.00 PKD
ROOT
HETATM    1  CA  UNL     1      -9.381  15.894  66.548  1.00  0.00    -0.277 C  
HETATM    2  C   UNL     1      -9.332  17.462  66.706  1.00  0.00    -0.268 C  
HETATM    3  N   UNL     1      -7.970  15.366  66.588  1.00  0.00    -0.319 NA 
HETATM    4  OXT UNL     1     -10.248  18.085  66.094  1.00  0.00    -0.403 OA 
HETATM    5  H2  UNL     1      -7.932  14.347  66.605  1.00  0.00     0.000 HD 
HETATM    6  O   UNL     1      -8.379  17.899  67.410  1.00  0.00    -0.220 OA 
HETATM    7  H1  UNL     1      -7.460  15.767  65.801  1.00  0.00     0.000 HD 
ENDROOT
BRANCH   1   8
HETATM    8  C   UNL     1     -10.145  15.294  67.725  1.00  0.00    -0.230 C  
BRANCH   8   9
HETATM    9  C   UNL     1      -9.462  14.088  68.377  1.00  0.00    -0.213 C  
BRANCH   9  10
HETATM   10  S   UNL     1     -10.589  12.622  68.355  1.00  0.00    -0.246 S  
HETATM   11  C   UNL     1     -12.080  13.564  67.912  1.00  0.00    -0.269 C  
BRANCH  10  12
HETATM   12  C   UNL     1     -10.173  12.060  66.651  1.00  0.00    -0.204 C  
BRANCH  12  13
HETATM   13  C   UNL     1      -9.418  10.724  66.690  1.00  0.00    -0.175 C  
HETATM   14  O   UNL     1      -9.772   9.976  67.870  1.00  0.00    -0.144 OA 
HETATM   15  C   UNL     1      -9.391   8.626  67.613  1.00  0.00    -0.137 C  
HETATM   16  C   UNL     1      -9.758   8.383  66.147  1.00  0.00    -0.153 C  
HETATM   17  H   UNL     1      -9.022   9.317  63.747  1.00  0.00     0.000 HD 
HETATM   18  O   UNL     1      -8.817   7.531  65.480  1.00  0.00    -0.332 OA 
HETATM   19  C   UNL     1      -9.760   9.788  65.527  1.00  0.00    -0.312 C  
HETATM   20  O   UNL     1      -8.810   9.898  64.469  1.00  0.00    -0.175 OA 
HETATM   21  H   UNL     1      -9.045   7.380  64.571  1.00  0.00     0.000 HD 
BRANCH  15  22
HETATM   22  N   UNL     1     -10.023   7.755  68.583  1.00  0.00    -0.177 NA 
HETATM   23  C   UNL     1     -10.750   6.625  68.313  1.00  0.00    -0.257 A  
HETATM   24  C   UNL     1     -11.149   7.134  70.347  1.00  0.00    -0.280 A  
HETATM   25  N   UNL     1     -11.452   6.228  69.356  1.00  0.00    -0.394 NA 
HETATM   26  C   UNL     1     -11.613   7.292  71.664  1.00  0.00    -0.274 A  
HETATM   27  N   UNL     1     -11.059   8.258  72.433  1.00  0.00    -0.360 NA 
HETATM   28  N   UNL     1     -12.631   6.524  72.212  1.00  0.00    -0.554 NA 
HETATM   29  H2  UNL     1     -12.366   5.545  72.099  1.00  0.00     0.000 HD 
HETATM   30  C   UNL     1     -10.126   9.060  71.879  1.00  0.00    -0.253 A  
HETATM   31  H1  UNL     1     -12.967   6.639  73.168  1.00  0.00     0.000 HD 
HETATM   32  N   UNL     1      -9.665   9.067  70.609  1.00  0.00    -0.214 NA 
HETATM   33  C   UNL     1     -10.215   8.057  69.905  1.00  0.00    -0.204 A  
ENDBRANCH  15  22
ENDBRANCH  12  13
ENDBRANCH  10  12
ENDBRANCH   9  10
ENDBRANCH   8   9
ENDBRANCH   1   8
TORSDOF 6
ENDMDL
MODEL      171
REMARK 921   NORMALIZED FREE ENERGY PREDICTED BY IDOCK:   -4.55 KCAL/MOL
REMARK 922        TOTAL FREE ENERGY PREDICTED BY IDOCK:   -7.56 KCAL/MOL
REMARK 923 INTER-LIGAND FREE ENERGY PREDICTED BY IDOCK:   -7.37 KCAL/MOL
REMARK 924 INTRA-LIGAND FREE ENERGY PREDICTED BY IDOCK:   -0.20 KCAL/MOL
REMARK 927      BINDING AFFINITY PREDICTED BY RF-SCORE:    0.00 PKD
ROOT
HETATM    1  CA  UNL     1     -11.594  14.391  66.333  1.00  0.00    -0.375 C  
HETATM    2  C   UNL     1     -12.708  14.271  65.224  1.00  0.00    -0.343 C  
HETATM    3  N   UNL     1     -12.264  14.428  67.682  1.00  0.00    -0.623 NA 
HETATM    4  OXT UNL     1     -12.426  14.838  64.128  1.00  0.00    -0.758 OA 
HETATM    5  H2  UNL     1     -11.599  14.390  68.454  1.00  0.00     0.000 HD 
HETATM    6  O   UNL     1     -13.743  13.638  65.573  1.00  0.00    -0.234 OA 
HETATM    7  H1  UNL     1     -12.861  15.254  67.715  1.00  0.00     0.000 HD 
ENDROOT
BRANCH   1   8
HETATM    8  C   UNL     1     -10.699  13.154  66.283  1.00  0.00    -0.295 C  
BRANCH   8   9
HETATM    9  C   UNL     1     -11.351  11.877  66.822  1.00  0.00    -0.330 C  
BRANCH   9  10
HETATM   10  S   UNL     1     -10.228  11.049  68.036  1.00  0.00    -0.187 S  
HETATM   11  C   UNL     1      -9.180  12.507  68.319  1.00  0.00    -0.186 C  
BRANCH  10  12
HETATM   12  C   UNL     1     -11.310  11.270  69.510  1.00  0.00    -0.294 C  
BRANCH  12  13
HETATM   13  C   UNL     1     -11.710   9.910  70.099  1.00  0.00    -0.174 C  
HETATM   14  O   UNL     1     -10.606   8.985  70.034  1.00  0.00    -0.214 OA 
HETATM   15  C   UNL     1     -10.905   7.944  70.962  1.00  0.00    -0.235 C  
HETATM   16  C   UNL     1     -11.524   8.655  72.169  1.00  0.00    -0.373 C  
HETATM   17  H   UNL     1     -13.714  10.104  72.696  1.00  0.00     0.000 HD 
HETATM   18  O   UNL     1     -12.568   7.887  72.781  1.00  0.00    -0.567 OA 
HETATM   19  C   UNL     1     -12.076   9.964  71.585  1.00  0.00    -0.373 C  
HETATM   20  O   UNL     1     -13.486  10.071  71.774  1.00  0.00    -0.371 OA 
HETATM   21  H   UNL     1     -12.952   8.328  73.530  1.00  0.00     0.000 HD 
BRANCH  15  22
HETATM   22  N   UNL     1      -9.708   7.172  71.221  1.00  0.00    -0.170 NA 
HETATM   23  C   UNL     1      -9.368   5.975  70.647  1.00  0.00    -0.160 A  
HETATM   24  C   UNL     1      -8.085   6.224  72.335  1.00  0.00    -0.104 A  
HETATM   25  N   UNL     1      -8.396   5.370  71.301  1.00  0.00    -0.123 NA 
HETATM   26  C   UNL     1      -7.183   6.129  73.408  1.00  0.00    -0.088 A  
HETATM   27  N   UNL     1      -7.052   7.190  74.238  1.00  0.00    -0.087 NA 
HETATM   28  N   UNL     1      -6.438   4.990  73.679  1.00  0.00    -0.060 NA 
HETATM   29  H2  UNL     1      -5.924   4.756  72.829  1.00  0.00     0.000 HD 
HETATM   30  C   UNL     1      -7.834   8.269  74.026  1.00  0.00    -0.205 A  
HETATM   31  H1  UNL     1      -5.783   4.921  74.458  1.00  0.00     0.000 HD 
HETATM   32  N   UNL     1      -8.794   8.445  73.092  1.00  0.00    -0.316 NA 
HETATM   33  C   UNL     1      -8.848   7.380  72.267  1.00  0.00    -0.124 A  
ENDBRANCH  15  22
ENDBRANCH  12  13
ENDBRANCH  10  12
ENDBRANCH   9  10
ENDBRANCH   8   9
ENDBRANCH   1   8
TORSDOF 6
ENDMDL
MODEL      172
REMARK 921   NORMALIZED FREE ENERGY PREDICTED BY IDOCK:   -4.54 KCAL/MOL
REMARK 922        TOTAL FREE ENERGY PREDICTED BY IDOCK:   -7.56 KCAL/MOL
REMARK 923 INTER-LIGAND FREE ENERGY PREDICTED BY IDOCK:   -7.23 KCAL/MOL
REMARK 924 INTRA-LIGAND FREE ENERGY PREDICTED BY IDOCK:   -0.33 KCAL/MOL
REMARK 927      BINDING AFFINITY PREDICTED BY RF-SCORE:    0.00 PKD
ROOT
HETATM    1  CA  UNL     1      -8.959  18.495  67.812  1.00  0.00    -0.275 C  
HETATM    2  C   UNL     1      -9.097  19.507  66.611  1.00  0.00    -0.351 C  
HETATM    3  N   UNL     1     -10.022  18.817  68.831  1.00  0.00    -0.404 NA 
HETATM    4  OXT UNL     1      -8.006  19.800  66.038  1.00  0.00    -0.336 OA 
HETATM    5  H2  UNL     1     -10.065  18.131  69.585  1.00  0.00     0.000 HD 
HETATM    6  O   UNL     1     -10.272  19.906  66.380  1.00  0.00    -0.439 OA 
HETATM    7  H1  UNL     1      -9.857  19.765  69.170  1.00  0.00     0.000 HD 
ENDROOT
BRANCH   1   8
HETATM    8  C   UNL     1      -9.205  17.076  67.305  1.00  0.00    -0.225 C  
BRANCH   8   9
HETATM    9  C   UNL     1     -10.657  16.601  67.423  1.00  0.00    -0.295 C  
BRANCH   9  10
HETATM   10  S   UNL     1     -10.787  14.816  66.960  1.00  0.00    -0.322 S  
HETATM   11  C   UNL     1      -9.012  14.467  67.134  1.00  0.00    -0.232 C  
BRANCH  10  12
HETATM   12  C   UNL     1     -11.294  14.202  68.621  1.00  0.00    -0.277 C  
BRANCH  12  13
HETATM   13  C   UNL     1     -11.834  12.769  68.529  1.00  0.00    -0.306 C  
HETATM   14  O   UNL     1     -11.195  12.055  67.452  1.00  0.00    -0.268 OA 
HETATM   15  C   UNL     1     -11.414  10.669  67.709  1.00  0.00    -0.137 C  
HETATM   16  C   UNL     1     -11.252  10.516  69.224  1.00  0.00    -0.262 C  
HETATM   17  H   UNL     1     -12.485  11.386  71.437  1.00  0.00     0.000 HD 
HETATM   18  O   UNL     1     -12.155   9.550  69.777  1.00  0.00    -0.365 OA 
HETATM   19  C   UNL     1     -11.550  11.920  69.772  1.00  0.00    -0.286 C  
HETATM   20  O   UNL     1     -12.661  11.912  70.666  1.00  0.00    -0.268 OA 
HETATM   21  H   UNL     1     -12.055   9.455  70.716  1.00  0.00     0.000 HD 
BRANCH  15  22
HETATM   22  N   UNL     1     -10.519   9.879  66.888  1.00  0.00    -0.233 NA 
HETATM   23  C   UNL     1      -9.699   8.868  67.316  1.00  0.00    -0.181 A  
HETATM   24  C   UNL     1      -9.044   9.394  65.353  1.00  0.00    -0.226 A  
HETATM   25  N   UNL     1      -8.788   8.556  66.414  1.00  0.00    -0.141 NA 
HETATM   26  C   UNL     1      -8.396   9.594  64.122  1.00  0.00    -0.170 A  
HETATM   27  N   UNL     1      -8.943  10.460  63.237  1.00  0.00    -0.207 NA 
HETATM   28  N   UNL     1      -7.208   8.968  63.775  1.00  0.00    -0.095 NA 
HETATM   29  H2  UNL     1      -7.351   7.964  63.883  1.00  0.00     0.000 HD 
HETATM   30  C   UNL     1     -10.055  11.131  63.603  1.00  0.00    -0.379 A  
HETATM   31  H1  UNL     1      -6.738   9.113  62.882  1.00  0.00     0.000 HD 
HETATM   32  N   UNL     1     -10.715  11.094  64.781  1.00  0.00    -0.297 NA 
HETATM   33  C   UNL     1     -10.156  10.184  65.603  1.00  0.00    -0.254 A  
ENDBRANCH  15  22
ENDBRANCH  12  13
ENDBRANCH  10  12
ENDBRANCH   9  10
ENDBRANCH   8   9
ENDBRANCH   1   8
TORSDOF 6
ENDMDL
MODEL      173
REMARK 921   NORMALIZED FREE ENERGY PREDICTED BY IDOCK:   -4.48 KCAL/MOL
REMARK 922        TOTAL FREE ENERGY PREDICTED BY IDOCK:   -7.47 KCAL/MOL
REMARK 923 INTER-LIGAND FREE ENERGY PREDICTED BY IDOCK:   -7.27 KCAL/MOL
REMARK 924 INTRA-LIGAND FREE ENERGY PREDICTED BY IDOCK:   -0.20 KCAL/MOL
REMARK 927      BINDING AFFINITY PREDICTED BY RF-SCORE:    0.00 PKD
ROOT
HETATM    1  CA  UNL     1     -11.737  14.139  65.021  1.00  0.00    -0.376 C  
HETATM    2  C   UNL     1     -11.293  15.590  64.595  1.00  0.00    -0.357 C  
HETATM    3  N   UNL     1     -13.234  14.129  65.195  1.00  0.00    -0.646 NA 
HETATM    4  OXT UNL     1     -10.147  15.936  65.008  1.00  0.00    -0.444 OA 
HETATM    5  H2  UNL     1     -13.606  13.194  65.361  1.00  0.00     0.000 HD 
HETATM    6  O   UNL     1     -12.139  16.228  63.909  1.00  0.00    -0.986 OA 
HETATM    7  H1  UNL     1     -13.470  14.785  65.940  1.00  0.00     0.000 HD 
ENDROOT
BRANCH   1   8
HETATM    8  C   UNL     1     -11.384  13.157  63.907  1.00  0.00    -0.420 C  
BRANCH   8   9
HETATM    9  C   UNL     1     -10.044  12.439  64.094  1.00  0.00    -0.295 C  
BRANCH   9  10
HETATM   10  S   UNL     1     -10.315  10.623  64.312  1.00  0.00    -0.118 S  
HETATM   11  C   UNL     1      -8.917  10.117  63.267  1.00  0.00    -0.247 C  
BRANCH  10  12
HETATM   12  C   UNL     1      -9.443  10.472  65.928  1.00  0.00    -0.190 C  
BRANCH  12  13
HETATM   13  C   UNL     1     -10.388   9.921  67.005  1.00  0.00    -0.239 C  
HETATM   14  O   UNL     1      -9.721   8.921  67.801  1.00  0.00    -0.151 OA 
HETATM   15  C   UNL     1     -10.485   8.794  68.999  1.00  0.00    -0.203 C  
HETATM   16  C   UNL     1     -10.899  10.224  69.359  1.00  0.00    -0.245 C  
HETATM   17  H   UNL     1     -12.408  12.166  68.299  1.00  0.00     0.000 HD 
HETATM   18  O   UNL     1     -12.212  10.286  69.931  1.00  0.00    -0.466 OA 
HETATM   19  C   UNL     1     -10.849  10.972  68.018  1.00  0.00    -0.229 C  
HETATM   20  O   UNL     1     -12.122  11.514  67.670  1.00  0.00    -0.623 OA 
HETATM   21  H   UNL     1     -12.470  11.172  70.154  1.00  0.00     0.000 HD 
BRANCH  15  22
HETATM   22  N   UNL     1      -9.706   8.086  69.994  1.00  0.00    -0.172 NA 
HETATM   23  C   UNL     1      -9.799   8.225  71.353  1.00  0.00    -0.184 A  
HETATM   24  C   UNL     1      -7.978   7.177  70.972  1.00  0.00    -0.103 A  
HETATM   25  N   UNL     1      -8.764   7.695  71.977  1.00  0.00    -0.113 NA 
HETATM   26  C   UNL     1      -6.724   6.543  70.979  1.00  0.00    -0.055 A  
HETATM   27  N   UNL     1      -6.233   6.072  69.809  1.00  0.00    -0.026 NA 
HETATM   28  N   UNL     1      -5.949   6.397  72.120  1.00  0.00    -0.037 NA 
HETATM   29  H2  UNL     1      -6.526   5.933  72.821  1.00  0.00     0.000 HD 
HETATM   30  C   UNL     1      -6.947   6.283  68.684  1.00  0.00    -0.080 A  
HETATM   31  H1  UNL     1      -5.038   5.936  72.124  1.00  0.00     0.000 HD 
HETATM   32  N   UNL     1      -8.111   6.952  68.536  1.00  0.00    -0.119 NA 
HETATM   33  C   UNL     1      -8.576   7.356  69.735  1.00  0.00    -0.140 A  
ENDBRANCH  15  22
ENDBRANCH  12  13
ENDBRANCH  10  12
ENDBRANCH   9  10
ENDBRANCH   8   9
ENDBRANCH   1   8
TORSDOF 6
ENDMDL
MODEL      174
REMARK 921   NORMALIZED FREE ENERGY PREDICTED BY IDOCK:   -4.48 KCAL/MOL
REMARK 922        TOTAL FREE ENERGY PREDICTED BY IDOCK:   -7.47 KCAL/MOL
REMARK 923 INTER-LIGAND FREE ENERGY PREDICTED BY IDOCK:   -7.09 KCAL/MOL
REMARK 924 INTRA-LIGAND FREE ENERGY PREDICTED BY IDOCK:   -0.37 KCAL/MOL
REMARK 927      BINDING AFFINITY PREDICTED BY RF-SCORE:    0.00 PKD
ROOT
HETATM    1  CA  UNL     1      -9.104  19.009  68.695  1.00  0.00    -0.359 C  
HETATM    2  C   UNL     1      -8.895  19.763  67.326  1.00  0.00    -0.326 C  
HETATM    3  N   UNL     1     -10.350  19.546  69.351  1.00  0.00    -0.526 NA 
HETATM    4  OXT UNL     1      -7.686  19.918  66.986  1.00  0.00    -0.257 OA 
HETATM    5  H2  UNL     1     -10.610  19.025  70.188  1.00  0.00     0.000 HD 
HETATM    6  O   UNL     1      -9.958  20.129  66.750  1.00  0.00    -0.422 OA 
HETATM    7  H1  UNL     1     -10.208  20.539  69.533  1.00  0.00     0.000 HD 
ENDROOT
BRANCH   1   8
HETATM    8  C   UNL     1      -9.317  17.522  68.422  1.00  0.00    -0.287 C  
BRANCH   8   9
HETATM    9  C   UNL     1     -10.774  17.125  68.166  1.00  0.00    -0.366 C  
BRANCH   9  10
HETATM   10  S   UNL     1     -10.895  15.309  67.838  1.00  0.00    -0.297 S  
HETATM   11  C   UNL     1      -9.152  14.954  68.210  1.00  0.00    -0.179 C  
BRANCH  10  12
HETATM   12  C   UNL     1     -11.569  14.840  69.488  1.00  0.00    -0.304 C  
BRANCH  12  13
HETATM   13  C   UNL     1     -12.224  13.454  69.432  1.00  0.00    -0.195 C  
HETATM   14  O   UNL     1     -11.596  12.636  68.426  1.00  0.00    -0.283 OA 
HETATM   15  C   UNL     1     -11.946  11.288  68.734  1.00  0.00    -0.282 C  
HETATM   16  C   UNL     1     -11.873  11.199  70.261  1.00  0.00    -0.366 C  
HETATM   17  H   UNL     1     -13.136  12.278  72.362  1.00  0.00     0.000 HD 
HETATM   18  O   UNL     1     -12.882  10.340  70.808  1.00  0.00    -0.364 OA 
HETATM   19  C   UNL     1     -12.076  12.649  70.726  1.00  0.00    -0.146 C  
HETATM   20  O   UNL     1     -13.227  12.778  71.559  1.00  0.00    -0.346 OA 
HETATM   21  H   UNL     1     -12.837  10.284  71.755  1.00  0.00     0.000 HD 
BRANCH  15  22
HETATM   22  N   UNL     1     -11.082  10.386  68.000  1.00  0.00    -0.298 NA 
HETATM   23  C   UNL     1     -10.485  10.631  66.792  1.00  0.00    -0.247 A  
HETATM   24  C   UNL     1     -10.326   8.529  67.134  1.00  0.00    -0.307 A  
HETATM   25  N   UNL     1     -10.025   9.527  66.235  1.00  0.00    -0.268 NA 
HETATM   26  C   UNL     1     -10.153   7.135  67.100  1.00  0.00    -0.225 A  
HETATM   27  N   UNL     1     -10.493   6.415  68.194  1.00  0.00    -0.192 NA 
HETATM   28  N   UNL     1      -9.674   6.453  65.991  1.00  0.00    -0.391 NA 
HETATM   29  H2  UNL     1      -8.781   6.875  65.737  1.00  0.00     0.000 HD 
HETATM   30  C   UNL     1     -11.034   7.065  69.245  1.00  0.00    -0.178 A  
HETATM   31  H1  UNL     1      -9.549   5.441  65.967  1.00  0.00     0.000 HD 
HETATM   32  N   UNL     1     -11.332   8.378  69.364  1.00  0.00     0.240 NA 
HETATM   33  C   UNL     1     -10.930   9.051  68.268  1.00  0.00     0.082 A  
ENDBRANCH  15  22
ENDBRANCH  12  13
ENDBRANCH  10  12
ENDBRANCH   9  10
ENDBRANCH   8   9
ENDBRANCH   1   8
TORSDOF 6
ENDMDL
MODEL      175
REMARK 921   NORMALIZED FREE ENERGY PREDICTED BY IDOCK:   -4.48 KCAL/MOL
REMARK 922        TOTAL FREE ENERGY PREDICTED BY IDOCK:   -7.46 KCAL/MOL
REMARK 923 INTER-LIGAND FREE ENERGY PREDICTED BY IDOCK:   -6.48 KCAL/MOL
REMARK 924 INTRA-LIGAND FREE ENERGY PREDICTED BY IDOCK:   -0.98 KCAL/MOL
REMARK 927      BINDING AFFINITY PREDICTED BY RF-SCORE:    0.00 PKD
ROOT
HETATM    1  CA  UNL     1      -9.428   4.882  71.019  1.00  0.00    -0.164 C  
HETATM    2  C   UNL     1      -8.620   3.911  71.962  1.00  0.00    -0.099 C  
HETATM    3  N   UNL     1      -8.709   6.206  70.968  1.00  0.00    -0.131 NA 
HETATM    4  OXT UNL     1      -9.331   3.077  72.596  1.00  0.00    -0.095 OA 
HETATM    5  H2  UNL     1      -9.113   6.848  70.286  1.00  0.00     0.000 HD 
HETATM    6  O   UNL     1      -7.371   4.096  71.976  1.00  0.00    -0.060 OA 
HETATM    7  H1  UNL     1      -8.691   6.592  71.912  1.00  0.00     0.000 HD 
ENDROOT
BRANCH   1   8
HETATM    8  C   UNL     1      -9.454   4.304  69.606  1.00  0.00    -0.258 C  
BRANCH   8   9
HETATM    9  C   UNL     1     -10.458   4.976  68.663  1.00  0.00     0.043 C  
BRANCH   9  10
HETATM   10  S   UNL     1      -9.579   5.721  67.217  1.00  0.00    -0.124 S  
HETATM   11  C   UNL     1     -10.343   4.633  65.977  1.00  0.00    -0.284 C  
BRANCH  10  12
HETATM   12  C   UNL     1     -10.722   7.148  66.987  1.00  0.00    -0.350 C  
BRANCH  12  13
HETATM   13  C   UNL     1      -9.977   8.476  67.177  1.00  0.00    -0.238 C  
HETATM   14  O   UNL     1     -10.471   9.471  66.259  1.00  0.00    -0.192 OA 
HETATM   15  C   UNL     1     -10.061  10.733  66.781  1.00  0.00    -0.222 C  
HETATM   16  C   UNL     1     -10.247  10.613  68.297  1.00  0.00    -0.166 C  
HETATM   17  H   UNL     1      -9.224   9.161  70.301  1.00  0.00     0.000 HD 
HETATM   18  O   UNL     1      -9.231  11.311  69.029  1.00  0.00    -0.364 OA 
HETATM   19  C   UNL     1     -10.174   9.102  68.561  1.00  0.00    -0.198 C  
HETATM   20  O   UNL     1      -9.103   8.773  69.443  1.00  0.00    -0.143 OA 
HETATM   21  H   UNL     1      -9.346  11.237  69.969  1.00  0.00     0.000 HD 
BRANCH  15  22
HETATM   22  N   UNL     1     -10.806  11.789  66.128  1.00  0.00    -0.281 NA 
HETATM   23  C   UNL     1     -11.610  11.660  65.026  1.00  0.00    -0.062 A  
HETATM   24  C   UNL     1     -11.258  13.751  65.280  1.00  0.00    -0.307 A  
HETATM   25  N   UNL     1     -11.895  12.828  64.483  1.00  0.00    -0.356 NA 
HETATM   26  C   UNL     1     -11.127  15.148  65.200  1.00  0.00    -0.403 A  
HETATM   27  N   UNL     1     -10.484  15.795  66.199  1.00  0.00    -0.305 NA 
HETATM   28  N   UNL     1     -11.602  15.898  64.134  1.00  0.00    -0.964 NA 
HETATM   29  H2  UNL     1     -12.592  15.679  64.026  1.00  0.00     0.000 HD 
HETATM   30  C   UNL     1      -9.950  15.061  67.198  1.00  0.00    -0.237 A  
HETATM   31  H1  UNL     1     -11.507  16.912  64.075  1.00  0.00     0.000 HD 
HETATM   32  N   UNL     1      -9.931  13.718  67.341  1.00  0.00    -0.234 NA 
HETATM   33  C   UNL     1     -10.624  13.130  66.346  1.00  0.00    -0.286 A  
ENDBRANCH  15  22
ENDBRANCH  12  13
ENDBRANCH  10  12
ENDBRANCH   9  10
ENDBRANCH   8   9
ENDBRANCH   1   8
TORSDOF 6
ENDMDL
MODEL      176
REMARK 921   NORMALIZED FREE ENERGY PREDICTED BY IDOCK:   -4.47 KCAL/MOL
REMARK 922        TOTAL FREE ENERGY PREDICTED BY IDOCK:   -7.46 KCAL/MOL
REMARK 923 INTER-LIGAND FREE ENERGY PREDICTED BY IDOCK:   -7.33 KCAL/MOL
REMARK 924 INTRA-LIGAND FREE ENERGY PREDICTED BY IDOCK:   -0.13 KCAL/MOL
REMARK 927      BINDING AFFINITY PREDICTED BY RF-SCORE:    0.00 PKD
ROOT
HETATM    1  CA  UNL     1      -8.862   5.884  67.070  1.00  0.00    -0.112 C  
HETATM    2  C   UNL     1      -8.637   4.395  67.536  1.00  0.00    -0.103 C  
HETATM    3  N   UNL     1      -9.845   5.884  65.928  1.00  0.00    -0.379 NA 
HETATM    4  OXT UNL     1      -7.477   4.148  67.979  1.00  0.00    -0.066 OA 
HETATM    5  H2  UNL     1     -10.125   6.824  65.649  1.00  0.00     0.000 HD 
HETATM    6  O   UNL     1      -9.635   3.635  67.396  1.00  0.00    -0.208 OA 
HETATM    7  H1  UNL     1      -9.438   5.350  65.161  1.00  0.00     0.000 HD 
ENDROOT
BRANCH   1   8
HETATM    8  C   UNL     1      -9.471   6.684  68.219  1.00  0.00    -0.123 C  
BRANCH   8   9
HETATM    9  C   UNL     1      -8.733   6.543  69.554  1.00  0.00    -0.134 C  
BRANCH   9  10
HETATM   10  S   UNL     1      -9.943   6.431  70.947  1.00  0.00    -0.186 S  
HETATM   11  C   UNL     1      -9.198   7.770  71.925  1.00  0.00    -0.141 C  
BRANCH  10  12
HETATM   12  C   UNL     1     -11.264   7.447  70.161  1.00  0.00    -0.218 C  
BRANCH  12  13
HETATM   13  C   UNL     1     -11.403   8.800  70.871  1.00  0.00    -0.275 C  
HETATM   14  O   UNL     1     -11.055   9.878  69.980  1.00  0.00    -0.251 OA 
HETATM   15  C   UNL     1     -11.614  11.061  70.549  1.00  0.00    -0.245 C  
HETATM   16  C   UNL     1     -12.983  10.632  71.087  1.00  0.00    -0.387 C  
HETATM   17  H   UNL     1     -13.933   8.971  72.961  1.00  0.00     0.000 HD 
HETATM   18  O   UNL     1     -13.327  11.303  72.306  1.00  0.00    -0.625 OA 
HETATM   19  C   UNL     1     -12.832   9.120  71.318  1.00  0.00    -0.264 C  
HETATM   20  O   UNL     1     -13.046   8.772  72.684  1.00  0.00    -0.391 OA 
HETATM   21  H   UNL     1     -14.175  11.037  72.640  1.00  0.00     0.000 HD 
BRANCH  15  22
HETATM   22  N   UNL     1     -11.621  12.116  69.557  1.00  0.00    -0.312 NA 
HETATM   23  C   UNL     1     -12.046  13.405  69.740  1.00  0.00    -0.310 A  
HETATM   24  C   UNL     1     -11.885  13.112  67.632  1.00  0.00    -0.359 A  
HETATM   25  N   UNL     1     -12.226  14.034  68.595  1.00  0.00    -0.284 NA 
HETATM   26  C   UNL     1     -11.918  13.149  66.227  1.00  0.00    -0.415 A  
HETATM   27  N   UNL     1     -11.440  12.084  65.542  1.00  0.00    -0.338 NA 
HETATM   28  N   UNL     1     -12.439  14.211  65.504  1.00  0.00    -0.476 NA 
HETATM   29  H2  UNL     1     -11.961  15.056  65.818  1.00  0.00     0.000 HD 
HETATM   30  C   UNL     1     -11.006  11.015  66.242  1.00  0.00    -0.117 A  
HETATM   31  H1  UNL     1     -12.463  14.238  64.484  1.00  0.00     0.000 HD 
HETATM   32  N   UNL     1     -11.007  10.825  67.580  1.00  0.00    -0.294 NA 
HETATM   33  C   UNL     1     -11.447  11.931  68.211  1.00  0.00    -0.311 A  
ENDBRANCH  15  22
ENDBRANCH  12  13
ENDBRANCH  10  12
ENDBRANCH   9  10
ENDBRANCH   8   9
ENDBRANCH   1   8
TORSDOF 6
ENDMDL
MODEL      177
REMARK 921   NORMALIZED FREE ENERGY PREDICTED BY IDOCK:   -4.46 KCAL/MOL
REMARK 922        TOTAL FREE ENERGY PREDICTED BY IDOCK:   -7.45 KCAL/MOL
REMARK 923 INTER-LIGAND FREE ENERGY PREDICTED BY IDOCK:   -6.63 KCAL/MOL
REMARK 924 INTRA-LIGAND FREE ENERGY PREDICTED BY IDOCK:   -0.82 KCAL/MOL
REMARK 927      BINDING AFFINITY PREDICTED BY RF-SCORE:    0.00 PKD
ROOT
HETATM    1  CA  UNL     1      -6.493  10.547  67.599  1.00  0.00    -0.057 C  
HETATM    2  C   UNL     1      -6.337  10.055  69.088  1.00  0.00    -0.044 C  
HETATM    3  N   UNL     1      -5.523   9.778  66.738  1.00  0.00    -0.045 NA 
HETATM    4  OXT UNL     1      -6.555  10.943  69.964  1.00  0.00    -0.144 OA 
HETATM    5  H2  UNL     1      -5.647   9.963  65.743  1.00  0.00     0.000 HD 
HETATM    6  O   UNL     1      -6.003   8.845  69.220  1.00  0.00    -0.040 OA 
HETATM    7  H1  UNL     1      -4.579   9.986  67.064  1.00  0.00     0.000 HD 
ENDROOT
BRANCH   1   8
HETATM    8  C   UNL     1      -7.906  10.236  67.111  1.00  0.00    -0.110 C  
BRANCH   8   9
HETATM    9  C   UNL     1      -8.651  11.434  66.515  1.00  0.00    -0.175 C  
BRANCH   9  10
HETATM   10  S   UNL     1     -10.236  10.882  65.738  1.00  0.00    -0.252 S  
HETATM   11  C   UNL     1     -10.754   9.841  67.135  1.00  0.00    -0.202 C  
BRANCH  10  12
HETATM   12  C   UNL     1     -11.225  12.367  66.195  1.00  0.00    -0.322 C  
BRANCH  12  13
HETATM   13  C   UNL     1     -10.645  13.041  67.446  1.00  0.00    -0.234 C  
HETATM   14  O   UNL     1     -10.124  14.346  67.124  1.00  0.00    -0.249 OA 
HETATM   15  C   UNL     1     -10.019  15.048  68.361  1.00  0.00    -0.225 C  
HETATM   16  C   UNL     1     -11.274  14.656  69.147  1.00  0.00    -0.270 C  
HETATM   17  H   UNL     1     -12.324  12.430  70.204  1.00  0.00     0.000 HD 
HETATM   18  O   UNL     1     -11.024  14.534  70.553  1.00  0.00    -0.486 OA 
HETATM   19  C   UNL     1     -11.681  13.303  68.543  1.00  0.00    -0.352 C  
HETATM   20  O   UNL     1     -11.681  12.268  69.524  1.00  0.00    -0.302 OA 
HETATM   21  H   UNL     1     -11.801  14.290  71.040  1.00  0.00     0.000 HD 
BRANCH  15  22
HETATM   22  N   UNL     1      -9.847  16.462  68.099  1.00  0.00    -0.234 NA 
HETATM   23  C   UNL     1     -10.771  17.451  68.314  1.00  0.00    -0.327 A  
HETATM   24  C   UNL     1      -9.256  18.294  67.068  1.00  0.00    -0.274 A  
HETATM   25  N   UNL     1     -10.449  18.571  67.696  1.00  0.00    -0.405 NA 
HETATM   26  C   UNL     1      -8.437  19.048  66.210  1.00  0.00    -0.280 A  
HETATM   27  N   UNL     1      -7.262  18.513  65.804  1.00  0.00    -0.477 NA 
HETATM   28  N   UNL     1      -8.781  20.305  65.736  1.00  0.00    -0.493 NA 
HETATM   29  H2  UNL     1      -8.990  20.889  66.547  1.00  0.00     0.000 HD 
HETATM   30  C   UNL     1      -6.960  17.258  66.198  1.00  0.00    -0.216 A  
HETATM   31  H1  UNL     1      -8.186  20.852  65.114  1.00  0.00     0.000 HD 
HETATM   32  N   UNL     1      -7.699  16.406  66.941  1.00  0.00    -0.214 NA 
HETATM   33  C   UNL     1      -8.833  17.006  67.356  1.00  0.00    -0.203 A  
ENDBRANCH  15  22
ENDBRANCH  12  13
ENDBRANCH  10  12
ENDBRANCH   9  10
ENDBRANCH   8   9
ENDBRANCH   1   8
TORSDOF 6
ENDMDL
MODEL      178
REMARK 921   NORMALIZED FREE ENERGY PREDICTED BY IDOCK:   -4.46 KCAL/MOL
REMARK 922        TOTAL FREE ENERGY PREDICTED BY IDOCK:   -7.44 KCAL/MOL
REMARK 923 INTER-LIGAND FREE ENERGY PREDICTED BY IDOCK:   -6.85 KCAL/MOL
REMARK 924 INTRA-LIGAND FREE ENERGY PREDICTED BY IDOCK:   -0.59 KCAL/MOL
REMARK 927      BINDING AFFINITY PREDICTED BY RF-SCORE:    0.00 PKD
ROOT
HETATM    1  CA  UNL     1      -8.678  10.038  63.699  1.00  0.00    -0.218 C  
HETATM    2  C   UNL     1      -8.026   9.242  64.894  1.00  0.00    -0.121 C  
HETATM    3  N   UNL     1      -9.268   9.046  62.730  1.00  0.00    -0.490 NA 
HETATM    4  OXT UNL     1      -7.010   9.797  65.407  1.00  0.00    -0.094 OA 
HETATM    5  H2  UNL     1      -9.806   9.493  61.988  1.00  0.00     0.000 HD 
HETATM    6  O   UNL     1      -8.590   8.149  65.179  1.00  0.00    -0.147 OA 
HETATM    7  H1  UNL     1      -8.510   8.465  62.373  1.00  0.00     0.000 HD 
ENDROOT
BRANCH   1   8
HETATM    8  C   UNL     1      -9.812  10.909  64.234  1.00  0.00    -0.365 C  
BRANCH   8   9
HETATM    9  C   UNL     1      -9.961  12.262  63.531  1.00  0.00    -0.226 C  
BRANCH   9  10
HETATM   10  S   UNL     1     -11.063  13.376  64.512  1.00  0.00    -0.392 S  
HETATM   11  C   UNL     1     -12.334  13.533  63.223  1.00  0.00    -0.078 C  
BRANCH  10  12
HETATM   12  C   UNL     1     -11.898  12.050  65.480  1.00  0.00    -0.181 C  
BRANCH  12  13
HETATM   13  C   UNL     1     -12.030  12.455  66.955  1.00  0.00    -0.196 C  
HETATM   14  O   UNL     1     -12.123  11.288  67.795  1.00  0.00    -0.631 OA 
HETATM   15  C   UNL     1     -11.805  11.723  69.115  1.00  0.00    -0.326 C  
HETATM   16  C   UNL     1     -10.655  12.718  68.938  1.00  0.00    -0.122 C  
HETATM   17  H   UNL     1     -10.271  15.104  67.784  1.00  0.00     0.000 HD 
HETATM   18  O   UNL     1     -10.724  13.806  69.869  1.00  0.00    -0.402 OA 
HETATM   19  C   UNL     1     -10.818  13.219  67.495  1.00  0.00    -0.263 C  
HETATM   20  O   UNL     1     -11.023  14.630  67.448  1.00  0.00    -0.291 OA 
HETATM   21  H   UNL     1     -10.011  14.424  69.759  1.00  0.00     0.000 HD 
BRANCH  15  22
HETATM   22  N   UNL     1     -11.530  10.570  69.949  1.00  0.00    -0.286 NA 
HETATM   23  C   UNL     1     -12.170  10.233  71.112  1.00  0.00    -0.397 A  
HETATM   24  C   UNL     1     -10.390   9.056  71.034  1.00  0.00    -0.278 A  
HETATM   25  N   UNL     1     -11.502   9.326  71.799  1.00  0.00    -0.384 NA 
HETATM   26  C   UNL     1      -9.272   8.230  71.240  1.00  0.00    -0.163 A  
HETATM   27  N   UNL     1      -8.359   8.119  70.248  1.00  0.00    -0.122 NA 
HETATM   28  N   UNL     1      -9.041   7.541  72.422  1.00  0.00    -0.131 NA 
HETATM   29  H2  UNL     1      -9.871   6.980  72.613  1.00  0.00     0.000 HD 
HETATM   30  C   UNL     1      -8.538   8.851  69.128  1.00  0.00    -0.134 A  
HETATM   31  H1  UNL     1      -8.229   6.942  72.572  1.00  0.00     0.000 HD 
HETATM   32  N   UNL     1      -9.515   9.741  68.849  1.00  0.00    -0.155 NA 
HETATM   33  C   UNL     1     -10.418   9.776  69.849  1.00  0.00    -0.261 A  
ENDBRANCH  15  22
ENDBRANCH  12  13
ENDBRANCH  10  12
ENDBRANCH   9  10
ENDBRANCH   8   9
ENDBRANCH   1   8
TORSDOF 6
ENDMDL
MODEL      179
REMARK 921   NORMALIZED FREE ENERGY PREDICTED BY IDOCK:   -4.46 KCAL/MOL
REMARK 922        TOTAL FREE ENERGY PREDICTED BY IDOCK:   -7.44 KCAL/MOL
REMARK 923 INTER-LIGAND FREE ENERGY PREDICTED BY IDOCK:   -6.39 KCAL/MOL
REMARK 924 INTRA-LIGAND FREE ENERGY PREDICTED BY IDOCK:   -1.05 KCAL/MOL
REMARK 927      BINDING AFFINITY PREDICTED BY RF-SCORE:    0.00 PKD
ROOT
HETATM    1  CA  UNL     1      -7.029  17.916  68.655  1.00  0.00    -0.252 C  
HETATM    2  C   UNL     1      -6.813  16.482  69.274  1.00  0.00    -0.224 C  
HETATM    3  N   UNL     1      -5.958  18.832  69.188  1.00  0.00    -0.223 NA 
HETATM    4  OXT UNL     1      -7.876  15.820  69.458  1.00  0.00    -0.227 OA 
HETATM    5  H2  UNL     1      -5.967  19.750  68.742  1.00  0.00     0.000 HD 
HETATM    6  O   UNL     1      -5.612  16.181  69.520  1.00  0.00    -0.121 OA 
HETATM    7  H1  UNL     1      -6.063  18.885  70.201  1.00  0.00     0.000 HD 
ENDROOT
BRANCH   1   8
HETATM    8  C   UNL     1      -6.872  17.837  67.138  1.00  0.00    -0.196 C  
BRANCH   8   9
HETATM    9  C   UNL     1      -8.185  17.947  66.356  1.00  0.00    -0.255 C  
BRANCH   9  10
HETATM   10  S   UNL     1      -9.527  18.601  67.447  1.00  0.00    -0.302 S  
HETATM   11  C   UNL     1     -10.394  19.500  66.126  1.00  0.00    -0.520 C  
BRANCH  10  12
HETATM   12  C   UNL     1     -10.583  17.092  67.412  1.00  0.00    -0.289 C  
BRANCH  12  13
HETATM   13  C   UNL     1      -9.926  15.989  66.571  1.00  0.00    -0.279 C  
HETATM   14  O   UNL     1      -9.512  14.891  67.409  1.00  0.00    -0.201 OA 
HETATM   15  C   UNL     1      -9.330  13.775  66.540  1.00  0.00    -0.233 C  
HETATM   16  C   UNL     1     -10.480  13.866  65.532  1.00  0.00    -0.323 C  
HETATM   17  H   UNL     1     -11.296  15.551  63.617  1.00  0.00     0.000 HD 
HETATM   18  O   UNL     1     -10.090  13.448  64.218  1.00  0.00    -0.637 OA 
HETATM   19  C   UNL     1     -10.865  15.353  65.543  1.00  0.00    -0.374 C  
HETATM   20  O   UNL     1     -10.713  15.946  64.255  1.00  0.00    -0.276 OA 
HETATM   21  H   UNL     1     -10.802  13.505  63.592  1.00  0.00     0.000 HD 
BRANCH  15  22
HETATM   22  N   UNL     1      -9.264  12.560  67.325  1.00  0.00    -0.183 NA 
HETATM   23  C   UNL     1     -10.312  11.927  67.940  1.00  0.00    -0.198 A  
HETATM   24  C   UNL     1      -8.528  11.092  68.765  1.00  0.00    -0.134 A  
HETATM   25  N   UNL     1      -9.902  11.040  68.826  1.00  0.00    -0.197 NA 
HETATM   26  C   UNL     1      -7.519  10.439  69.493  1.00  0.00    -0.148 A  
HETATM   27  N   UNL     1      -6.229  10.652  69.143  1.00  0.00    -0.041 NA 
HETATM   28  N   UNL     1      -7.775   9.607  70.573  1.00  0.00    -0.227 NA 
HETATM   29  H2  UNL     1      -8.430   8.892  70.256  1.00  0.00     0.000 HD 
HETATM   30  C   UNL     1      -5.972  11.524  68.146  1.00  0.00    -0.045 A  
HETATM   31  H1  UNL     1      -7.042   9.133  71.102  1.00  0.00     0.000 HD 
HETATM   32  N   UNL     1      -6.843  12.275  67.436  1.00  0.00    -0.135 NA 
HETATM   33  C   UNL     1      -8.110  11.988  67.793  1.00  0.00    -0.149 A  
ENDBRANCH  15  22
ENDBRANCH  12  13
ENDBRANCH  10  12
ENDBRANCH   9  10
ENDBRANCH   8   9
ENDBRANCH   1   8
TORSDOF 6
ENDMDL
MODEL      180
REMARK 921   NORMALIZED FREE ENERGY PREDICTED BY IDOCK:   -4.45 KCAL/MOL
REMARK 922        TOTAL FREE ENERGY PREDICTED BY IDOCK:   -7.43 KCAL/MOL
REMARK 923 INTER-LIGAND FREE ENERGY PREDICTED BY IDOCK:   -6.26 KCAL/MOL
REMARK 924 INTRA-LIGAND FREE ENERGY PREDICTED BY IDOCK:   -1.17 KCAL/MOL
REMARK 927      BINDING AFFINITY PREDICTED BY RF-SCORE:    0.00 PKD
ROOT
HETATM    1  CA  UNL     1      -9.758  11.528  63.251  1.00  0.00    -0.385 C  
HETATM    2  C   UNL     1      -8.873  10.224  63.213  1.00  0.00    -0.222 C  
HETATM    3  N   UNL     1     -11.207  11.119  63.318  1.00  0.00    -0.769 NA 
HETATM    4  OXT UNL     1      -7.798  10.333  62.554  1.00  0.00    -0.132 OA 
HETATM    5  H2  UNL     1     -11.834  11.912  63.459  1.00  0.00     0.000 HD 
HETATM    6  O   UNL     1      -9.353   9.234  63.833  1.00  0.00     0.031 OA 
HETATM    7  H1  UNL     1     -11.425  10.589  62.474  1.00  0.00     0.000 HD 
ENDROOT
BRANCH   1   8
HETATM    8  C   UNL     1      -9.432  12.321  64.514  1.00  0.00     0.230 C  
BRANCH   8   9
HETATM    9  C   UNL     1      -9.965  13.757  64.517  1.00  0.00     0.173 C  
BRANCH   9  10
HETATM   10  S   UNL     1     -10.045  14.406  66.247  1.00  0.00    -0.309 S  
HETATM   11  C   UNL     1     -10.022  16.160  65.770  1.00  0.00    -0.340 C  
BRANCH  10  12
HETATM   12  C   UNL     1     -11.871  14.260  66.444  1.00  0.00    -0.411 C  
BRANCH  12  13
HETATM   13  C   UNL     1     -12.218  13.348  67.628  1.00  0.00    -0.159 C  
HETATM   14  O   UNL     1     -11.758  12.004  67.385  1.00  0.00    -0.470 OA 
HETATM   15  C   UNL     1     -11.720  11.360  68.657  1.00  0.00    -0.329 C  
HETATM   16  C   UNL     1     -11.189  12.423  69.624  1.00  0.00    -0.036 C  
HETATM   17  H   UNL     1     -11.976  14.804  70.564  1.00  0.00     0.000 HD 
HETATM   18  O   UNL     1     -11.797  12.338  70.919  1.00  0.00    -0.385 OA 
HETATM   19  C   UNL     1     -11.538  13.753  68.939  1.00  0.00    -0.319 C  
HETATM   20  O   UNL     1     -12.397  14.553  69.750  1.00  0.00    -0.316 OA 
HETATM   21  H   UNL     1     -11.468  12.997  71.518  1.00  0.00     0.000 HD 
BRANCH  15  22
HETATM   22  N   UNL     1     -10.944  10.142  68.558  1.00  0.00    -0.239 NA 
HETATM   23  C   UNL     1     -10.277   9.686  67.451  1.00  0.00    -0.227 A  
HETATM   24  C   UNL     1     -10.383   8.047  68.814  1.00  0.00    -0.206 A  
HETATM   25  N   UNL     1      -9.932   8.419  67.568  1.00  0.00    -0.184 NA 
HETATM   26  C   UNL     1     -10.376   6.820  69.501  1.00  0.00    -0.202 A  
HETATM   27  N   UNL     1     -10.840   6.789  70.771  1.00  0.00    -0.239 NA 
HETATM   28  N   UNL     1      -9.941   5.632  68.933  1.00  0.00    -0.152 NA 
HETATM   29  H2  UNL     1      -8.995   5.789  68.585  1.00  0.00     0.000 HD 
HETATM   30  C   UNL     1     -11.338   7.926  71.299  1.00  0.00    -0.260 A  
HETATM   31  H1  UNL     1      -9.936   4.741  69.431  1.00  0.00     0.000 HD 
HETATM   32  N   UNL     1     -11.482   9.136  70.715  1.00  0.00    -0.275 NA 
HETATM   33  C   UNL     1     -10.962   9.121  69.472  1.00  0.00    -0.123 A  
ENDBRANCH  15  22
ENDBRANCH  12  13
ENDBRANCH  10  12
ENDBRANCH   9  10
ENDBRANCH   8   9
ENDBRANCH   1   8
TORSDOF 6
ENDMDL
MODEL      181
REMARK 921   NORMALIZED FREE ENERGY PREDICTED BY IDOCK:   -4.44 KCAL/MOL
REMARK 922        TOTAL FREE ENERGY PREDICTED BY IDOCK:   -7.42 KCAL/MOL
REMARK 923 INTER-LIGAND FREE ENERGY PREDICTED BY IDOCK:   -6.55 KCAL/MOL
REMARK 924 INTRA-LIGAND FREE ENERGY PREDICTED BY IDOCK:   -0.87 KCAL/MOL
REMARK 927      BINDING AFFINITY PREDICTED BY RF-SCORE:    0.00 PKD
ROOT
HETATM    1  CA  UNL     1      -8.055  16.630  66.530  1.00  0.00    -0.302 C  
HETATM    2  C   UNL     1      -8.057  18.194  66.731  1.00  0.00    -0.246 C  
HETATM    3  N   UNL     1      -7.355  15.999  67.707  1.00  0.00    -0.130 NA 
HETATM    4  OXT UNL     1      -8.004  18.865  65.659  1.00  0.00    -0.439 OA 
HETATM    5  H2  UNL     1      -7.415  14.981  67.701  1.00  0.00     0.000 HD 
HETATM    6  O   UNL     1      -8.099  18.579  67.932  1.00  0.00    -0.247 OA 
HETATM    7  H1  UNL     1      -6.393  16.338  67.720  1.00  0.00     0.000 HD 
ENDROOT
BRANCH   1   8
HETATM    8  C   UNL     1      -9.495  16.124  66.509  1.00  0.00    -0.289 C  
BRANCH   8   9
HETATM    9  C   UNL     1      -9.658  14.654  66.908  1.00  0.00    -0.244 C  
BRANCH   9  10
HETATM   10  S   UNL     1     -11.367  14.068  66.514  1.00  0.00    -0.349 S  
HETATM   11  C   UNL     1     -11.241  14.373  64.727  1.00  0.00    -0.387 C  
BRANCH  10  12
HETATM   12  C   UNL     1     -10.966  12.270  66.455  1.00  0.00    -0.279 C  
BRANCH  12  13
HETATM   13  C   UNL     1      -9.892  11.920  67.494  1.00  0.00    -0.188 C  
HETATM   14  O   UNL     1     -10.474  11.208  68.604  1.00  0.00    -0.181 OA 
HETATM   15  C   UNL     1      -9.393  10.560  69.271  1.00  0.00    -0.160 C  
HETATM   16  C   UNL     1      -8.479  10.057  68.149  1.00  0.00    -0.114 C  
HETATM   17  H   UNL     1      -6.979  11.119  66.201  1.00  0.00     0.000 HD 
HETATM   18  O   UNL     1      -7.091  10.138  68.495  1.00  0.00    -0.072 OA 
HETATM   19  C   UNL     1      -8.805  10.980  66.965  1.00  0.00    -0.143 C  
HETATM   20  O   UNL     1      -7.654  11.702  66.529  1.00  0.00    -0.096 OA 
HETATM   21  H   UNL     1      -6.524   9.827  67.800  1.00  0.00     0.000 HD 
BRANCH  15  22
HETATM   22  N   UNL     1      -9.916   9.551  70.169  1.00  0.00    -0.225 NA 
HETATM   23  C   UNL     1     -11.233   9.216  70.342  1.00  0.00    -0.240 A  
HETATM   24  C   UNL     1     -10.167   8.355  71.979  1.00  0.00    -0.294 A  
HETATM   25  N   UNL     1     -11.422   8.501  71.434  1.00  0.00    -0.273 NA 
HETATM   26  C   UNL     1      -9.709   7.752  73.163  1.00  0.00    -0.285 A  
HETATM   27  N   UNL     1      -8.376   7.708  73.392  1.00  0.00    -0.140 NA 
HETATM   28  N   UNL     1     -10.556   7.221  74.125  1.00  0.00    -0.547 NA 
HETATM   29  H2  UNL     1     -11.162   6.548  73.657  1.00  0.00     0.000 HD 
HETATM   30  C   UNL     1      -7.553   8.295  72.498  1.00  0.00    -0.115 A  
HETATM   31  H1  UNL     1     -10.223   6.784  74.985  1.00  0.00     0.000 HD 
HETATM   32  N   UNL     1      -7.874   8.978  71.377  1.00  0.00    -0.310 NA 
HETATM   33  C   UNL     1      -9.206   8.949  71.175  1.00  0.00    -0.256 A  
ENDBRANCH  15  22
ENDBRANCH  12  13
ENDBRANCH  10  12
ENDBRANCH   9  10
ENDBRANCH   8   9
ENDBRANCH   1   8
TORSDOF 6
ENDMDL
MODEL      182
REMARK 921   NORMALIZED FREE ENERGY PREDICTED BY IDOCK:   -4.44 KCAL/MOL
REMARK 922        TOTAL FREE ENERGY PREDICTED BY IDOCK:   -7.42 KCAL/MOL
REMARK 923 INTER-LIGAND FREE ENERGY PREDICTED BY IDOCK:   -6.71 KCAL/MOL
REMARK 924 INTRA-LIGAND FREE ENERGY PREDICTED BY IDOCK:   -0.71 KCAL/MOL
REMARK 927      BINDING AFFINITY PREDICTED BY RF-SCORE:    0.00 PKD
ROOT
HETATM    1  CA  UNL     1      -6.463   5.937  68.425  1.00  0.00    -0.046 C  
HETATM    2  C   UNL     1      -7.198   5.040  69.494  1.00  0.00    -0.056 C  
HETATM    3  N   UNL     1      -6.812   5.424  67.051  1.00  0.00    -0.062 NA 
HETATM    4  OXT UNL     1      -6.574   4.900  70.586  1.00  0.00    -0.029 OA 
HETATM    5  H2  UNL     1      -6.462   6.026  66.306  1.00  0.00     0.000 HD 
HETATM    6  O   UNL     1      -8.307   4.565  69.121  1.00  0.00    -0.078 OA 
HETATM    7  H1  UNL     1      -6.472   4.466  66.976  1.00  0.00     0.000 HD 
ENDROOT
BRANCH   1   8
HETATM    8  C   UNL     1      -6.972   7.372  68.538  1.00  0.00    -0.079 C  
BRANCH   8   9
HETATM    9  C   UNL     1      -5.880   8.442  68.445  1.00  0.00    -0.041 C  
BRANCH   9  10
HETATM   10  S   UNL     1      -6.522  10.067  69.052  1.00  0.00    -0.045 S  
HETATM   11  C   UNL     1      -5.629  11.069  67.826  1.00  0.00    -0.039 C  
BRANCH  10  12
HETATM   12  C   UNL     1      -8.130  10.008  68.154  1.00  0.00    -0.108 C  
BRANCH  12  13
HETATM   13  C   UNL     1      -9.136  10.984  68.778  1.00  0.00    -0.157 C  
HETATM   14  O   UNL     1      -9.447  12.049  67.859  1.00  0.00    -0.183 OA 
HETATM   15  C   UNL     1     -10.664  12.630  68.321  1.00  0.00    -0.230 C  
HETATM   16  C   UNL     1     -11.519  11.446  68.781  1.00  0.00    -0.290 C  
HETATM   17  H   UNL     1     -11.409   9.548  70.667  1.00  0.00     0.000 HD 
HETATM   18  O   UNL     1     -12.312  11.758  69.933  1.00  0.00    -0.223 OA 
HETATM   19  C   UNL     1     -10.491  10.350  69.102  1.00  0.00    -0.227 C  
HETATM   20  O   UNL     1     -10.568   9.941  70.466  1.00  0.00    -0.285 OA 
HETATM   21  H   UNL     1     -12.842  11.023  70.219  1.00  0.00     0.000 HD 
BRANCH  15  22
HETATM   22  N   UNL     1     -11.230  13.458  67.276  1.00  0.00    -0.285 NA 
HETATM   23  C   UNL     1     -12.051  13.043  66.260  1.00  0.00    -0.386 A  
HETATM   24  C   UNL     1     -11.362  14.992  65.727  1.00  0.00    -0.279 A  
HETATM   25  N   UNL     1     -12.145  13.943  65.301  1.00  0.00    -0.387 NA 
HETATM   26  C   UNL     1     -11.006  16.215  65.133  1.00  0.00    -0.316 A  
HETATM   27  N   UNL     1     -10.261  17.088  65.850  1.00  0.00    -0.511 NA 
HETATM   28  N   UNL     1     -11.358  16.565  63.838  1.00  0.00    -1.559 NA 
HETATM   29  H2  UNL     1     -12.372  16.476  63.764  1.00  0.00     0.000 HD 
HETATM   30  C   UNL     1      -9.849  16.719  67.080  1.00  0.00    -0.259 A  
HETATM   31  H1  UNL     1     -11.100  17.453  63.407  1.00  0.00     0.000 HD 
HETATM   32  N   UNL     1     -10.047  15.546  67.720  1.00  0.00    -0.230 NA 
HETATM   33  C   UNL     1     -10.832  14.736  66.982  1.00  0.00    -0.315 A  
ENDBRANCH  15  22
ENDBRANCH  12  13
ENDBRANCH  10  12
ENDBRANCH   9  10
ENDBRANCH   8   9
ENDBRANCH   1   8
TORSDOF 6
ENDMDL
MODEL      183
REMARK 921   NORMALIZED FREE ENERGY PREDICTED BY IDOCK:   -4.43 KCAL/MOL
REMARK 922        TOTAL FREE ENERGY PREDICTED BY IDOCK:   -7.41 KCAL/MOL
REMARK 923 INTER-LIGAND FREE ENERGY PREDICTED BY IDOCK:   -6.44 KCAL/MOL
REMARK 924 INTRA-LIGAND FREE ENERGY PREDICTED BY IDOCK:   -0.97 KCAL/MOL
REMARK 927      BINDING AFFINITY PREDICTED BY RF-SCORE:    0.00 PKD
ROOT
HETATM    1  CA  UNL     1      -9.778   4.878  67.503  1.00  0.00    -0.164 C  
HETATM    2  C   UNL     1      -9.628   5.124  65.953  1.00  0.00    -0.148 C  
HETATM    3  N   UNL     1      -8.472   5.227  68.170  1.00  0.00    -0.097 NA 
HETATM    4  OXT UNL     1     -10.309   4.343  65.225  1.00  0.00    -0.242 OA 
HETATM    5  H2  UNL     1      -8.531   5.200  69.188  1.00  0.00     0.000 HD 
HETATM    6  O   UNL     1      -8.840   6.057  65.633  1.00  0.00    -0.156 OA 
HETATM    7  H1  UNL     1      -7.753   4.606  67.799  1.00  0.00     0.000 HD 
ENDROOT
BRANCH   1   8
HETATM    8  C   UNL     1     -10.856   5.806  68.057  1.00  0.00    -0.251 C  
BRANCH   8   9
HETATM    9  C   UNL     1     -10.570   6.343  69.463  1.00  0.00    -0.253 C  
BRANCH   9  10
HETATM   10  S   UNL     1     -11.870   7.560  69.961  1.00  0.00     0.361 S  
HETATM   11  C   UNL     1     -11.622   7.348  71.749  1.00  0.00    -0.272 C  
BRANCH  10  12
HETATM   12  C   UNL     1     -10.831   9.069  69.775  1.00  0.00    -0.205 C  
BRANCH  12  13
HETATM   13  C   UNL     1     -10.195   9.122  68.379  1.00  0.00    -0.200 C  
HETATM   14  O   UNL     1     -10.664  10.274  67.651  1.00  0.00    -0.246 OA 
HETATM   15  C   UNL     1      -9.731  10.482  66.593  1.00  0.00    -0.189 C  
HETATM   16  C   UNL     1      -8.359  10.201  67.213  1.00  0.00    -0.121 C  
HETATM   17  H   UNL     1      -7.070   8.112  68.284  1.00  0.00     0.000 HD 
HETATM   18  O   UNL     1      -7.462   9.567  66.292  1.00  0.00    -0.095 OA 
HETATM   19  C   UNL     1      -8.672   9.276  68.399  1.00  0.00    -0.129 C  
HETATM   20  O   UNL     1      -8.015   8.017  68.272  1.00  0.00    -0.123 OA 
HETATM   21  H   UNL     1      -6.611   9.392  66.677  1.00  0.00     0.000 HD 
BRANCH  15  22
HETATM   22  N   UNL     1      -9.921  11.806  66.037  1.00  0.00    -0.222 NA 
HETATM   23  C   UNL     1      -9.500  12.989  66.584  1.00  0.00    -0.256 A  
HETATM   24  C   UNL     1     -10.905  13.492  65.058  1.00  0.00    -0.340 A  
HETATM   25  N   UNL     1     -10.083  14.030  66.022  1.00  0.00    -0.305 NA 
HETATM   26  C   UNL     1     -11.826  14.067  64.166  1.00  0.00    -0.365 A  
HETATM   27  N   UNL     1     -12.444  13.264  63.269  1.00  0.00    -0.709 NA 
HETATM   28  N   UNL     1     -12.156  15.415  64.173  1.00  0.00    -0.860 NA 
HETATM   29  H2  UNL     1     -11.285  15.940  64.091  1.00  0.00     0.000 HD 
HETATM   30  C   UNL     1     -12.187  11.940  63.312  1.00  0.00    -0.374 A  
HETATM   31  H1  UNL     1     -12.825  15.832  63.525  1.00  0.00     0.000 HD 
HETATM   32  N   UNL     1     -11.398  11.261  64.173  1.00  0.00    -0.185 NA 
HETATM   33  C   UNL     1     -10.774  12.113  65.010  1.00  0.00    -0.297 A  
ENDBRANCH  15  22
ENDBRANCH  12  13
ENDBRANCH  10  12
ENDBRANCH   9  10
ENDBRANCH   8   9
ENDBRANCH   1   8
TORSDOF 6
ENDMDL
MODEL      184
REMARK 921   NORMALIZED FREE ENERGY PREDICTED BY IDOCK:   -4.43 KCAL/MOL
REMARK 922        TOTAL FREE ENERGY PREDICTED BY IDOCK:   -7.40 KCAL/MOL
REMARK 923 INTER-LIGAND FREE ENERGY PREDICTED BY IDOCK:   -7.09 KCAL/MOL
REMARK 924 INTRA-LIGAND FREE ENERGY PREDICTED BY IDOCK:   -0.30 KCAL/MOL
REMARK 927      BINDING AFFINITY PREDICTED BY RF-SCORE:    0.00 PKD
ROOT
HETATM    1  CA  UNL     1      -9.223   9.213  69.429  1.00  0.00    -0.156 C  
HETATM    2  C   UNL     1      -8.452   8.076  68.655  1.00  0.00    -0.128 C  
HETATM    3  N   UNL     1      -8.210  10.099  70.107  1.00  0.00    -0.342 NA 
HETATM    4  OXT UNL     1      -9.066   6.971  68.588  1.00  0.00    -0.134 OA 
HETATM    5  H2  UNL     1      -8.632  10.924  70.534  1.00  0.00     0.000 HD 
HETATM    6  O   UNL     1      -7.317   8.406  68.212  1.00  0.00    -0.091 OA 
HETATM    7  H1  UNL     1      -7.690   9.531  70.775  1.00  0.00     0.000 HD 
ENDROOT
BRANCH   1   8
HETATM    8  C   UNL     1     -10.001  10.063  68.428  1.00  0.00    -0.178 C  
BRANCH   8   9
HETATM    9  C   UNL     1      -9.975  11.568  68.717  1.00  0.00    -0.157 C  
BRANCH   9  10
HETATM   10  S   UNL     1     -11.697  12.239  68.777  1.00  0.00    -0.335 S  
HETATM   11  C   UNL     1     -12.134  11.441  70.350  1.00  0.00    -0.384 C  
BRANCH  10  12
HETATM   12  C   UNL     1     -11.258  13.883  69.483  1.00  0.00    -0.184 C  
BRANCH  12  13
HETATM   13  C   UNL     1     -11.326  14.973  68.404  1.00  0.00    -0.309 C  
HETATM   14  O   UNL     1     -10.815  16.221  68.911  1.00  0.00    -0.276 OA 
HETATM   15  C   UNL     1     -10.511  17.020  67.769  1.00  0.00    -0.349 C  
HETATM   16  C   UNL     1      -9.901  16.046  66.756  1.00  0.00    -0.250 C  
HETATM   17  H   UNL     1     -10.689  13.897  65.365  1.00  0.00     0.000 HD 
HETATM   18  O   UNL     1     -10.268  16.358  65.406  1.00  0.00    -0.546 OA 
HETATM   19  C   UNL     1     -10.462  14.678  67.174  1.00  0.00    -0.268 C  
HETATM   20  O   UNL     1     -11.224  14.080  66.128  1.00  0.00    -0.309 OA 
HETATM   21  H   UNL     1      -9.890  15.755  64.778  1.00  0.00     0.000 HD 
BRANCH  15  22
HETATM   22  N   UNL     1      -9.674  18.132  68.168  1.00  0.00    -0.309 NA 
HETATM   23  C   UNL     1      -9.871  19.453  67.859  1.00  0.00    -0.361 A  
HETATM   24  C   UNL     1      -7.869  19.289  68.583  1.00  0.00    -0.361 A  
HETATM   25  N   UNL     1      -8.794  20.180  68.089  1.00  0.00    -0.178 NA 
HETATM   26  C   UNL     1      -6.522  19.428  68.958  1.00  0.00    -0.299 A  
HETATM   27  N   UNL     1      -5.884  18.357  69.487  1.00  0.00    -0.238 NA 
HETATM   28  N   UNL     1      -5.801  20.601  68.791  1.00  0.00    -0.326 NA 
HETATM   29  H2  UNL     1      -6.323  21.346  69.253  1.00  0.00     0.000 HD 
HETATM   30  C   UNL     1      -6.558  17.192  69.576  1.00  0.00    -0.181 A  
HETATM   31  H1  UNL     1      -4.823  20.702  69.064  1.00  0.00     0.000 HD 
HETATM   32  N   UNL     1      -7.815  16.910  69.170  1.00  0.00    -0.177 NA 
HETATM   33  C   UNL     1      -8.416  18.020  68.697  1.00  0.00    -0.267 A  
ENDBRANCH  15  22
ENDBRANCH  12  13
ENDBRANCH  10  12
ENDBRANCH   9  10
ENDBRANCH   8   9
ENDBRANCH   1   8
TORSDOF 6
ENDMDL
MODEL      185
REMARK 921   NORMALIZED FREE ENERGY PREDICTED BY IDOCK:   -4.42 KCAL/MOL
REMARK 922        TOTAL FREE ENERGY PREDICTED BY IDOCK:   -7.40 KCAL/MOL
REMARK 923 INTER-LIGAND FREE ENERGY PREDICTED BY IDOCK:   -7.17 KCAL/MOL
REMARK 924 INTRA-LIGAND FREE ENERGY PREDICTED BY IDOCK:   -0.22 KCAL/MOL
REMARK 927      BINDING AFFINITY PREDICTED BY RF-SCORE:    0.00 PKD
ROOT
HETATM    1  CA  UNL     1     -10.080  16.747  67.162  1.00  0.00    -0.282 C  
HETATM    2  C   UNL     1     -10.335  18.159  67.816  1.00  0.00    -0.399 C  
HETATM    3  N   UNL     1      -8.817  16.170  67.749  1.00  0.00    -0.183 NA 
HETATM    4  OXT UNL     1     -10.904  18.998  67.058  1.00  0.00    -0.445 OA 
HETATM    5  H2  UNL     1      -8.651  15.208  67.456  1.00  0.00     0.000 HD 
HETATM    6  O   UNL     1      -9.929  18.278  69.005  1.00  0.00    -0.357 OA 
HETATM    7  H1  UNL     1      -8.046  16.794  67.512  1.00  0.00     0.000 HD 
ENDROOT
BRANCH   1   8
HETATM    8  C   UNL     1     -11.235  15.813  67.516  1.00  0.00    -0.218 C  
BRANCH   8   9
HETATM    9  C   UNL     1     -11.067  15.069  68.844  1.00  0.00    -0.266 C  
BRANCH   9  10
HETATM   10  S   UNL     1     -10.674  13.288  68.535  1.00  0.00    -0.263 S  
HETATM   11  C   UNL     1     -11.925  12.638  69.682  1.00  0.00    -0.286 C  
BRANCH  10  12
HETATM   12  C   UNL     1     -11.676  13.113  66.999  1.00  0.00    -0.377 C  
BRANCH  12  13
HETATM   13  C   UNL     1     -10.801  12.635  65.832  1.00  0.00    -0.270 C  
HETATM   14  O   UNL     1      -9.993  11.511  66.232  1.00  0.00    -0.208 OA 
HETATM   15  C   UNL     1      -9.568  10.879  65.026  1.00  0.00    -0.251 C  
HETATM   16  C   UNL     1     -10.785  10.936  64.098  1.00  0.00    -0.161 C  
HETATM   17  H   UNL     1     -12.261  12.819  62.894  1.00  0.00     0.000 HD 
HETATM   18  O   UNL     1     -10.419  11.140  62.727  1.00  0.00    -0.716 OA 
HETATM   19  C   UNL     1     -11.601  12.124  64.631  1.00  0.00    -0.328 C  
HETATM   20  O   UNL     1     -11.765  13.136  63.639  1.00  0.00    -0.458 OA 
HETATM   21  H   UNL     1     -11.174  11.176  62.151  1.00  0.00     0.000 HD 
BRANCH  15  22
HETATM   22  N   UNL     1      -9.058   9.557  65.329  1.00  0.00    -0.209 NA 
HETATM   23  C   UNL     1      -8.311   8.762  64.500  1.00  0.00    -0.162 A  
HETATM   24  C   UNL     1      -9.002   7.510  66.085  1.00  0.00    -0.153 A  
HETATM   25  N   UNL     1      -8.265   7.513  64.923  1.00  0.00    -0.116 NA 
HETATM   26  C   UNL     1      -9.376   6.484  66.971  1.00  0.00    -0.139 A  
HETATM   27  N   UNL     1     -10.060   6.815  68.090  1.00  0.00    -0.156 NA 
HETATM   28  N   UNL     1      -9.103   5.143  66.743  1.00  0.00    -0.116 NA 
HETATM   29  H2  UNL     1      -8.098   5.060  66.590  1.00  0.00     0.000 HD 
HETATM   30  C   UNL     1     -10.398   8.108  68.275  1.00  0.00    -0.197 A  
HETATM   31  H1  UNL     1      -9.375   4.399  67.386  1.00  0.00     0.000 HD 
HETATM   32  N   UNL     1     -10.177   9.163  67.461  1.00  0.00    -0.228 NA 
HETATM   33  C   UNL     1      -9.454   8.785  66.388  1.00  0.00    -0.228 A  
ENDBRANCH  15  22
ENDBRANCH  12  13
ENDBRANCH  10  12
ENDBRANCH   9  10
ENDBRANCH   8   9
ENDBRANCH   1   8
TORSDOF 6
ENDMDL
MODEL      186
REMARK 921   NORMALIZED FREE ENERGY PREDICTED BY IDOCK:   -4.42 KCAL/MOL
REMARK 922        TOTAL FREE ENERGY PREDICTED BY IDOCK:   -7.39 KCAL/MOL
REMARK 923 INTER-LIGAND FREE ENERGY PREDICTED BY IDOCK:   -6.35 KCAL/MOL
REMARK 924 INTRA-LIGAND FREE ENERGY PREDICTED BY IDOCK:   -1.03 KCAL/MOL
REMARK 927      BINDING AFFINITY PREDICTED BY RF-SCORE:    0.00 PKD
ROOT
HETATM    1  CA  UNL     1     -11.650   6.026  71.225  1.00  0.00    -0.116 C  
HETATM    2  C   UNL     1     -11.268   6.473  72.687  1.00  0.00    -0.249 C  
HETATM    3  N   UNL     1     -12.711   6.960  70.701  1.00  0.00    -0.520 NA 
HETATM    4  OXT UNL     1     -10.928   5.528  73.457  1.00  0.00    -0.284 OA 
HETATM    5  H2  UNL     1     -12.926   6.800  69.717  1.00  0.00     0.000 HD 
HETATM    6  O   UNL     1     -11.362   7.712  72.909  1.00  0.00    -0.369 OA 
HETATM    7  H1  UNL     1     -13.530   6.876  71.303  1.00  0.00     0.000 HD 
ENDROOT
BRANCH   1   8
HETATM    8  C   UNL     1     -10.424   6.150  70.324  1.00  0.00    -0.288 C  
BRANCH   8   9
HETATM    9  C   UNL     1     -10.629   5.637  68.895  1.00  0.00    -0.233 C  
BRANCH   9  10
HETATM   10  S   UNL     1      -8.998   5.279  68.101  1.00  0.00    -0.110 S  
HETATM   11  C   UNL     1      -9.391   3.556  67.679  1.00  0.00    -0.204 C  
BRANCH  10  12
HETATM   12  C   UNL     1      -9.400   6.003  66.455  1.00  0.00    -0.152 C  
BRANCH  12  13
HETATM   13  C   UNL     1      -8.773   7.396  66.308  1.00  0.00    -0.149 C  
HETATM   14  O   UNL     1      -9.755   8.422  66.547  1.00  0.00    -0.224 OA 
HETATM   15  C   UNL     1      -9.024   9.616  66.820  1.00  0.00    -0.138 C  
HETATM   16  C   UNL     1      -7.840   9.168  67.680  1.00  0.00    -0.096 C  
HETATM   17  H   UNL     1      -5.683   7.603  67.406  1.00  0.00     0.000 HD 
HETATM   18  O   UNL     1      -6.645   9.908  67.396  1.00  0.00    -0.068 OA 
HETATM   19  C   UNL     1      -7.663   7.684  67.323  1.00  0.00    -0.113 C  
HETATM   20  O   UNL     1      -6.371   7.424  66.777  1.00  0.00    -0.042 OA 
HETATM   21  H   UNL     1      -5.910   9.630  67.930  1.00  0.00     0.000 HD 
BRANCH  15  22
HETATM   22  N   UNL     1      -9.909  10.598  67.413  1.00  0.00    -0.167 NA 
HETATM   23  C   UNL     1     -11.182  10.380  67.867  1.00  0.00    -0.263 A  
HETATM   24  C   UNL     1     -10.942  12.496  67.726  1.00  0.00    -0.234 A  
HETATM   25  N   UNL     1     -11.840  11.507  68.058  1.00  0.00    -0.601 NA 
HETATM   26  C   UNL     1     -11.050  13.896  67.662  1.00  0.00    -0.277 A  
HETATM   27  N   UNL     1      -9.944  14.616  67.365  1.00  0.00    -0.230 NA 
HETATM   28  N   UNL     1     -12.241  14.579  67.863  1.00  0.00    -0.622 NA 
HETATM   29  H2  UNL     1     -12.608  14.288  68.769  1.00  0.00     0.000 HD 
HETATM   30  C   UNL     1      -8.802  13.952  67.089  1.00  0.00    -0.226 A  
HETATM   31  H1  UNL     1     -12.319  15.595  67.816  1.00  0.00     0.000 HD 
HETATM   32  N   UNL     1      -8.595  12.618  67.030  1.00  0.00    -0.196 NA 
HETATM   33  C   UNL     1      -9.714  11.953  67.380  1.00  0.00    -0.184 A  
ENDBRANCH  15  22
ENDBRANCH  12  13
ENDBRANCH  10  12
ENDBRANCH   9  10
ENDBRANCH   8   9
ENDBRANCH   1   8
TORSDOF 6
ENDMDL
MODEL      187
REMARK 921   NORMALIZED FREE ENERGY PREDICTED BY IDOCK:   -4.41 KCAL/MOL
REMARK 922        TOTAL FREE ENERGY PREDICTED BY IDOCK:   -7.38 KCAL/MOL
REMARK 923 INTER-LIGAND FREE ENERGY PREDICTED BY IDOCK:   -6.78 KCAL/MOL
REMARK 924 INTRA-LIGAND FREE ENERGY PREDICTED BY IDOCK:   -0.59 KCAL/MOL
REMARK 927      BINDING AFFINITY PREDICTED BY RF-SCORE:    0.00 PKD
ROOT
HETATM    1  CA  UNL     1     -12.268  12.864  64.471  1.00  0.00    -0.426 C  
HETATM    2  C   UNL     1     -11.822  14.072  65.381  1.00  0.00    -0.359 C  
HETATM    3  N   UNL     1     -11.913  13.187  63.042  1.00  0.00    -0.795 NA 
HETATM    4  OXT UNL     1     -12.553  14.267  66.396  1.00  0.00    -0.396 OA 
HETATM    5  H2  UNL     1     -12.070  12.401  62.410  1.00  0.00     0.000 HD 
HETATM    6  O   UNL     1     -10.804  14.698  64.976  1.00  0.00    -0.365 OA 
HETATM    7  H1  UNL     1     -12.431  14.022  62.769  1.00  0.00     0.000 HD 
ENDROOT
BRANCH   1   8
HETATM    8  C   UNL     1     -11.494  11.613  64.880  1.00  0.00    -0.205 C  
BRANCH   8   9
HETATM    9  C   UNL     1     -10.314  11.269  63.965  1.00  0.00    -0.371 C  
BRANCH   9  10
HETATM   10  S   UNL     1      -8.944  10.507  64.946  1.00  0.00    -0.208 S  
HETATM   11  C   UNL     1      -8.951  11.769  66.254  1.00  0.00    -0.176 C  
BRANCH  10  12
HETATM   12  C   UNL     1      -9.982   9.269  65.833  1.00  0.00    -0.219 C  
BRANCH  12  13
HETATM   13  C   UNL     1      -9.102   8.233  66.545  1.00  0.00    -0.178 C  
HETATM   14  O   UNL     1      -8.924   8.586  67.931  1.00  0.00    -0.136 OA 
HETATM   15  C   UNL     1      -8.492   7.398  68.591  1.00  0.00    -0.129 C  
HETATM   16  C   UNL     1      -9.317   6.273  67.961  1.00  0.00    -0.114 C  
HETATM   17  H   UNL     1      -9.591   5.141  65.549  1.00  0.00     0.000 HD 
HETATM   18  O   UNL     1      -8.571   5.056  67.827  1.00  0.00    -0.104 OA 
HETATM   19  C   UNL     1      -9.711   6.829  66.584  1.00  0.00    -0.158 C  
HETATM   20  O   UNL     1      -9.214   6.012  65.525  1.00  0.00    -0.043 OA 
HETATM   21  H   UNL     1      -9.083   4.357  67.436  1.00  0.00     0.000 HD 
BRANCH  15  22
HETATM   22  N   UNL     1      -8.629   7.565  70.023  1.00  0.00    -0.138 NA 
HETATM   23  C   UNL     1      -7.753   7.133  70.983  1.00  0.00    -0.090 A  
HETATM   24  C   UNL     1      -9.567   7.629  71.995  1.00  0.00    -0.157 A  
HETATM   25  N   UNL     1      -8.291   7.149  72.187  1.00  0.00    -0.103 NA 
HETATM   26  C   UNL     1     -10.650   7.824  72.867  1.00  0.00    -0.366 A  
HETATM   27  N   UNL     1     -11.778   8.393  72.380  1.00  0.00    -0.386 NA 
HETATM   28  N   UNL     1     -10.635   7.440  74.200  1.00  0.00    -0.485 NA 
HETATM   29  H2  UNL     1      -9.818   7.871  74.631  1.00  0.00     0.000 HD 
HETATM   30  C   UNL     1     -11.826   8.694  71.066  1.00  0.00    -0.265 A  
HETATM   31  H1  UNL     1     -11.422   7.581  74.834  1.00  0.00     0.000 HD 
HETATM   32  N   UNL     1     -10.892   8.474  70.115  1.00  0.00    -0.236 NA 
HETATM   33  C   UNL     1      -9.777   7.952  70.663  1.00  0.00    -0.173 A  
ENDBRANCH  15  22
ENDBRANCH  12  13
ENDBRANCH  10  12
ENDBRANCH   9  10
ENDBRANCH   8   9
ENDBRANCH   1   8
TORSDOF 6
ENDMDL
MODEL      188
REMARK 921   NORMALIZED FREE ENERGY PREDICTED BY IDOCK:   -4.41 KCAL/MOL
REMARK 922        TOTAL FREE ENERGY PREDICTED BY IDOCK:   -7.38 KCAL/MOL
REMARK 923 INTER-LIGAND FREE ENERGY PREDICTED BY IDOCK:   -6.54 KCAL/MOL
REMARK 924 INTRA-LIGAND FREE ENERGY PREDICTED BY IDOCK:   -0.83 KCAL/MOL
REMARK 927      BINDING AFFINITY PREDICTED BY RF-SCORE:    0.00 PKD
ROOT
HETATM    1  CA  UNL     1     -12.436  12.773  64.504  1.00  0.00    -0.428 C  
HETATM    2  C   UNL     1     -12.039  14.045  65.346  1.00  0.00    -0.401 C  
HETATM    3  N   UNL     1     -12.154  13.054  63.051  1.00  0.00    -0.804 NA 
HETATM    4  OXT UNL     1     -12.745  14.237  66.379  1.00  0.00    -0.314 OA 
HETATM    5  H2  UNL     1     -12.280  12.234  62.459  1.00  0.00     0.000 HD 
HETATM    6  O   UNL     1     -11.078  14.717  64.877  1.00  0.00    -0.374 OA 
HETATM    7  H1  UNL     1     -12.734  13.842  62.763  1.00  0.00     0.000 HD 
ENDROOT
BRANCH   1   8
HETATM    8  C   UNL     1     -11.568  11.593  64.935  1.00  0.00    -0.155 C  
BRANCH   8   9
HETATM    9  C   UNL     1     -10.166  11.578  64.318  1.00  0.00    -0.311 C  
BRANCH   9  10
HETATM   10  S   UNL     1      -8.954  10.830  65.499  1.00  0.00    -0.195 S  
HETATM   11  C   UNL     1      -9.038  12.186  66.707  1.00  0.00    -0.205 C  
BRANCH  10  12
HETATM   12  C   UNL     1     -10.148   9.711  66.346  1.00  0.00    -0.247 C  
BRANCH  12  13
HETATM   13  C   UNL     1      -9.409   8.575  67.066  1.00  0.00    -0.161 C  
HETATM   14  O   UNL     1      -9.998   8.325  68.358  1.00  0.00    -0.178 OA 
HETATM   15  C   UNL     1      -9.562   7.024  68.748  1.00  0.00    -0.139 C  
HETATM   16  C   UNL     1      -9.611   6.188  67.466  1.00  0.00    -0.112 C  
HETATM   17  H   UNL     1      -8.392   6.162  65.081  1.00  0.00     0.000 HD 
HETATM   18  O   UNL     1      -8.545   5.233  67.394  1.00  0.00    -0.106 OA 
HETATM   19  C   UNL     1      -9.492   7.228  66.341  1.00  0.00    -0.127 C  
HETATM   20  O   UNL     1      -8.341   6.997  65.531  1.00  0.00    -0.135 OA 
HETATM   21  H   UNL     1      -8.574   4.714  66.599  1.00  0.00     0.000 HD 
BRANCH  15  22
HETATM   22  N   UNL     1     -10.377   6.553  69.849  1.00  0.00    -0.183 NA 
HETATM   23  C   UNL     1     -11.399   7.233  70.457  1.00  0.00    -0.280 A  
HETATM   24  C   UNL     1     -10.906   5.601  71.741  1.00  0.00    -0.239 A  
HETATM   25  N   UNL     1     -11.738   6.690  71.610  1.00  0.00    -0.300 NA 
HETATM   26  C   UNL     1     -10.732   4.656  72.767  1.00  0.00    -0.204 A  
HETATM   27  N   UNL     1      -9.865   3.637  72.566  1.00  0.00    -0.146 NA 
HETATM   28  N   UNL     1     -11.384   4.729  73.990  1.00  0.00    -0.318 NA 
HETATM   29  H2  UNL     1     -12.384   4.786  73.797  1.00  0.00     0.000 HD 
HETATM   30  C   UNL     1      -9.169   3.607  71.411  1.00  0.00    -0.127 A  
HETATM   31  H1  UNL     1     -11.257   4.044  74.734  1.00  0.00     0.000 HD 
HETATM   32  N   UNL     1      -9.181   4.497  70.395  1.00  0.00    -0.117 NA 
HETATM   33  C   UNL     1     -10.093   5.462  70.627  1.00  0.00    -0.231 A  
ENDBRANCH  15  22
ENDBRANCH  12  13
ENDBRANCH  10  12
ENDBRANCH   9  10
ENDBRANCH   8   9
ENDBRANCH   1   8
TORSDOF 6
ENDMDL
MODEL      189
REMARK 921   NORMALIZED FREE ENERGY PREDICTED BY IDOCK:   -4.40 KCAL/MOL
REMARK 922        TOTAL FREE ENERGY PREDICTED BY IDOCK:   -7.36 KCAL/MOL
REMARK 923 INTER-LIGAND FREE ENERGY PREDICTED BY IDOCK:   -6.86 KCAL/MOL
REMARK 924 INTRA-LIGAND FREE ENERGY PREDICTED BY IDOCK:   -0.51 KCAL/MOL
REMARK 927      BINDING AFFINITY PREDICTED BY RF-SCORE:    0.00 PKD
ROOT
HETATM    1  CA  UNL     1      -8.777   6.653  68.043  1.00  0.00    -0.117 C  
HETATM    2  C   UNL     1      -8.956   5.737  66.773  1.00  0.00    -0.118 C  
HETATM    3  N   UNL     1      -8.024   5.875  69.091  1.00  0.00    -0.098 NA 
HETATM    4  OXT UNL     1     -10.019   5.942  66.118  1.00  0.00    -0.104 OA 
HETATM    5  H2  UNL     1      -7.773   6.443  69.899  1.00  0.00     0.000 HD 
HETATM    6  O   UNL     1      -8.024   4.908  66.577  1.00  0.00    -0.105 OA 
HETATM    7  H1  UNL     1      -8.583   5.059  69.341  1.00  0.00     0.000 HD 
ENDROOT
BRANCH   1   8
HETATM    8  C   UNL     1      -7.940   7.874  67.669  1.00  0.00    -0.124 C  
BRANCH   8   9
HETATM    9  C   UNL     1      -7.908   8.188  66.170  1.00  0.00    -0.092 C  
BRANCH   9  10
HETATM   10  S   UNL     1      -8.308   9.969  65.878  1.00  0.00    -0.132 S  
HETATM   11  C   UNL     1      -7.832   9.964  64.124  1.00  0.00    -0.142 C  
BRANCH  10  12
HETATM   12  C   UNL     1     -10.116   9.740  65.613  1.00  0.00    -0.212 C  
BRANCH  12  13
HETATM   13  C   UNL     1     -10.878  11.038  65.914  1.00  0.00    -0.115 C  
HETATM   14  O   UNL     1     -11.381  11.029  67.265  1.00  0.00    -0.408 OA 
HETATM   15  C   UNL     1     -11.670  12.387  67.590  1.00  0.00    -0.346 C  
HETATM   16  C   UNL     1     -10.526  13.195  66.971  1.00  0.00    -0.248 C  
HETATM   17  H   UNL     1      -9.579  13.714  64.519  1.00  0.00     0.000 HD 
HETATM   18  O   UNL     1     -10.964  14.461  66.459  1.00  0.00    -0.305 OA 
HETATM   19  C   UNL     1     -10.008  12.296  65.838  1.00  0.00    -0.254 C  
HETATM   20  O   UNL     1     -10.118  12.934  64.567  1.00  0.00    -0.309 OA 
HETATM   21  H   UNL     1     -10.254  14.962  66.075  1.00  0.00     0.000 HD 
BRANCH  15  22
HETATM   22  N   UNL     1     -11.839  12.515  69.023  1.00  0.00    -0.307 NA 
HETATM   23  C   UNL     1     -12.103  11.502  69.906  1.00  0.00    -0.316 A  
HETATM   24  C   UNL     1     -12.491  13.329  70.941  1.00  0.00    -0.342 A  
HETATM   25  N   UNL     1     -12.510  11.959  71.075  1.00  0.00    -0.348 NA 
HETATM   26  C   UNL     1     -12.866  14.373  71.804  1.00  0.00    -0.347 A  
HETATM   27  N   UNL     1     -12.656  15.649  71.403  1.00  0.00    -0.431 NA 
HETATM   28  N   UNL     1     -13.465  14.166  73.037  1.00  0.00    -0.627 NA 
HETATM   29  H2  UNL     1     -12.860  13.538  73.567  1.00  0.00     0.000 HD 
HETATM   30  C   UNL     1     -12.148  15.857  70.170  1.00  0.00    -0.255 A  
HETATM   31  H1  UNL     1     -13.737  14.924  73.663  1.00  0.00     0.000 HD 
HETATM   32  N   UNL     1     -11.834  14.947  69.222  1.00  0.00    -0.313 NA 
HETATM   33  C   UNL     1     -12.018  13.697  69.691  1.00  0.00    -0.343 A  
ENDBRANCH  15  22
ENDBRANCH  12  13
ENDBRANCH  10  12
ENDBRANCH   9  10
ENDBRANCH   8   9
ENDBRANCH   1   8
TORSDOF 6
ENDMDL
MODEL      190
REMARK 921   NORMALIZED FREE ENERGY PREDICTED BY IDOCK:   -4.39 KCAL/MOL
REMARK 922        TOTAL FREE ENERGY PREDICTED BY IDOCK:   -7.35 KCAL/MOL
REMARK 923 INTER-LIGAND FREE ENERGY PREDICTED BY IDOCK:   -7.00 KCAL/MOL
REMARK 924 INTRA-LIGAND FREE ENERGY PREDICTED BY IDOCK:   -0.35 KCAL/MOL
REMARK 927      BINDING AFFINITY PREDICTED BY RF-SCORE:    0.00 PKD
ROOT
HETATM    1  CA  UNL     1      -8.909   8.697  70.469  1.00  0.00    -0.163 C  
HETATM    2  C   UNL     1      -8.118   7.429  69.968  1.00  0.00    -0.129 C  
HETATM    3  N   UNL     1      -7.915   9.782  70.792  1.00  0.00    -0.387 NA 
HETATM    4  OXT UNL     1      -8.658   6.320  70.255  1.00  0.00    -0.134 OA 
HETATM    5  H2  UNL     1      -8.362  10.672  71.016  1.00  0.00     0.000 HD 
HETATM    6  O   UNL     1      -7.042   7.677  69.356  1.00  0.00    -0.071 OA 
HETATM    7  H1  UNL     1      -7.312   9.445  71.542  1.00  0.00     0.000 HD 
ENDROOT
BRANCH   1   8
HETATM    8  C   UNL     1      -9.812   9.202  69.347  1.00  0.00    -0.173 C  
BRANCH   8   9
HETATM    9  C   UNL     1      -9.966  10.725  69.292  1.00  0.00    -0.159 C  
BRANCH   9  10
HETATM   10  S   UNL     1     -11.710  11.178  68.873  1.00  0.00    -0.336 S  
HETATM   11  C   UNL     1     -12.412  10.625  70.455  1.00  0.00    -0.338 C  
BRANCH  10  12
HETATM   12  C   UNL     1     -11.575  12.963  69.307  1.00  0.00    -0.310 C  
BRANCH  12  13
HETATM   13  C   UNL     1     -11.724  13.839  68.056  1.00  0.00    -0.355 C  
HETATM   14  O   UNL     1     -10.842  14.976  68.124  1.00  0.00    -0.249 OA 
HETATM   15  C   UNL     1     -10.723  15.468  66.790  1.00  0.00    -0.305 C  
HETATM   16  C   UNL     1     -10.649  14.215  65.912  1.00  0.00    -0.298 C  
HETATM   17  H   UNL     1     -12.234  12.149  65.284  1.00  0.00     0.000 HD 
HETATM   18  O   UNL     1     -11.318  14.387  64.656  1.00  0.00    -0.392 OA 
HETATM   19  C   UNL     1     -11.335  13.130  66.756  1.00  0.00    -0.316 C  
HETATM   20  O   UNL     1     -12.475  12.589  66.091  1.00  0.00    -0.522 OA 
HETATM   21  H   UNL     1     -11.272  13.610  64.111  1.00  0.00     0.000 HD 
BRANCH  15  22
HETATM   22  N   UNL     1      -9.594  16.372  66.709  1.00  0.00    -0.238 NA 
HETATM   23  C   UNL     1      -9.577  17.603  66.108  1.00  0.00    -0.188 A  
HETATM   24  C   UNL     1      -7.539  17.060  66.440  1.00  0.00    -0.315 A  
HETATM   25  N   UNL     1      -8.349  18.045  65.920  1.00  0.00    -0.520 NA 
HETATM   26  C   UNL     1      -6.143  16.907  66.492  1.00  0.00    -0.071 A  
HETATM   27  N   UNL     1      -5.636  15.838  67.148  1.00  0.00    -0.320 NA 
HETATM   28  N   UNL     1      -5.256  17.782  65.883  1.00  0.00    -0.187 NA 
HETATM   29  H2  UNL     1      -5.471  18.719  66.225  1.00  0.00     0.000 HD 
HETATM   30  C   UNL     1      -6.496  14.941  67.673  1.00  0.00    -0.145 A  
HETATM   31  H1  UNL     1      -4.243  17.671  65.921  1.00  0.00     0.000 HD 
HETATM   32  N   UNL     1      -7.846  14.930  67.612  1.00  0.00    -0.156 NA 
HETATM   33  C   UNL     1      -8.296  16.038  66.991  1.00  0.00    -0.219 A  
ENDBRANCH  15  22
ENDBRANCH  12  13
ENDBRANCH  10  12
ENDBRANCH   9  10
ENDBRANCH   8   9
ENDBRANCH   1   8
TORSDOF 6
ENDMDL
MODEL      191
REMARK 921   NORMALIZED FREE ENERGY PREDICTED BY IDOCK:   -4.38 KCAL/MOL
REMARK 922        TOTAL FREE ENERGY PREDICTED BY IDOCK:   -7.34 KCAL/MOL
REMARK 923 INTER-LIGAND FREE ENERGY PREDICTED BY IDOCK:   -6.36 KCAL/MOL
REMARK 924 INTRA-LIGAND FREE ENERGY PREDICTED BY IDOCK:   -0.98 KCAL/MOL
REMARK 927      BINDING AFFINITY PREDICTED BY RF-SCORE:    0.00 PKD
ROOT
HETATM    1  CA  UNL     1      -8.597   6.758  71.479  1.00  0.00    -0.120 C  
HETATM    2  C   UNL     1      -8.778   8.085  72.310  1.00  0.00    -0.164 C  
HETATM    3  N   UNL     1      -9.264   5.632  72.227  1.00  0.00    -0.145 NA 
HETATM    4  OXT UNL     1      -7.825   8.911  72.201  1.00  0.00    -0.351 OA 
HETATM    5  H2  UNL     1      -9.286   4.763  71.693  1.00  0.00     0.000 HD 
HETATM    6  O   UNL     1      -9.840   8.151  72.989  1.00  0.00    -0.280 OA 
HETATM    7  H1  UNL     1      -8.796   5.530  73.127  1.00  0.00     0.000 HD 
ENDROOT
BRANCH   1   8
HETATM    8  C   UNL     1      -9.298   6.910  70.131  1.00  0.00    -0.159 C  
BRANCH   8   9
HETATM    9  C   UNL     1      -8.352   7.119  68.943  1.00  0.00    -0.126 C  
BRANCH   9  10
HETATM   10  S   UNL     1      -8.787   8.675  68.044  1.00  0.00    -0.141 S  
HETATM   11  C   UNL     1      -9.400   7.840  66.550  1.00  0.00    -0.189 C  
BRANCH  10  12
HETATM   12  C   UNL     1     -10.429   8.928  68.840  1.00  0.00    -0.205 C  
BRANCH  12  13
HETATM   13  C   UNL     1     -10.516  10.325  69.470  1.00  0.00    -0.244 C  
HETATM   14  O   UNL     1     -10.023  11.325  68.557  1.00  0.00    -0.190 OA 
HETATM   15  C   UNL     1     -10.531  12.573  69.023  1.00  0.00     0.010 C  
HETATM   16  C   UNL     1     -11.964  12.274  69.474  1.00  0.00    -0.270 C  
HETATM   17  H   UNL     1     -13.173  10.790  71.347  1.00  0.00     0.000 HD 
HETATM   18  O   UNL     1     -12.345  13.034  70.628  1.00  0.00    -0.356 OA 
HETATM   19  C   UNL     1     -11.946  10.770  69.788  1.00  0.00    -0.325 C  
HETATM   20  O   UNL     1     -12.286  10.513  71.150  1.00  0.00    -0.346 OA 
HETATM   21  H   UNL     1     -13.233  12.848  70.908  1.00  0.00     0.000 HD 
BRANCH  15  22
HETATM   22  N   UNL     1     -10.385  13.571  67.983  1.00  0.00    -0.235 NA 
HETATM   23  C   UNL     1      -9.711  13.423  66.800  1.00  0.00    -0.262 A  
HETATM   24  C   UNL     1     -10.055  15.516  67.046  1.00  0.00    -0.254 A  
HETATM   25  N   UNL     1      -9.486  14.582  66.211  1.00  0.00    -0.295 NA 
HETATM   26  C   UNL     1     -10.104  16.920  67.009  1.00  0.00    -0.289 A  
HETATM   27  N   UNL     1     -10.817  17.566  67.960  1.00  0.00    -0.336 NA 
HETATM   28  N   UNL     1      -9.435  17.681  66.062  1.00  0.00    -0.518 NA 
HETATM   29  H2  UNL     1      -9.722  17.344  65.144  1.00  0.00     0.000 HD 
HETATM   30  C   UNL     1     -11.403  16.834  68.930  1.00  0.00    -0.016 A  
HETATM   31  H1  UNL     1      -9.470  18.701  66.036  1.00  0.00     0.000 HD 
HETATM   32  N   UNL     1     -11.355  15.498  69.124  1.00  0.00    -0.304 NA 
HETATM   33  C   UNL     1     -10.674  14.902  68.125  1.00  0.00    -0.251 A  
ENDBRANCH  15  22
ENDBRANCH  12  13
ENDBRANCH  10  12
ENDBRANCH   9  10
ENDBRANCH   8   9
ENDBRANCH   1   8
TORSDOF 6
ENDMDL
MODEL      192
REMARK 921   NORMALIZED FREE ENERGY PREDICTED BY IDOCK:   -4.35 KCAL/MOL
REMARK 922        TOTAL FREE ENERGY PREDICTED BY IDOCK:   -7.30 KCAL/MOL
REMARK 923 INTER-LIGAND FREE ENERGY PREDICTED BY IDOCK:   -6.70 KCAL/MOL
REMARK 924 INTRA-LIGAND FREE ENERGY PREDICTED BY IDOCK:   -0.60 KCAL/MOL
REMARK 927      BINDING AFFINITY PREDICTED BY RF-SCORE:    0.00 PKD
ROOT
HETATM    1  CA  UNL     1     -12.234  13.455  65.363  1.00  0.00    -0.452 C  
HETATM    2  C   UNL     1     -10.829  13.810  64.744  1.00  0.00    -0.401 C  
HETATM    3  N   UNL     1     -12.946  12.516  64.423  1.00  0.00    -0.785 NA 
HETATM    4  OXT UNL     1     -10.409  14.973  65.017  1.00  0.00    -0.387 OA 
HETATM    5  H2  UNL     1     -13.816  12.154  64.812  1.00  0.00     0.000 HD 
HETATM    6  O   UNL     1     -10.306  12.897  64.045  1.00  0.00    -0.422 OA 
HETATM    7  H1  UNL     1     -13.082  13.001  63.536  1.00  0.00     0.000 HD 
ENDROOT
BRANCH   1   8
HETATM    8  C   UNL     1     -12.030  12.730  66.691  1.00  0.00    -0.411 C  
BRANCH   8   9
HETATM    9  C   UNL     1     -10.564  12.518  67.081  1.00  0.00    -0.228 C  
BRANCH   9  10
HETATM   10  S   UNL     1     -10.228  10.720  67.355  1.00  0.00    -0.215 S  
HETATM   11  C   UNL     1      -8.418  10.888  67.367  1.00  0.00    -0.120 C  
BRANCH  10  12
HETATM   12  C   UNL     1     -10.459  10.738  69.183  1.00  0.00    -0.218 C  
BRANCH  12  13
HETATM   13  C   UNL     1     -10.519   9.308  69.736  1.00  0.00    -0.222 C  
HETATM   14  O   UNL     1     -10.428   8.346  68.666  1.00  0.00    -0.208 OA 
HETATM   15  C   UNL     1     -10.057   7.110  69.273  1.00  0.00    -0.176 C  
HETATM   16  C   UNL     1      -9.032   7.489  70.347  1.00  0.00    -0.152 C  
HETATM   17  H   UNL     1      -8.986   8.913  72.615  1.00  0.00     0.000 HD 
HETATM   18  O   UNL     1      -9.143   6.673  71.521  1.00  0.00    -0.143 OA 
HETATM   19  C   UNL     1      -9.356   8.956  70.667  1.00  0.00    -0.212 C  
HETATM   20  O   UNL     1      -9.708   9.131  72.038  1.00  0.00    -0.283 OA 
HETATM   21  H   UNL     1      -8.508   6.908  72.187  1.00  0.00     0.000 HD 
BRANCH  15  22
HETATM   22  N   UNL     1      -9.601   6.190  68.253  1.00  0.00    -0.120 NA 
HETATM   23  C   UNL     1      -9.465   6.456  66.916  1.00  0.00    -0.143 A  
HETATM   24  C   UNL     1      -9.376   4.333  67.125  1.00  0.00    -0.167 A  
HETATM   25  N   UNL     1      -9.337   5.353  66.203  1.00  0.00    -0.155 NA 
HETATM   26  C   UNL     1      -9.350   2.934  66.997  1.00  0.00    -0.101 A  
HETATM   27  N   UNL     1      -9.331   2.182  68.122  1.00  0.00    -0.202 NA 
HETATM   28  N   UNL     1      -9.368   2.280  65.773  1.00  0.00    -0.339 NA 
HETATM   29  H2  UNL     1      -8.595   2.650  65.220  1.00  0.00     0.000 HD 
HETATM   30  C   UNL     1      -9.394   2.812  69.313  1.00  0.00    -0.123 A  
HETATM   31  H1  UNL     1      -9.349   1.264  65.680  1.00  0.00     0.000 HD 
HETATM   32  N   UNL     1      -9.512   4.134  69.564  1.00  0.00    -0.170 NA 
HETATM   33  C   UNL     1      -9.479   4.835  68.414  1.00  0.00    -0.144 A  
ENDBRANCH  15  22
ENDBRANCH  12  13
ENDBRANCH  10  12
ENDBRANCH   9  10
ENDBRANCH   8   9
ENDBRANCH   1   8
TORSDOF 6
ENDMDL
MODEL      193
REMARK 921   NORMALIZED FREE ENERGY PREDICTED BY IDOCK:   -4.35 KCAL/MOL
REMARK 922        TOTAL FREE ENERGY PREDICTED BY IDOCK:   -7.29 KCAL/MOL
REMARK 923 INTER-LIGAND FREE ENERGY PREDICTED BY IDOCK:   -6.63 KCAL/MOL
REMARK 924 INTRA-LIGAND FREE ENERGY PREDICTED BY IDOCK:   -0.66 KCAL/MOL
REMARK 927      BINDING AFFINITY PREDICTED BY RF-SCORE:    0.00 PKD
ROOT
HETATM    1  CA  UNL     1     -12.777  14.190  72.168  1.00  0.00    -0.294 C  
HETATM    2  C   UNL     1     -13.347  15.136  71.044  1.00  0.00    -0.443 C  
HETATM    3  N   UNL     1     -13.016  14.840  73.507  1.00  0.00    -0.549 NA 
HETATM    4  OXT UNL     1     -12.718  15.094  69.947  1.00  0.00    -0.214 OA 
HETATM    5  H2  UNL     1     -12.774  14.232  74.289  1.00  0.00     0.000 HD 
HETATM    6  O   UNL     1     -14.350  15.825  71.383  1.00  0.00    -0.467 OA 
HETATM    7  H1  UNL     1     -12.509  15.725  73.523  1.00  0.00     0.000 HD 
ENDROOT
BRANCH   1   8
HETATM    8  C   UNL     1     -13.536  12.865  72.144  1.00  0.00    -0.619 C  
BRANCH   8   9
HETATM    9  C   UNL     1     -12.894  11.781  71.272  1.00  0.00    -0.308 C  
BRANCH   9  10
HETATM   10  S   UNL     1     -12.941  10.149  72.140  1.00  0.00    -0.232 S  
HETATM   11  C   UNL     1     -14.116   9.379  70.986  1.00  0.00     0.201 C  
BRANCH  10  12
HETATM   12  C   UNL     1     -11.409   9.462  71.382  1.00  0.00    -0.381 C  
BRANCH  12  13
HETATM   13  C   UNL     1     -11.447   7.927  71.379  1.00  0.00    -0.260 C  
HETATM   14  O   UNL     1     -11.226   7.417  70.049  1.00  0.00    -0.251 OA 
HETATM   15  C   UNL     1     -10.848   6.051  70.205  1.00  0.00    -0.329 C  
HETATM   16  C   UNL     1      -9.931   6.032  71.432  1.00  0.00    -0.186 C  
HETATM   17  H   UNL     1     -10.131   6.544  74.053  1.00  0.00     0.000 HD 
HETATM   18  O   UNL     1     -10.096   4.847  72.221  1.00  0.00    -0.178 OA 
HETATM   19  C   UNL     1     -10.346   7.281  72.224  1.00  0.00    -0.210 C  
HETATM   20  O   UNL     1     -10.814   6.945  73.529  1.00  0.00    -0.315 OA 
HETATM   21  H   UNL     1      -9.528   4.835  72.982  1.00  0.00     0.000 HD 
BRANCH  15  22
HETATM   22  N   UNL     1     -10.270   5.567  68.969  1.00  0.00    -0.211 NA 
HETATM   23  C   UNL     1     -10.295   6.199  67.754  1.00  0.00    -0.198 A  
HETATM   24  C   UNL     1      -9.713   4.180  67.376  1.00  0.00    -0.154 A  
HETATM   25  N   UNL     1      -9.973   5.387  66.766  1.00  0.00    -0.171 NA 
HETATM   26  C   UNL     1      -9.380   2.912  66.871  1.00  0.00    -0.083 A  
HETATM   27  N   UNL     1      -9.110   1.918  67.748  1.00  0.00    -0.146 NA 
HETATM   28  N   UNL     1      -9.338   2.618  65.516  1.00  0.00    -0.316 NA 
HETATM   29  H2  UNL     1      -8.711   3.293  65.078  1.00  0.00     0.000 HD 
HETATM   30  C   UNL     1      -9.228   2.178  69.067  1.00  0.00    -0.139 A  
HETATM   31  H1  UNL     1      -9.096   1.697  65.149  1.00  0.00     0.000 HD 
HETATM   32  N   UNL     1      -9.625   3.320  69.669  1.00  0.00    -0.130 NA 
HETATM   33  C   UNL     1      -9.834   4.287  68.753  1.00  0.00    -0.050 A  
ENDBRANCH  15  22
ENDBRANCH  12  13
ENDBRANCH  10  12
ENDBRANCH   9  10
ENDBRANCH   8   9
ENDBRANCH   1   8
TORSDOF 6
ENDMDL
MODEL      194
REMARK 921   NORMALIZED FREE ENERGY PREDICTED BY IDOCK:   -4.33 KCAL/MOL
REMARK 922        TOTAL FREE ENERGY PREDICTED BY IDOCK:   -7.27 KCAL/MOL
REMARK 923 INTER-LIGAND FREE ENERGY PREDICTED BY IDOCK:   -6.38 KCAL/MOL
REMARK 924 INTRA-LIGAND FREE ENERGY PREDICTED BY IDOCK:   -0.88 KCAL/MOL
REMARK 927      BINDING AFFINITY PREDICTED BY RF-SCORE:    0.00 PKD
ROOT
HETATM    1  CA  UNL     1      -9.045   3.729  71.752  1.00  0.00    -0.111 C  
HETATM    2  C   UNL     1      -7.536   3.489  72.138  1.00  0.00    -0.057 C  
HETATM    3  N   UNL     1      -9.810   2.454  71.999  1.00  0.00    -0.145 NA 
HETATM    4  OXT UNL     1      -6.702   4.147  71.450  1.00  0.00    -0.028 OA 
HETATM    5  H2  UNL     1     -10.816   2.569  71.878  1.00  0.00     0.000 HD 
HETATM    6  O   UNL     1      -7.349   2.662  73.074  1.00  0.00    -0.039 OA 
HETATM    7  H1  UNL     1      -9.420   1.730  71.396  1.00  0.00     0.000 HD 
ENDROOT
BRANCH   1   8
HETATM    8  C   UNL     1      -9.629   4.813  72.655  1.00  0.00    -0.167 C  
BRANCH   8   9
HETATM    9  C   UNL     1      -9.861   6.160  71.962  1.00  0.00    -0.155 C  
BRANCH   9  10
HETATM   10  S   UNL     1     -10.228   5.903  70.168  1.00  0.00    -0.240 S  
HETATM   11  C   UNL     1     -11.894   6.627  70.232  1.00  0.00    -0.316 C  
BRANCH  10  12
HETATM   12  C   UNL     1      -9.360   7.410  69.557  1.00  0.00    -0.156 C  
BRANCH  12  13
HETATM   13  C   UNL     1      -9.812   7.755  68.132  1.00  0.00    -0.167 C  
HETATM   14  O   UNL     1     -10.527   9.006  68.115  1.00  0.00    -0.215 OA 
HETATM   15  C   UNL     1     -10.518   9.451  66.760  1.00  0.00    -0.195 C  
HETATM   16  C   UNL     1      -9.118   9.110  66.241  1.00  0.00    -0.178 C  
HETATM   17  H   UNL     1      -7.661   6.907  65.797  1.00  0.00     0.000 HD 
HETATM   18  O   UNL     1      -9.129   8.701  64.867  1.00  0.00    -0.426 OA 
HETATM   19  C   UNL     1      -8.655   7.963  67.151  1.00  0.00    -0.128 C  
HETATM   20  O   UNL     1      -8.379   6.779  66.405  1.00  0.00    -0.112 OA 
HETATM   21  H   UNL     1      -8.261   8.490  64.544  1.00  0.00     0.000 HD 
BRANCH  15  22
HETATM   22  N   UNL     1     -10.895  10.849  66.709  1.00  0.00    -0.251 NA 
HETATM   23  C   UNL     1     -11.181  11.656  67.779  1.00  0.00    -0.268 A  
HETATM   24  C   UNL     1     -11.881  12.678  66.040  1.00  0.00    -0.436 A  
HETATM   25  N   UNL     1     -11.788  12.768  67.410  1.00  0.00    -0.364 NA 
HETATM   26  C   UNL     1     -12.470  13.509  65.071  1.00  0.00    -0.417 A  
HETATM   27  N   UNL     1     -12.330  13.179  63.766  1.00  0.00    -0.680 NA 
HETATM   28  N   UNL     1     -13.212  14.639  65.385  1.00  0.00    -0.295 NA 
HETATM   29  H2  UNL     1     -12.629  15.230  65.977  1.00  0.00     0.000 HD 
HETATM   30  C   UNL     1     -11.678  12.038  63.461  1.00  0.00    -0.472 A  
HETATM   31  H1  UNL     1     -13.639  15.241  64.681  1.00  0.00     0.000 HD 
HETATM   32  N   UNL     1     -11.150  11.118  64.298  1.00  0.00    -0.229 NA 
HETATM   33  C   UNL     1     -11.277  11.520  65.578  1.00  0.00    -0.138 A  
ENDBRANCH  15  22
ENDBRANCH  12  13
ENDBRANCH  10  12
ENDBRANCH   9  10
ENDBRANCH   8   9
ENDBRANCH   1   8
TORSDOF 6
ENDMDL
MODEL      195
REMARK 921   NORMALIZED FREE ENERGY PREDICTED BY IDOCK:   -4.33 KCAL/MOL
REMARK 922        TOTAL FREE ENERGY PREDICTED BY IDOCK:   -7.27 KCAL/MOL
REMARK 923 INTER-LIGAND FREE ENERGY PREDICTED BY IDOCK:   -6.68 KCAL/MOL
REMARK 924 INTRA-LIGAND FREE ENERGY PREDICTED BY IDOCK:   -0.58 KCAL/MOL
REMARK 927      BINDING AFFINITY PREDICTED BY RF-SCORE:    0.00 PKD
ROOT
HETATM    1  CA  UNL     1      -7.638  10.093  65.775  1.00  0.00    -0.134 C  
HETATM    2  C   UNL     1      -8.974   9.408  65.291  1.00  0.00    -0.204 C  
HETATM    3  N   UNL     1      -6.885  10.579  64.563  1.00  0.00    -0.348 NA 
HETATM    4  OXT UNL     1      -9.372   8.452  66.019  1.00  0.00    -0.209 OA 
HETATM    5  H2  UNL     1      -6.064  11.133  64.806  1.00  0.00     0.000 HD 
HETATM    6  O   UNL     1      -9.469   9.890  64.235  1.00  0.00    -0.284 OA 
HETATM    7  H1  UNL     1      -6.658   9.769  63.987  1.00  0.00     0.000 HD 
ENDROOT
BRANCH   1   8
HETATM    8  C   UNL     1      -7.978  11.305  66.639  1.00  0.00    -0.159 C  
BRANCH   8   9
HETATM    9  C   UNL     1      -7.004  11.555  67.795  1.00  0.00    -0.078 C  
BRANCH   9  10
HETATM   10  S   UNL     1      -7.822  12.558  69.116  1.00  0.00     0.508 S  
HETATM   11  C   UNL     1      -6.345  13.536  69.522  1.00  0.00    -0.108 C  
BRANCH  10  12
HETATM   12  C   UNL     1      -8.598  13.795  67.993  1.00  0.00    -0.177 C  
BRANCH  12  13
HETATM   13  C   UNL     1     -10.117  13.846  68.209  1.00  0.00    -0.241 C  
HETATM   14  O   UNL     1     -10.597  12.592  68.733  1.00  0.00    -0.237 OA 
HETATM   15  C   UNL     1     -11.877  12.862  69.299  1.00  0.00    -0.309 C  
HETATM   16  C   UNL     1     -11.728  14.223  69.986  1.00  0.00    -0.298 C  
HETATM   17  H   UNL     1     -11.229  16.753  69.262  1.00  0.00     0.000 HD 
HETATM   18  O   UNL     1     -12.915  15.020  69.886  1.00  0.00    -0.610 OA 
HETATM   19  C   UNL     1     -10.558  14.886  69.242  1.00  0.00    -0.243 C  
HETATM   20  O   UNL     1     -10.954  16.108  68.621  1.00  0.00    -0.297 OA 
HETATM   21  H   UNL     1     -12.823  15.864  70.311  1.00  0.00     0.000 HD 
BRANCH  15  22
HETATM   22  N   UNL     1     -12.271  11.758  70.150  1.00  0.00    -0.288 NA 
HETATM   23  C   UNL     1     -13.018  11.837  71.296  1.00  0.00    -0.254 A  
HETATM   24  C   UNL     1     -12.128   9.896  71.282  1.00  0.00    -0.394 A  
HETATM   25  N   UNL     1     -12.946  10.731  72.010  1.00  0.00    -0.428 NA 
HETATM   26  C   UNL     1     -11.621   8.610  71.530  1.00  0.00    -0.302 A  
HETATM   27  N   UNL     1     -10.883   8.010  70.567  1.00  0.00    -0.238 NA 
HETATM   28  N   UNL     1     -11.815   7.930  72.724  1.00  0.00    -0.606 NA 
HETATM   29  H2  UNL     1     -12.820   7.897  72.894  1.00  0.00     0.000 HD 
HETATM   30  C   UNL     1     -10.624   8.699  69.437  1.00  0.00    -0.199 A  
HETATM   31  H1  UNL     1     -11.446   6.996  72.904  1.00  0.00     0.000 HD 
HETATM   32  N   UNL     1     -10.976   9.965  69.120  1.00  0.00    -0.220 NA 
HETATM   33  C   UNL     1     -11.746  10.494  70.091  1.00  0.00    -0.326 A  
ENDBRANCH  15  22
ENDBRANCH  12  13
ENDBRANCH  10  12
ENDBRANCH   9  10
ENDBRANCH   8   9
ENDBRANCH   1   8
TORSDOF 6
ENDMDL
MODEL      196
REMARK 921   NORMALIZED FREE ENERGY PREDICTED BY IDOCK:   -4.33 KCAL/MOL
REMARK 922        TOTAL FREE ENERGY PREDICTED BY IDOCK:   -7.27 KCAL/MOL
REMARK 923 INTER-LIGAND FREE ENERGY PREDICTED BY IDOCK:   -6.05 KCAL/MOL
REMARK 924 INTRA-LIGAND FREE ENERGY PREDICTED BY IDOCK:   -1.21 KCAL/MOL
REMARK 927      BINDING AFFINITY PREDICTED BY RF-SCORE:    0.00 PKD
ROOT
HETATM    1  CA  UNL     1      -6.669  11.321  67.873  1.00  0.00    -0.063 C  
HETATM    2  C   UNL     1      -7.020  12.850  67.728  1.00  0.00    -0.138 C  
HETATM    3  N   UNL     1      -5.510  11.009  66.962  1.00  0.00    -0.052 NA 
HETATM    4  OXT UNL     1      -8.245  13.129  67.882  1.00  0.00    -0.137 OA 
HETATM    5  H2  UNL     1      -5.155  10.061  67.087  1.00  0.00     0.000 HD 
HETATM    6  O   UNL     1      -6.040  13.601  67.466  1.00  0.00    -0.294 OA 
HETATM    7  H1  UNL     1      -5.802  11.197  66.003  1.00  0.00     0.000 HD 
ENDROOT
BRANCH   1   8
HETATM    8  C   UNL     1      -6.232  11.038  69.308  1.00  0.00    -0.059 C  
BRANCH   8   9
HETATM    9  C   UNL     1      -5.885   9.573  69.590  1.00  0.00    -0.033 C  
BRANCH   9  10
HETATM   10  S   UNL     1      -7.240   8.467  68.991  1.00  0.00    -0.071 S  
HETATM   11  C   UNL     1      -6.191   6.992  68.820  1.00  0.00    -0.027 C  
BRANCH  10  12
HETATM   12  C   UNL     1      -7.925   8.054  70.651  1.00  0.00    -0.096 C  
BRANCH  12  13
HETATM   13  C   UNL     1      -9.068   9.009  71.019  1.00  0.00    -0.257 C  
HETATM   14  O   UNL     1      -9.374   9.884  69.915  1.00  0.00    -0.220 OA 
HETATM   15  C   UNL     1     -10.676  10.405  70.169  1.00  0.00    -0.233 C  
HETATM   16  C   UNL     1     -11.470   9.227  70.741  1.00  0.00    -0.292 C  
HETATM   17  H   UNL     1     -11.390   7.663  72.914  1.00  0.00     0.000 HD 
HETATM   18  O   UNL     1     -12.399   9.632  71.755  1.00  0.00    -0.368 OA 
HETATM   19  C   UNL     1     -10.391   8.301  71.324  1.00  0.00    -0.205 C  
HETATM   20  O   UNL     1     -10.570   8.102  72.725  1.00  0.00    -0.332 OA 
HETATM   21  H   UNL     1     -12.891   8.901  72.110  1.00  0.00     0.000 HD 
BRANCH  15  22
HETATM   22  N   UNL     1     -11.202  11.002  68.959  1.00  0.00    -0.234 NA 
HETATM   23  C   UNL     1     -11.198  10.445  67.707  1.00  0.00    -0.237 A  
HETATM   24  C   UNL     1     -11.644  12.517  67.450  1.00  0.00    -0.370 A  
HETATM   25  N   UNL     1     -11.452  11.337  66.769  1.00  0.00    -0.397 NA 
HETATM   26  C   UNL     1     -11.888  13.833  67.021  1.00  0.00    -0.410 A  
HETATM   27  N   UNL     1     -12.109  14.786  67.956  1.00  0.00    -0.216 NA 
HETATM   28  N   UNL     1     -11.889  14.213  65.687  1.00  0.00    -0.362 NA 
HETATM   29  H2  UNL     1     -12.551  13.608  65.200  1.00  0.00     0.000 HD 
HETATM   30  C   UNL     1     -12.029  14.438  69.257  1.00  0.00    -0.324 A  
HETATM   31  H1  UNL     1     -12.066  15.168  65.376  1.00  0.00     0.000 HD 
HETATM   32  N   UNL     1     -11.715  13.237  69.792  1.00  0.00    -0.299 NA 
HETATM   33  C   UNL     1     -11.553  12.318  68.819  1.00  0.00    -0.330 A  
ENDBRANCH  15  22
ENDBRANCH  12  13
ENDBRANCH  10  12
ENDBRANCH   9  10
ENDBRANCH   8   9
ENDBRANCH   1   8
TORSDOF 6
ENDMDL
MODEL      197
REMARK 921   NORMALIZED FREE ENERGY PREDICTED BY IDOCK:   -4.33 KCAL/MOL
REMARK 922        TOTAL FREE ENERGY PREDICTED BY IDOCK:   -7.26 KCAL/MOL
REMARK 923 INTER-LIGAND FREE ENERGY PREDICTED BY IDOCK:   -6.16 KCAL/MOL
REMARK 924 INTRA-LIGAND FREE ENERGY PREDICTED BY IDOCK:   -1.10 KCAL/MOL
REMARK 927      BINDING AFFINITY PREDICTED BY RF-SCORE:    0.00 PKD
ROOT
HETATM    1  CA  UNL     1     -11.111  12.094  67.755  1.00  0.00    -0.250 C  
HETATM    2  C   UNL     1     -11.119  13.517  68.432  1.00  0.00    -0.271 C  
HETATM    3  N   UNL     1     -12.271  11.300  68.298  1.00  0.00    -0.635 NA 
HETATM    4  OXT UNL     1      -9.974  14.032  68.596  1.00  0.00    -0.227 OA 
HETATM    5  H2  UNL     1     -12.395  10.407  67.821  1.00  0.00     0.000 HD 
HETATM    6  O   UNL     1     -12.263  13.958  68.735  1.00  0.00    -0.348 OA 
HETATM    7  H1  UNL     1     -12.137  11.194  69.304  1.00  0.00     0.000 HD 
ENDROOT
BRANCH   1   8
HETATM    8  C   UNL     1     -11.310  12.251  66.249  1.00  0.00    -0.395 C  
BRANCH   8   9
HETATM    9  C   UNL     1     -10.028  12.122  65.421  1.00  0.00    -0.246 C  
BRANCH   9  10
HETATM   10  S   UNL     1      -9.816  10.382  64.834  1.00  0.00    -0.345 S  
HETATM   11  C   UNL     1      -9.505  10.826  63.099  1.00  0.00    -0.336 C  
BRANCH  10  12
HETATM   12  C   UNL     1      -8.051  10.203  65.332  1.00  0.00    -0.149 C  
BRANCH  12  13
HETATM   13  C   UNL     1      -7.840   8.909  66.129  1.00  0.00    -0.102 C  
HETATM   14  O   UNL     1      -8.507   8.984  67.404  1.00  0.00    -0.115 OA 
HETATM   15  C   UNL     1      -8.633   7.641  67.867  1.00  0.00    -0.122 C  
HETATM   16  C   UNL     1      -8.983   6.823  66.620  1.00  0.00    -0.144 C  
HETATM   17  H   UNL     1      -7.825   6.185  64.290  1.00  0.00     0.000 HD 
HETATM   18  O   UNL     1      -8.383   5.521  66.632  1.00  0.00    -0.108 OA 
HETATM   19  C   UNL     1      -8.436   7.668  65.458  1.00  0.00    -0.120 C  
HETATM   20  O   UNL     1      -7.456   6.955  64.706  1.00  0.00    -0.082 OA 
HETATM   21  H   UNL     1      -8.600   5.014  65.859  1.00  0.00     0.000 HD 
BRANCH  15  22
HETATM   22  N   UNL     1      -9.591   7.592  68.952  1.00  0.00    -0.150 NA 
HETATM   23  C   UNL     1     -10.383   8.621  69.387  1.00  0.00    -0.218 A  
HETATM   24  C   UNL     1     -10.450   7.120  70.903  1.00  0.00    -0.210 A  
HETATM   25  N   UNL     1     -10.911   8.373  70.570  1.00  0.00    -0.240 NA 
HETATM   26  C   UNL     1     -10.604   6.324  72.051  1.00  0.00    -0.217 A  
HETATM   27  N   UNL     1     -10.076   5.078  72.049  1.00  0.00    -0.190 NA 
HETATM   28  N   UNL     1     -11.248   6.760  73.200  1.00  0.00    -0.496 NA 
HETATM   29  H2  UNL     1     -12.178   7.078  72.925  1.00  0.00     0.000 HD 
HETATM   30  C   UNL     1      -9.379   4.680  70.965  1.00  0.00    -0.147 A  
HETATM   31  H1  UNL     1     -11.360   6.183  74.033  1.00  0.00     0.000 HD 
HETATM   32  N   UNL     1      -9.087   5.379  69.846  1.00  0.00    -0.133 NA 
HETATM   33  C   UNL     1      -9.676   6.590  69.882  1.00  0.00    -0.164 A  
ENDBRANCH  15  22
ENDBRANCH  12  13
ENDBRANCH  10  12
ENDBRANCH   9  10
ENDBRANCH   8   9
ENDBRANCH   1   8
TORSDOF 6
ENDMDL
MODEL      198
REMARK 921   NORMALIZED FREE ENERGY PREDICTED BY IDOCK:   -4.33 KCAL/MOL
REMARK 922        TOTAL FREE ENERGY PREDICTED BY IDOCK:   -7.26 KCAL/MOL
REMARK 923 INTER-LIGAND FREE ENERGY PREDICTED BY IDOCK:   -6.05 KCAL/MOL
REMARK 924 INTRA-LIGAND FREE ENERGY PREDICTED BY IDOCK:   -1.21 KCAL/MOL
REMARK 927      BINDING AFFINITY PREDICTED BY RF-SCORE:    0.00 PKD
ROOT
HETATM    1  CA  UNL     1     -11.809  12.211  68.806  1.00  0.00    -0.303 C  
HETATM    2  C   UNL     1     -11.841  11.002  69.817  1.00  0.00    -0.347 C  
HETATM    3  N   UNL     1     -10.590  13.048  69.101  1.00  0.00    -0.441 NA 
HETATM    4  OXT UNL     1     -13.002  10.611  70.137  1.00  0.00    -0.225 OA 
HETATM    5  H2  UNL     1     -10.443  13.785  68.412  1.00  0.00     0.000 HD 
HETATM    6  O   UNL     1     -10.709  10.586  70.189  1.00  0.00    -0.268 OA 
HETATM    7  H1  UNL     1     -10.676  13.407  70.051  1.00  0.00     0.000 HD 
ENDROOT
BRANCH   1   8
HETATM    8  C   UNL     1     -11.681  11.674  67.383  1.00  0.00    -0.278 C  
BRANCH   8   9
HETATM    9  C   UNL     1     -10.818  12.533  66.454  1.00  0.00    -0.261 C  
BRANCH   9  10
HETATM   10  S   UNL     1      -9.548  11.488  65.609  1.00  0.00    -0.227 S  
HETATM   11  C   UNL     1      -8.251  11.760  66.853  1.00  0.00    -0.166 C  
BRANCH  10  12
HETATM   12  C   UNL     1     -10.138   9.869  66.261  1.00  0.00    -0.241 C  
BRANCH  12  13
HETATM   13  C   UNL     1      -9.050   9.197  67.110  1.00  0.00    -0.126 C  
HETATM   14  O   UNL     1      -9.628   8.571  68.272  1.00  0.00    -0.141 OA 
HETATM   15  C   UNL     1      -8.660   7.636  68.743  1.00  0.00    -0.129 C  
HETATM   16  C   UNL     1      -8.069   7.007  67.477  1.00  0.00    -0.113 C  
HETATM   17  H   UNL     1      -6.643   7.808  65.356  1.00  0.00     0.000 HD 
HETATM   18  O   UNL     1      -6.670   6.725  67.607  1.00  0.00    -0.065 OA 
HETATM   19  C   UNL     1      -8.318   8.062  66.389  1.00  0.00    -0.124 C  
HETATM   20  O   UNL     1      -7.097   8.512  65.804  1.00  0.00    -0.073 OA 
HETATM   21  H   UNL     1      -6.304   6.335  66.822  1.00  0.00     0.000 HD 
BRANCH  15  22
HETATM   22  N   UNL     1      -9.286   6.723  69.677  1.00  0.00    -0.146 NA 
HETATM   23  C   UNL     1      -9.928   5.553  69.368  1.00  0.00    -0.208 A  
HETATM   24  C   UNL     1     -10.461   6.027  71.380  1.00  0.00    -0.231 A  
HETATM   25  N   UNL     1     -10.657   5.109  70.374  1.00  0.00    -0.214 NA 
HETATM   26  C   UNL     1     -11.000   6.150  72.672  1.00  0.00    -0.256 A  
HETATM   27  N   UNL     1     -10.546   7.145  73.470  1.00  0.00    -0.381 NA 
HETATM   28  N   UNL     1     -11.996   5.319  73.166  1.00  0.00    -0.493 NA 
HETATM   29  H2  UNL     1     -11.667   4.359  73.065  1.00  0.00     0.000 HD 
HETATM   30  C   UNL     1      -9.636   8.004  72.965  1.00  0.00    -0.277 A  
HETATM   31  H1  UNL     1     -12.387   5.409  74.104  1.00  0.00     0.000 HD 
HETATM   32  N   UNL     1      -9.112   8.045  71.721  1.00  0.00    -0.146 NA 
HETATM   33  C   UNL     1      -9.563   7.007  70.988  1.00  0.00    -0.170 A  
ENDBRANCH  15  22
ENDBRANCH  12  13
ENDBRANCH  10  12
ENDBRANCH   9  10
ENDBRANCH   8   9
ENDBRANCH   1   8
TORSDOF 6
ENDMDL
MODEL      199
REMARK 921   NORMALIZED FREE ENERGY PREDICTED BY IDOCK:   -4.32 KCAL/MOL
REMARK 922        TOTAL FREE ENERGY PREDICTED BY IDOCK:   -7.25 KCAL/MOL
REMARK 923 INTER-LIGAND FREE ENERGY PREDICTED BY IDOCK:   -6.28 KCAL/MOL
REMARK 924 INTRA-LIGAND FREE ENERGY PREDICTED BY IDOCK:   -0.98 KCAL/MOL
REMARK 927      BINDING AFFINITY PREDICTED BY RF-SCORE:    0.00 PKD
ROOT
HETATM    1  CA  UNL     1      -6.556  16.943  67.200  1.00  0.00    -0.189 C  
HETATM    2  C   UNL     1      -6.917  17.258  68.702  1.00  0.00    -0.220 C  
HETATM    3  N   UNL     1      -5.308  16.098  67.177  1.00  0.00    -0.333 NA 
HETATM    4  OXT UNL     1      -7.474  18.380  68.888  1.00  0.00    -0.289 OA 
HETATM    5  H2  UNL     1      -5.078  15.760  66.242  1.00  0.00     0.000 HD 
HETATM    6  O   UNL     1      -6.594  16.361  69.529  1.00  0.00    -0.205 OA 
HETATM    7  H1  UNL     1      -4.552  16.639  67.597  1.00  0.00     0.000 HD 
ENDROOT
BRANCH   1   8
HETATM    8  C   UNL     1      -7.687  16.133  66.570  1.00  0.00    -0.219 C  
BRANCH   8   9
HETATM    9  C   UNL     1      -8.877  16.970  66.092  1.00  0.00    -0.216 C  
BRANCH   9  10
HETATM   10  S   UNL     1     -10.445  16.344  66.845  1.00  0.00    -0.257 S  
HETATM   11  C   UNL     1     -10.966  15.394  65.386  1.00  0.00    -0.368 C  
BRANCH  10  12
HETATM   12  C   UNL     1      -9.691  14.935  67.763  1.00  0.00    -0.212 C  
BRANCH  12  13
HETATM   13  C   UNL     1     -10.414  13.622  67.431  1.00  0.00    -0.251 C  
HETATM   14  O   UNL     1      -9.519  12.703  66.774  1.00  0.00    -0.224 OA 
HETATM   15  C   UNL     1     -10.112  11.412  66.900  1.00  0.00    -0.214 C  
HETATM   16  C   UNL     1     -10.692  11.379  68.317  1.00  0.00    -0.204 C  
HETATM   17  H   UNL     1     -12.586  12.669  69.705  1.00  0.00     0.000 HD 
HETATM   18  O   UNL     1     -11.925  10.652  68.388  1.00  0.00    -0.775 OA 
HETATM   19  C   UNL     1     -10.908  12.861  68.663  1.00  0.00    -0.258 C  
HETATM   20  O   UNL     1     -12.279  13.142  68.940  1.00  0.00    -0.249 OA 
HETATM   21  H   UNL     1     -12.285  10.632  69.267  1.00  0.00     0.000 HD 
BRANCH  15  22
HETATM   22  N   UNL     1      -9.127  10.397  66.590  1.00  0.00    -0.150 NA 
HETATM   23  C   UNL     1      -7.889  10.602  66.041  1.00  0.00    -0.156 A  
HETATM   24  C   UNL     1      -8.289   8.511  65.876  1.00  0.00    -0.138 A  
HETATM   25  N   UNL     1      -7.357   9.483  65.590  1.00  0.00    -0.092 NA 
HETATM   26  C   UNL     1      -8.342   7.134  65.599  1.00  0.00    -0.136 A  
HETATM   27  N   UNL     1      -9.382   6.418  66.085  1.00  0.00    -0.123 NA 
HETATM   28  N   UNL     1      -7.395   6.474  64.830  1.00  0.00    -0.071 NA 
HETATM   29  H2  UNL     1      -6.482   6.665  65.243  1.00  0.00     0.000 HD 
HETATM   30  C   UNL     1     -10.347   7.071  66.765  1.00  0.00    -0.221 A  
HETATM   31  H1  UNL     1      -7.434   5.474  64.630  1.00  0.00     0.000 HD 
HETATM   32  N   UNL     1     -10.455   8.394  67.016  1.00  0.00    -0.318 NA 
HETATM   33  C   UNL     1      -9.372   9.050  66.553  1.00  0.00    -0.191 A  
ENDBRANCH  15  22
ENDBRANCH  12  13
ENDBRANCH  10  12
ENDBRANCH   9  10
ENDBRANCH   8   9
ENDBRANCH   1   8
TORSDOF 6
ENDMDL
MODEL      200
REMARK 921   NORMALIZED FREE ENERGY PREDICTED BY IDOCK:   -4.32 KCAL/MOL
REMARK 922        TOTAL FREE ENERGY PREDICTED BY IDOCK:   -7.25 KCAL/MOL
REMARK 923 INTER-LIGAND FREE ENERGY PREDICTED BY IDOCK:   -6.82 KCAL/MOL
REMARK 924 INTRA-LIGAND FREE ENERGY PREDICTED BY IDOCK:   -0.43 KCAL/MOL
REMARK 927      BINDING AFFINITY PREDICTED BY RF-SCORE:    0.00 PKD
ROOT
HETATM    1  CA  UNL     1     -10.420  15.662  66.042  1.00  0.00    -0.331 C  
HETATM    2  C   UNL     1     -11.210  15.556  64.683  1.00  0.00    -0.371 C  
HETATM    3  N   UNL     1      -9.484  16.840  65.961  1.00  0.00    -0.465 NA 
HETATM    4  OXT UNL     1     -11.515  14.377  64.338  1.00  0.00    -0.354 OA 
HETATM    5  H2  UNL     1      -9.021  17.038  66.848  1.00  0.00     0.000 HD 
HETATM    6  O   UNL     1     -11.428  16.657  64.104  1.00  0.00    -1.131 OA 
HETATM    7  H1  UNL     1      -8.825  16.668  65.201  1.00  0.00     0.000 HD 
ENDROOT
BRANCH   1   8
HETATM    8  C   UNL     1     -11.406  15.919  67.179  1.00  0.00     0.036 C  
BRANCH   8   9
HETATM    9  C   UNL     1     -10.757  16.343  68.500  1.00  0.00    -0.320 C  
BRANCH   9  10
HETATM   10  S   UNL     1     -10.765  14.935  69.699  1.00  0.00    -0.195 S  
HETATM   11  C   UNL     1     -12.366  15.361  70.448  1.00  0.00    -0.402 C  
BRANCH  10  12
HETATM   12  C   UNL     1     -11.404  13.664  68.529  1.00  0.00    -0.290 C  
BRANCH  12  13
HETATM   13  C   UNL     1     -10.353  12.573  68.285  1.00  0.00    -0.236 C  
HETATM   14  O   UNL     1     -10.337  11.632  69.377  1.00  0.00    -0.019 OA 
HETATM   15  C   UNL     1      -9.683  10.463  68.884  1.00  0.00    -0.198 C  
HETATM   16  C   UNL     1     -10.194  10.299  67.450  1.00  0.00    -0.218 C  
HETATM   17  H   UNL     1     -10.069  11.655  65.143  1.00  0.00     0.000 HD 
HETATM   18  O   UNL     1      -9.185   9.800  66.563  1.00  0.00    -0.148 OA 
HETATM   19  C   UNL     1     -10.627  11.717  67.046  1.00  0.00    -0.237 C  
HETATM   20  O   UNL     1      -9.899  12.186  65.912  1.00  0.00    -0.241 OA 
HETATM   21  H   UNL     1      -9.502   9.698  65.673  1.00  0.00     0.000 HD 
BRANCH  15  22
HETATM   22  N   UNL     1      -9.935   9.356  69.783  1.00  0.00    -0.187 NA 
HETATM   23  C   UNL     1     -10.181   9.436  71.128  1.00  0.00    -0.291 A  
HETATM   24  C   UNL     1      -9.736   7.390  70.712  1.00  0.00    -0.171 A  
HETATM   25  N   UNL     1     -10.059   8.265  71.723  1.00  0.00    -0.203 NA 
HETATM   26  C   UNL     1      -9.422   6.020  70.704  1.00  0.00    -0.168 A  
HETATM   27  N   UNL     1      -9.215   5.411  69.514  1.00  0.00    -0.114 NA 
HETATM   28  N   UNL     1      -9.288   5.262  71.859  1.00  0.00    -0.141 NA 
HETATM   29  H2  UNL     1     -10.148   5.373  72.396  1.00  0.00     0.000 HD 
HETATM   30  C   UNL     1      -9.266   6.162  68.394  1.00  0.00    -0.111 A  
HETATM   31  H1  UNL     1      -9.060   4.268  71.853  1.00  0.00     0.000 HD 
HETATM   32  N   UNL     1      -9.467   7.493  68.278  1.00  0.00    -0.144 NA 
HETATM   33  C   UNL     1      -9.714   8.037  69.486  1.00  0.00    -0.170 A  
ENDBRANCH  15  22
ENDBRANCH  12  13
ENDBRANCH  10  12
ENDBRANCH   9  10
ENDBRANCH   8   9
ENDBRANCH   1   8
TORSDOF 6
ENDMDL
MODEL      201
REMARK 921   NORMALIZED FREE ENERGY PREDICTED BY IDOCK:   -4.31 KCAL/MOL
REMARK 922        TOTAL FREE ENERGY PREDICTED BY IDOCK:   -7.24 KCAL/MOL
REMARK 923 INTER-LIGAND FREE ENERGY PREDICTED BY IDOCK:   -5.73 KCAL/MOL
REMARK 924 INTRA-LIGAND FREE ENERGY PREDICTED BY IDOCK:   -1.51 KCAL/MOL
REMARK 927      BINDING AFFINITY PREDICTED BY RF-SCORE:    0.00 PKD
ROOT
HETATM    1  CA  UNL     1      -7.787   5.361  71.312  1.00  0.00    -0.109 C  
HETATM    2  C   UNL     1      -6.989   4.501  70.260  1.00  0.00    -0.044 C  
HETATM    3  N   UNL     1      -8.175   6.667  70.667  1.00  0.00    -0.123 NA 
HETATM    4  OXT UNL     1      -6.100   3.749  70.756  1.00  0.00    -0.017 OA 
HETATM    5  H2  UNL     1      -8.793   7.228  71.253  1.00  0.00     0.000 HD 
HETATM    6  O   UNL     1      -7.327   4.680  69.057  1.00  0.00    -0.052 OA 
HETATM    7  H1  UNL     1      -7.320   7.159  70.411  1.00  0.00     0.000 HD 
ENDROOT
BRANCH   1   8
HETATM    8  C   UNL     1      -9.068   4.624  71.696  1.00  0.00    -0.172 C  
BRANCH   8   9
HETATM    9  C   UNL     1     -10.349   5.229  71.112  1.00  0.00    -0.221 C  
BRANCH   9  10
HETATM   10  S   UNL     1     -11.525   5.672  72.468  1.00  0.00    -0.226 S  
HETATM   11  C   UNL     1     -10.932   4.404  73.627  1.00  0.00    -0.293 C  
BRANCH  10  12
HETATM   12  C   UNL     1     -10.541   7.070  73.154  1.00  0.00    -0.318 C  
BRANCH  12  13
HETATM   13  C   UNL     1     -11.025   8.408  72.579  1.00  0.00    -0.318 C  
HETATM   14  O   UNL     1     -10.186   8.822  71.482  1.00  0.00    -0.244 OA 
HETATM   15  C   UNL     1     -10.934   9.794  70.754  1.00  0.00    -0.336 C  
HETATM   16  C   UNL     1     -12.372   9.265  70.749  1.00  0.00    -0.087 C  
HETATM   17  H   UNL     1     -14.293   8.754  72.545  1.00  0.00     0.000 HD 
HETATM   18  O   UNL     1     -13.342  10.316  70.842  1.00  0.00    -0.389 OA 
HETATM   19  C   UNL     1     -12.434   8.350  71.981  1.00  0.00    -0.359 C  
HETATM   20  O   UNL     1     -13.418   8.790  72.915  1.00  0.00    -0.299 OA 
HETATM   21  H   UNL     1     -14.234   9.988  70.839  1.00  0.00     0.000 HD 
BRANCH  15  22
HETATM   22  N   UNL     1     -10.325   9.999  69.457  1.00  0.00    -0.219 NA 
HETATM   23  C   UNL     1     -10.053  11.204  68.864  1.00  0.00    -0.186 A  
HETATM   24  C   UNL     1      -9.890   9.723  67.335  1.00  0.00    -0.174 A  
HETATM   25  N   UNL     1      -9.795  11.075  67.577  1.00  0.00    -0.168 NA 
HETATM   26  C   UNL     1      -9.784   8.958  66.160  1.00  0.00    -0.268 A  
HETATM   27  N   UNL     1      -9.856   7.611  66.259  1.00  0.00    -0.085 NA 
HETATM   28  N   UNL     1      -9.635   9.515  64.898  1.00  0.00    -0.446 NA 
HETATM   29  H2  UNL     1      -8.823  10.132  64.933  1.00  0.00     0.000 HD 
HETATM   30  C   UNL     1     -10.081   7.069  67.473  1.00  0.00    -0.185 A  
HETATM   31  H1  UNL     1      -9.558   8.960  64.046  1.00  0.00     0.000 HD 
HETATM   32  N   UNL     1     -10.288   7.695  68.652  1.00  0.00    -0.200 NA 
HETATM   33  C   UNL     1     -10.159   9.029  68.504  1.00  0.00    -0.190 A  
ENDBRANCH  15  22
ENDBRANCH  12  13
ENDBRANCH  10  12
ENDBRANCH   9  10
ENDBRANCH   8   9
ENDBRANCH   1   8
TORSDOF 6
ENDMDL
MODEL      202
REMARK 921   NORMALIZED FREE ENERGY PREDICTED BY IDOCK:   -4.31 KCAL/MOL
REMARK 922        TOTAL FREE ENERGY PREDICTED BY IDOCK:   -7.24 KCAL/MOL
REMARK 923 INTER-LIGAND FREE ENERGY PREDICTED BY IDOCK:   -6.17 KCAL/MOL
REMARK 924 INTRA-LIGAND FREE ENERGY PREDICTED BY IDOCK:   -1.08 KCAL/MOL
REMARK 927      BINDING AFFINITY PREDICTED BY RF-SCORE:    0.00 PKD
ROOT
HETATM    1  CA  UNL     1      -6.851   8.016  69.727  1.00  0.00    -0.044 C  
HETATM    2  C   UNL     1      -6.551   9.543  69.978  1.00  0.00    -0.065 C  
HETATM    3  N   UNL     1      -7.824   7.542  70.776  1.00  0.00    -0.096 NA 
HETATM    4  OXT UNL     1      -5.384   9.912  69.658  1.00  0.00    -0.034 OA 
HETATM    5  H2  UNL     1      -8.152   6.591  70.608  1.00  0.00     0.000 HD 
HETATM    6  O   UNL     1      -7.506  10.200  70.478  1.00  0.00    -0.281 OA 
HETATM    7  H1  UNL     1      -7.382   7.652  71.689  1.00  0.00     0.000 HD 
ENDROOT
BRANCH   1   8
HETATM    8  C   UNL     1      -7.512   7.851  68.360  1.00  0.00    -0.100 C  
BRANCH   8   9
HETATM    9  C   UNL     1      -8.027   6.438  68.070  1.00  0.00    -0.109 C  
BRANCH   9  10
HETATM   10  S   UNL     1      -9.819   6.489  67.616  1.00  0.00    -0.132 S  
HETATM   11  C   UNL     1      -9.772   4.998  66.578  1.00  0.00    -0.180 C  
BRANCH  10  12
HETATM   12  C   UNL     1     -10.447   5.672  69.143  1.00  0.00    -0.269 C  
BRANCH  12  13
HETATM   13  C   UNL     1     -10.715   6.708  70.242  1.00  0.00    -0.246 C  
HETATM   14  O   UNL     1     -10.737   8.039  69.690  1.00  0.00    -0.238 OA 
HETATM   15  C   UNL     1     -11.403   8.857  70.650  1.00  0.00    -0.259 C  
HETATM   16  C   UNL     1     -12.551   7.991  71.179  1.00  0.00    -0.162 C  
HETATM   17  H   UNL     1     -12.829   5.707  72.550  1.00  0.00     0.000 HD 
HETATM   18  O   UNL     1     -12.799   8.205  72.574  1.00  0.00    -0.553 OA 
HETATM   19  C   UNL     1     -12.079   6.553  70.919  1.00  0.00    -0.230 C  
HETATM   20  O   UNL     1     -11.982   5.804  72.130  1.00  0.00    -0.215 OA 
HETATM   21  H   UNL     1     -13.510   7.668  72.903  1.00  0.00     0.000 HD 
BRANCH  15  22
HETATM   22  N   UNL     1     -11.782  10.112  70.034  1.00  0.00    -0.246 NA 
HETATM   23  C   UNL     1     -11.441  10.540  68.778  1.00  0.00    -0.224 A  
HETATM   24  C   UNL     1     -12.181  12.248  69.822  1.00  0.00    -0.134 A  
HETATM   25  N   UNL     1     -11.661  11.831  68.619  1.00  0.00    -0.283 NA 
HETATM   26  C   UNL     1     -12.562  13.512  70.306  1.00  0.00    -0.152 A  
HETATM   27  N   UNL     1     -13.119  13.591  71.537  1.00  0.00    -0.355 NA 
HETATM   28  N   UNL     1     -12.372  14.689  69.597  1.00  0.00    -0.511 NA 
HETATM   29  H2  UNL     1     -12.814  14.568  68.685  1.00  0.00     0.000 HD 
HETATM   30  C   UNL     1     -13.231  12.459  72.263  1.00  0.00    -0.287 A  
HETATM   31  H1  UNL     1     -12.649  15.606  69.948  1.00  0.00     0.000 HD 
HETATM   32  N   UNL     1     -12.823  11.210  71.948  1.00  0.00    -0.373 NA 
HETATM   33  C   UNL     1     -12.321  11.182  70.697  1.00  0.00    -0.388 A  
ENDBRANCH  15  22
ENDBRANCH  12  13
ENDBRANCH  10  12
ENDBRANCH   9  10
ENDBRANCH   8   9
ENDBRANCH   1   8
TORSDOF 6
ENDMDL
MODEL      203
REMARK 921   NORMALIZED FREE ENERGY PREDICTED BY IDOCK:   -4.30 KCAL/MOL
REMARK 922        TOTAL FREE ENERGY PREDICTED BY IDOCK:   -7.22 KCAL/MOL
REMARK 923 INTER-LIGAND FREE ENERGY PREDICTED BY IDOCK:   -6.53 KCAL/MOL
REMARK 924 INTRA-LIGAND FREE ENERGY PREDICTED BY IDOCK:   -0.69 KCAL/MOL
REMARK 927      BINDING AFFINITY PREDICTED BY RF-SCORE:    0.00 PKD
ROOT
HETATM    1  CA  UNL     1      -7.662  13.412  68.161  1.00  0.00    -0.143 C  
HETATM    2  C   UNL     1      -6.473  12.771  67.349  1.00  0.00    -0.137 C  
HETATM    3  N   UNL     1      -7.163  13.766  69.539  1.00  0.00    -0.325 NA 
HETATM    4  OXT UNL     1      -6.822  11.894  66.505  1.00  0.00     0.004 OA 
HETATM    5  H2  UNL     1      -7.848  14.290  70.083  1.00  0.00     0.000 HD 
HETATM    6  O   UNL     1      -5.326  13.201  67.651  1.00  0.00    -0.193 OA 
HETATM    7  H1  UNL     1      -6.868  12.905  69.998  1.00  0.00     0.000 HD 
ENDROOT
BRANCH   1   8
HETATM    8  C   UNL     1      -8.104  14.702  67.473  1.00  0.00    -0.200 C  
BRANCH   8   9
HETATM    9  C   UNL     1      -7.552  15.982  68.107  1.00  0.00    -0.136 C  
BRANCH   9  10
HETATM   10  S   UNL     1      -8.853  16.800  69.135  1.00  0.00    -0.016 S  
HETATM   11  C   UNL     1      -8.298  18.496  68.791  1.00  0.00    -0.246 C  
BRANCH  10  12
HETATM   12  C   UNL     1     -10.189  16.748  67.868  1.00  0.00    -0.300 C  
BRANCH  12  13
HETATM   13  C   UNL     1     -11.263  15.722  68.254  1.00  0.00    -0.356 C  
HETATM   14  O   UNL     1     -11.176  14.555  67.414  1.00  0.00    -0.302 OA 
HETATM   15  C   UNL     1     -11.878  13.519  68.097  1.00  0.00    -0.365 C  
HETATM   16  C   UNL     1     -11.511  13.699  69.573  1.00  0.00    -0.263 C  
HETATM   17  H   UNL     1     -11.857  15.547  71.481  1.00  0.00     0.000 HD 
HETATM   18  O   UNL     1     -12.604  13.398  70.450  1.00  0.00    -0.259 OA 
HETATM   19  C   UNL     1     -11.115  15.180  69.678  1.00  0.00    -0.270 C  
HETATM   20  O   UNL     1     -11.949  15.883  70.597  1.00  0.00    -0.364 OA 
HETATM   21  H   UNL     1     -12.377  13.510  71.366  1.00  0.00     0.000 HD 
BRANCH  15  22
HETATM   22  N   UNL     1     -11.544  12.239  67.508  1.00  0.00    -0.362 NA 
HETATM   23  C   UNL     1     -11.027  11.151  68.160  1.00  0.00    -0.238 A  
HETATM   24  C   UNL     1     -10.767  10.789  66.072  1.00  0.00    -0.098 A  
HETATM   25  N   UNL     1     -10.539  10.257  67.321  1.00  0.00    -0.257 NA 
HETATM   26  C   UNL     1     -10.432  10.353  64.779  1.00  0.00    -0.016 A  
HETATM   27  N   UNL     1     -10.867  11.076  63.721  1.00  0.00    -0.260 NA 
HETATM   28  N   UNL     1      -9.653   9.232  64.529  1.00  0.00    -0.303 NA 
HETATM   29  H2  UNL     1     -10.091   8.446  65.010  1.00  0.00     0.000 HD 
HETATM   30  C   UNL     1     -11.556  12.211  63.961  1.00  0.00    -0.423 A  
HETATM   31  H1  UNL     1      -9.410   8.917  63.590  1.00  0.00     0.000 HD 
HETATM   32  N   UNL     1     -11.861  12.778  65.149  1.00  0.00    -0.367 NA 
HETATM   33  C   UNL     1     -11.446  11.994  66.164  1.00  0.00    -0.339 A  
ENDBRANCH  15  22
ENDBRANCH  12  13
ENDBRANCH  10  12
ENDBRANCH   9  10
ENDBRANCH   8   9
ENDBRANCH   1   8
TORSDOF 6
ENDMDL
MODEL      204
REMARK 921   NORMALIZED FREE ENERGY PREDICTED BY IDOCK:   -4.28 KCAL/MOL
REMARK 922        TOTAL FREE ENERGY PREDICTED BY IDOCK:   -7.21 KCAL/MOL
REMARK 923 INTER-LIGAND FREE ENERGY PREDICTED BY IDOCK:   -6.56 KCAL/MOL
REMARK 924 INTRA-LIGAND FREE ENERGY PREDICTED BY IDOCK:   -0.65 KCAL/MOL
REMARK 927      BINDING AFFINITY PREDICTED BY RF-SCORE:    0.00 PKD
ROOT
HETATM    1  CA  UNL     1      -5.890  10.291  66.347  1.00  0.00    -0.066 C  
HETATM    2  C   UNL     1      -5.586   9.141  65.312  1.00  0.00    -0.049 C  
HETATM    3  N   UNL     1      -5.130  11.523  65.929  1.00  0.00    -0.444 NA 
HETATM    4  OXT UNL     1      -5.591   7.974  65.801  1.00  0.00    -0.035 OA 
HETATM    5  H2  UNL     1      -5.367  12.341  66.490  1.00  0.00     0.000 HD 
HETATM    6  O   UNL     1      -5.365   9.530  64.131  1.00  0.00    -0.058 OA 
HETATM    7  H1  UNL     1      -4.134  11.303  65.954  1.00  0.00     0.000 HD 
ENDROOT
BRANCH   1   8
HETATM    8  C   UNL     1      -7.381  10.619  66.311  1.00  0.00    -0.137 C  
BRANCH   8   9
HETATM    9  C   UNL     1      -8.303   9.415  66.526  1.00  0.00    -0.119 C  
BRANCH   9  10
HETATM   10  S   UNL     1      -9.929   9.967  67.210  1.00  0.00    -0.209 S  
HETATM   11  C   UNL     1      -9.239  10.676  68.735  1.00  0.00    -0.180 C  
BRANCH  10  12
HETATM   12  C   UNL     1     -10.032  11.545  66.265  1.00  0.00    -0.220 C  
BRANCH  12  13
HETATM   13  C   UNL     1     -10.230  12.735  67.214  1.00  0.00    -0.232 C  
HETATM   14  O   UNL     1      -9.415  13.851  66.805  1.00  0.00    -0.260 OA 
HETATM   15  C   UNL     1      -9.969  15.001  67.440  1.00  0.00    -0.226 C  
HETATM   16  C   UNL     1     -11.486  14.808  67.357  1.00  0.00    -0.363 C  
HETATM   17  H   UNL     1     -13.311  13.090  68.301  1.00  0.00     0.000 HD 
HETATM   18  O   UNL     1     -12.165  15.298  68.520  1.00  0.00    -0.572 OA 
HETATM   19  C   UNL     1     -11.658  13.287  67.221  1.00  0.00    -0.359 C  
HETATM   20  O   UNL     1     -12.425  12.747  68.296  1.00  0.00     0.081 OA 
HETATM   21  H   UNL     1     -13.106  15.179  68.468  1.00  0.00     0.000 HD 
BRANCH  15  22
HETATM   22  N   UNL     1      -9.442  16.197  66.816  1.00  0.00    -0.227 NA 
HETATM   23  C   UNL     1      -8.318  16.284  66.038  1.00  0.00    -0.064 A  
HETATM   24  C   UNL     1      -8.845  18.283  66.570  1.00  0.00    -0.271 A  
HETATM   25  N   UNL     1      -7.923  17.532  65.877  1.00  0.00    -0.552 NA 
HETATM   26  C   UNL     1      -8.948  19.661  66.828  1.00  0.00    -0.354 A  
HETATM   27  N   UNL     1     -10.034  20.114  67.496  1.00  0.00    -0.419 NA 
HETATM   28  N   UNL     1      -7.977  20.580  66.457  1.00  0.00    -0.520 NA 
HETATM   29  H2  UNL     1      -7.823  20.471  65.455  1.00  0.00     0.000 HD 
HETATM   30  C   UNL     1     -10.941  19.213  67.929  1.00  0.00    -0.088 A  
HETATM   31  H1  UNL     1      -8.052  21.580  66.645  1.00  0.00     0.000 HD 
HETATM   32  N   UNL     1     -10.910  17.866  67.822  1.00  0.00    -0.317 NA 
HETATM   33  C   UNL     1      -9.834  17.476  67.111  1.00  0.00    -0.297 A  
ENDBRANCH  15  22
ENDBRANCH  12  13
ENDBRANCH  10  12
ENDBRANCH   9  10
ENDBRANCH   8   9
ENDBRANCH   1   8
TORSDOF 6
ENDMDL
MODEL      205
REMARK 921   NORMALIZED FREE ENERGY PREDICTED BY IDOCK:   -4.28 KCAL/MOL
REMARK 922        TOTAL FREE ENERGY PREDICTED BY IDOCK:   -7.20 KCAL/MOL
REMARK 923 INTER-LIGAND FREE ENERGY PREDICTED BY IDOCK:   -7.29 KCAL/MOL
REMARK 924 INTRA-LIGAND FREE ENERGY PREDICTED BY IDOCK:    0.10 KCAL/MOL
REMARK 927      BINDING AFFINITY PREDICTED BY RF-SCORE:    0.00 PKD
ROOT
HETATM    1  CA  UNL     1      -8.266   6.562  70.758  1.00  0.00    -0.125 C  
HETATM    2  C   UNL     1      -7.963   5.829  69.396  1.00  0.00    -0.097 C  
HETATM    3  N   UNL     1      -7.658   5.759  71.879  1.00  0.00    -0.095 NA 
HETATM    4  OXT UNL     1      -8.856   5.966  68.510  1.00  0.00    -0.112 OA 
HETATM    5  H2  UNL     1      -7.718   6.233  72.780  1.00  0.00     0.000 HD 
HETATM    6  O   UNL     1      -6.875   5.188  69.365  1.00  0.00    -0.050 OA 
HETATM    7  H1  UNL     1      -8.101   4.841  71.886  1.00  0.00     0.000 HD 
ENDROOT
BRANCH   1   8
HETATM    8  C   UNL     1      -7.603   7.938  70.748  1.00  0.00    -0.078 C  
BRANCH   8   9
HETATM    9  C   UNL     1      -6.563   8.133  69.640  1.00  0.00    -0.037 C  
BRANCH   9  10
HETATM   10  S   UNL     1      -7.104   9.469  68.481  1.00  0.00    -0.070 S  
HETATM   11  C   UNL     1      -7.024   8.438  66.987  1.00  0.00    -0.074 C  
BRANCH  10  12
HETATM   12  C   UNL     1      -8.913   9.284  68.775  1.00  0.00    -0.132 C  
BRANCH  12  13
HETATM   13  C   UNL     1      -9.535  10.624  69.192  1.00  0.00    -0.170 C  
HETATM   14  O   UNL     1      -9.233  11.647  68.222  1.00  0.00    -0.177 OA 
HETATM   15  C   UNL     1     -10.175  12.694  68.442  1.00  0.00    -0.232 C  
HETATM   16  C   UNL     1     -11.497  11.982  68.742  1.00  0.00    -0.300 C  
HETATM   17  H   UNL     1     -12.477  10.354  70.630  1.00  0.00     0.000 HD 
HETATM   18  O   UNL     1     -12.282  12.673  69.723  1.00  0.00    -0.244 OA 
HETATM   19  C   UNL     1     -11.064  10.601  69.259  1.00  0.00    -0.252 C  
HETATM   20  O   UNL     1     -11.528  10.368  70.588  1.00  0.00    -0.317 OA 
HETATM   21  H   UNL     1     -13.101  12.231  69.909  1.00  0.00     0.000 HD 
BRANCH  15  22
HETATM   22  N   UNL     1     -10.176  13.589  67.303  1.00  0.00    -0.240 NA 
HETATM   23  C   UNL     1      -9.572  14.816  67.229  1.00  0.00    -0.223 A  
HETATM   24  C   UNL     1     -10.917  14.699  65.575  1.00  0.00    -0.340 A  
HETATM   25  N   UNL     1     -10.005  15.519  66.200  1.00  0.00    -0.286 NA 
HETATM   26  C   UNL     1     -11.760  14.887  64.466  1.00  0.00    -0.382 A  
HETATM   27  N   UNL     1     -12.508  13.843  64.040  1.00  0.00    -0.706 NA 
HETATM   28  N   UNL     1     -11.884  16.097  63.799  1.00  0.00    -1.368 NA 
HETATM   29  H2  UNL     1     -10.947  16.387  63.520  1.00  0.00     0.000 HD 
HETATM   30  C   UNL     1     -12.450  12.688  64.735  1.00  0.00    -0.484 A  
HETATM   31  H1  UNL     1     -12.496  16.232  62.994  1.00  0.00     0.000 HD 
HETATM   32  N   UNL     1     -11.754  12.414  65.860  1.00  0.00    -0.414 NA 
HETATM   33  C   UNL     1     -10.994  13.470  66.211  1.00  0.00    -0.289 A  
ENDBRANCH  15  22
ENDBRANCH  12  13
ENDBRANCH  10  12
ENDBRANCH   9  10
ENDBRANCH   8   9
ENDBRANCH   1   8
TORSDOF 6
ENDMDL
MODEL      206
REMARK 921   NORMALIZED FREE ENERGY PREDICTED BY IDOCK:   -4.28 KCAL/MOL
REMARK 922        TOTAL FREE ENERGY PREDICTED BY IDOCK:   -7.20 KCAL/MOL
REMARK 923 INTER-LIGAND FREE ENERGY PREDICTED BY IDOCK:   -6.17 KCAL/MOL
REMARK 924 INTRA-LIGAND FREE ENERGY PREDICTED BY IDOCK:   -1.02 KCAL/MOL
REMARK 927      BINDING AFFINITY PREDICTED BY RF-SCORE:    0.00 PKD
ROOT
HETATM    1  CA  UNL     1      -7.806   4.873  71.096  1.00  0.00    -0.088 C  
HETATM    2  C   UNL     1      -7.173   3.750  70.189  1.00  0.00    -0.041 C  
HETATM    3  N   UNL     1      -7.639   6.199  70.400  1.00  0.00    -0.094 NA 
HETATM    4  OXT UNL     1      -6.669   2.778  70.825  1.00  0.00    -0.031 OA 
HETATM    5  H2  UNL     1      -8.127   6.958  70.876  1.00  0.00     0.000 HD 
HETATM    6  O   UNL     1      -7.236   3.967  68.947  1.00  0.00    -0.053 OA 
HETATM    7  H1  UNL     1      -6.641   6.377  70.294  1.00  0.00     0.000 HD 
ENDROOT
BRANCH   1   8
HETATM    8  C   UNL     1      -9.302   4.607  71.254  1.00  0.00    -0.205 C  
BRANCH   8   9
HETATM    9  C   UNL     1     -10.199   5.478  70.370  1.00  0.00    -0.251 C  
BRANCH   9  10
HETATM   10  S   UNL     1     -11.414   6.409  71.408  1.00  0.00    -0.302 S  
HETATM   11  C   UNL     1     -11.277   5.312  72.851  1.00  0.00    -0.312 C  
BRANCH  10  12
HETATM   12  C   UNL     1     -10.239   7.697  72.003  1.00  0.00    -0.197 C  
BRANCH  12  13
HETATM   13  C   UNL     1     -10.654   9.085  71.496  1.00  0.00    -0.345 C  
HETATM   14  O   UNL     1     -10.192   9.291  70.147  1.00  0.00    -0.189 OA 
HETATM   15  C   UNL     1     -10.966  10.367  69.621  1.00  0.00    -0.277 C  
HETATM   16  C   UNL     1     -12.384  10.131  70.151  1.00  0.00    -0.074 C  
HETATM   17  H   UNL     1     -13.615  10.066  72.529  1.00  0.00     0.000 HD 
HETATM   18  O   UNL     1     -13.063  11.354  70.462  1.00  0.00    -0.025 OA 
HETATM   19  C   UNL     1     -12.170   9.286  71.416  1.00  0.00    -0.349 C  
HETATM   20  O   UNL     1     -12.675   9.941  72.578  1.00  0.00    -0.196 OA 
HETATM   21  H   UNL     1     -13.942  11.208  70.791  1.00  0.00     0.000 HD 
BRANCH  15  22
HETATM   22  N   UNL     1     -10.822  10.406  68.180  1.00  0.00    -0.243 NA 
HETATM   23  C   UNL     1     -10.071   9.555  67.412  1.00  0.00    -0.208 A  
HETATM   24  C   UNL     1     -10.561  11.223  66.172  1.00  0.00    -0.258 A  
HETATM   25  N   UNL     1      -9.885  10.024  66.193  1.00  0.00    -0.230 NA 
HETATM   26  C   UNL     1     -10.696  12.220  65.192  1.00  0.00    -0.293 A  
HETATM   27  N   UNL     1     -11.505  13.274  65.450  1.00  0.00    -0.300 NA 
HETATM   28  N   UNL     1     -10.022  12.195  63.979  1.00  0.00    -0.506 NA 
HETATM   29  H2  UNL     1     -10.233  11.302  63.534  1.00  0.00     0.000 HD 
HETATM   30  C   UNL     1     -12.099  13.344  66.659  1.00  0.00    -0.373 A  
HETATM   31  H1  UNL     1     -10.120  12.919  63.268  1.00  0.00     0.000 HD 
HETATM   32  N   UNL     1     -11.978  12.502  67.709  1.00  0.00    -0.429 NA 
HETATM   33  C   UNL     1     -11.202  11.450  67.380  1.00  0.00    -0.305 A  
ENDBRANCH  15  22
ENDBRANCH  12  13
ENDBRANCH  10  12
ENDBRANCH   9  10
ENDBRANCH   8   9
ENDBRANCH   1   8
TORSDOF 6
ENDMDL
MODEL      207
REMARK 921   NORMALIZED FREE ENERGY PREDICTED BY IDOCK:   -4.27 KCAL/MOL
REMARK 922        TOTAL FREE ENERGY PREDICTED BY IDOCK:   -7.19 KCAL/MOL
REMARK 923 INTER-LIGAND FREE ENERGY PREDICTED BY IDOCK:   -6.38 KCAL/MOL
REMARK 924 INTRA-LIGAND FREE ENERGY PREDICTED BY IDOCK:   -0.81 KCAL/MOL
REMARK 927      BINDING AFFINITY PREDICTED BY RF-SCORE:    0.00 PKD
ROOT
HETATM    1  CA  UNL     1     -11.788  13.941  64.851  1.00  0.00    -0.387 C  
HETATM    2  C   UNL     1     -11.617  15.456  64.451  1.00  0.00    -0.264 C  
HETATM    3  N   UNL     1     -13.248  13.681  65.123  1.00  0.00    -0.667 NA 
HETATM    4  OXT UNL     1     -10.516  15.975  64.800  1.00  0.00    -0.564 OA 
HETATM    5  H2  UNL     1     -13.449  12.693  65.278  1.00  0.00     0.000 HD 
HETATM    6  O   UNL     1     -12.602  15.964  63.847  1.00  0.00    -0.719 OA 
HETATM    7  H1  UNL     1     -13.533  14.270  65.906  1.00  0.00     0.000 HD 
ENDROOT
BRANCH   1   8
HETATM    8  C   UNL     1     -11.361  13.060  63.680  1.00  0.00    -0.392 C  
BRANCH   8   9
HETATM    9  C   UNL     1      -9.969  12.438  63.827  1.00  0.00    -0.215 C  
BRANCH   9  10
HETATM   10  S   UNL     1     -10.110  10.656  64.299  1.00  0.00    -0.304 S  
HETATM   11  C   UNL     1      -9.096  10.037  62.923  1.00  0.00    -0.286 C  
BRANCH  10  12
HETATM   12  C   UNL     1      -8.772  10.665  65.566  1.00  0.00    -0.188 C  
BRANCH  12  13
HETATM   13  C   UNL     1      -9.266  10.047  66.881  1.00  0.00    -0.147 C  
HETATM   14  O   UNL     1      -9.271   8.608  66.795  1.00  0.00    -0.151 OA 
HETATM   15  C   UNL     1      -9.310   8.130  68.137  1.00  0.00    -0.133 C  
HETATM   16  C   UNL     1      -8.383   9.066  68.919  1.00  0.00    -0.125 C  
HETATM   17  H   UNL     1      -8.298  11.661  69.574  1.00  0.00     0.000 HD 
HETATM   18  O   UNL     1      -8.858   9.322  70.247  1.00  0.00    -0.183 OA 
HETATM   19  C   UNL     1      -8.369  10.355  68.083  1.00  0.00    -0.117 C  
HETATM   20  O   UNL     1      -8.854  11.470  68.828  1.00  0.00    -0.138 OA 
HETATM   21  H   UNL     1      -8.284   9.903  70.732  1.00  0.00     0.000 HD 
BRANCH  15  22
HETATM   22  N   UNL     1      -8.962   6.724  68.158  1.00  0.00    -0.120 NA 
HETATM   23  C   UNL     1      -8.585   5.961  67.085  1.00  0.00    -0.106 A  
HETATM   24  C   UNL     1      -9.053   4.601  68.663  1.00  0.00    -0.117 A  
HETATM   25  N   UNL     1      -8.638   4.670  67.353  1.00  0.00    -0.104 NA 
HETATM   26  C   UNL     1      -9.356   3.520  69.508  1.00  0.00    -0.173 A  
HETATM   27  N   UNL     1      -9.676   3.778  70.798  1.00  0.00    -0.181 NA 
HETATM   28  N   UNL     1      -9.370   2.200  69.083  1.00  0.00    -0.132 NA 
HETATM   29  H2  UNL     1      -8.462   2.008  68.659  1.00  0.00     0.000 HD 
HETATM   30  C   UNL     1      -9.743   5.066  71.195  1.00  0.00    -0.178 A  
HETATM   31  H1  UNL     1      -9.590   1.415  69.697  1.00  0.00     0.000 HD 
HETATM   32  N   UNL     1      -9.563   6.186  70.461  1.00  0.00    -0.167 NA 
HETATM   33  C   UNL     1      -9.202   5.870  69.202  1.00  0.00    -0.121 A  
ENDBRANCH  15  22
ENDBRANCH  12  13
ENDBRANCH  10  12
ENDBRANCH   9  10
ENDBRANCH   8   9
ENDBRANCH   1   8
TORSDOF 6
ENDMDL
MODEL      208
REMARK 921   NORMALIZED FREE ENERGY PREDICTED BY IDOCK:   -4.26 KCAL/MOL
REMARK 922        TOTAL FREE ENERGY PREDICTED BY IDOCK:   -7.17 KCAL/MOL
REMARK 923 INTER-LIGAND FREE ENERGY PREDICTED BY IDOCK:   -6.19 KCAL/MOL
REMARK 924 INTRA-LIGAND FREE ENERGY PREDICTED BY IDOCK:   -0.98 KCAL/MOL
REMARK 927      BINDING AFFINITY PREDICTED BY RF-SCORE:    0.00 PKD
ROOT
HETATM    1  CA  UNL     1     -10.863  14.458  64.898  1.00  0.00    -0.416 C  
HETATM    2  C   UNL     1     -11.733  13.561  63.938  1.00  0.00    -0.368 C  
HETATM    3  N   UNL     1     -10.931  15.883  64.412  1.00  0.00    -0.893 NA 
HETATM    4  OXT UNL     1     -11.311  12.376  63.795  1.00  0.00    -0.389 OA 
HETATM    5  H2  UNL     1     -10.482  16.539  65.051  1.00  0.00     0.000 HD 
HETATM    6  O   UNL     1     -12.731  14.139  63.425  1.00  0.00    -0.767 OA 
HETATM    7  H1  UNL     1     -10.536  15.915  63.472  1.00  0.00     0.000 HD 
ENDROOT
BRANCH   1   8
HETATM    8  C   UNL     1     -11.454  14.410  66.305  1.00  0.00    -0.361 C  
BRANCH   8   9
HETATM    9  C   UNL     1     -10.414  14.376  67.430  1.00  0.00    -0.261 C  
BRANCH   9  10
HETATM   10  S   UNL     1     -10.836  13.055  68.653  1.00  0.00    -0.251 S  
HETATM   11  C   UNL     1     -11.879  12.097  67.513  1.00  0.00    -0.237 C  
BRANCH  10  12
HETATM   12  C   UNL     1      -9.301  12.061  68.429  1.00  0.00    -0.175 C  
BRANCH  12  13
HETATM   13  C   UNL     1      -9.639  10.578  68.229  1.00  0.00    -0.158 C  
HETATM   14  O   UNL     1      -9.098  10.098  66.982  1.00  0.00    -0.138 OA 
HETATM   15  C   UNL     1      -9.071   8.676  67.081  1.00  0.00    -0.133 C  
HETATM   16  C   UNL     1      -8.632   8.388  68.520  1.00  0.00    -0.136 C  
HETATM   17  H   UNL     1      -9.578   8.800  70.992  1.00  0.00     0.000 HD 
HETATM   18  O   UNL     1      -9.279   7.233  69.069  1.00  0.00    -0.140 OA 
HETATM   19  C   UNL     1      -9.028   9.657  69.289  1.00  0.00    -0.172 C  
HETATM   20  O   UNL     1      -9.956   9.371  70.334  1.00  0.00    -0.216 OA 
HETATM   21  H   UNL     1      -9.007   7.054  69.962  1.00  0.00     0.000 HD 
BRANCH  15  22
HETATM   22  N   UNL     1      -8.226   8.136  66.036  1.00  0.00    -0.114 NA 
HETATM   23  C   UNL     1      -7.517   8.853  65.108  1.00  0.00    -0.097 A  
HETATM   24  C   UNL     1      -7.555   6.833  64.417  1.00  0.00    -0.104 A  
HETATM   25  N   UNL     1      -7.105   8.097  64.109  1.00  0.00    -0.080 NA 
HETATM   26  C   UNL     1      -7.492   5.608  63.731  1.00  0.00    -0.064 A  
HETATM   27  N   UNL     1      -7.975   4.501  64.341  1.00  0.00    -0.092 NA 
HETATM   28  N   UNL     1      -6.983   5.478  62.447  1.00  0.00    -0.039 NA 
HETATM   29  H2  UNL     1      -6.041   5.871  62.453  1.00  0.00     0.000 HD 
HETATM   30  C   UNL     1      -8.545   4.636  65.557  1.00  0.00    -0.127 A  
HETATM   31  H1  UNL     1      -6.937   4.589  61.950  1.00  0.00     0.000 HD 
HETATM   32  N   UNL     1      -8.745   5.764  66.274  1.00  0.00    -0.129 NA 
HETATM   33  C   UNL     1      -8.203   6.824  65.643  1.00  0.00    -0.134 A  
ENDBRANCH  15  22
ENDBRANCH  12  13
ENDBRANCH  10  12
ENDBRANCH   9  10
ENDBRANCH   8   9
ENDBRANCH   1   8
TORSDOF 6
ENDMDL
MODEL      209
REMARK 921   NORMALIZED FREE ENERGY PREDICTED BY IDOCK:   -4.25 KCAL/MOL
REMARK 922        TOTAL FREE ENERGY PREDICTED BY IDOCK:   -7.17 KCAL/MOL
REMARK 923 INTER-LIGAND FREE ENERGY PREDICTED BY IDOCK:   -6.95 KCAL/MOL
REMARK 924 INTRA-LIGAND FREE ENERGY PREDICTED BY IDOCK:   -0.22 KCAL/MOL
REMARK 927      BINDING AFFINITY PREDICTED BY RF-SCORE:    0.00 PKD
ROOT
HETATM    1  CA  UNL     1     -11.159  14.133  65.266  1.00  0.00    -0.331 C  
HETATM    2  C   UNL     1     -12.491  13.295  65.365  1.00  0.00    -0.489 C  
HETATM    3  N   UNL     1     -11.488  15.487  64.692  1.00  0.00    -0.557 NA 
HETATM    4  OXT UNL     1     -12.344  12.048  65.207  1.00  0.00    -0.442 OA 
HETATM    5  H2  UNL     1     -10.692  16.124  64.705  1.00  0.00     0.000 HD 
HETATM    6  O   UNL     1     -13.535  13.973  65.574  1.00  0.00    -0.677 OA 
HETATM    7  H1  UNL     1     -11.868  15.349  63.756  1.00  0.00     0.000 HD 
ENDROOT
BRANCH   1   8
HETATM    8  C   UNL     1     -10.590  14.339  66.668  1.00  0.00    -0.278 C  
BRANCH   8   9
HETATM    9  C   UNL     1      -9.116  13.951  66.819  1.00  0.00    -0.223 C  
BRANCH   9  10
HETATM   10  S   UNL     1      -8.965  12.354  67.738  1.00  0.00    -0.192 S  
HETATM   11  C   UNL     1      -9.166  11.297  66.273  1.00  0.00    -0.200 C  
BRANCH  10  12
HETATM   12  C   UNL     1      -7.123  12.310  67.786  1.00  0.00    -0.114 C  
BRANCH  12  13
HETATM   13  C   UNL     1      -6.629  11.020  68.455  1.00  0.00    -0.058 C  
HETATM   14  O   UNL     1      -7.225  10.864  69.757  1.00  0.00    -0.136 OA 
HETATM   15  C   UNL     1      -7.069   9.489  70.103  1.00  0.00    -0.099 C  
HETATM   16  C   UNL     1      -7.329   8.722  68.803  1.00  0.00    -0.083 C  
HETATM   17  H   UNL     1      -6.205   8.507  66.381  1.00  0.00     0.000 HD 
HETATM   18  O   UNL     1      -6.496   7.563  68.675  1.00  0.00    -0.042 OA 
HETATM   19  C   UNL     1      -7.017   9.746  67.701  1.00  0.00    -0.086 C  
HETATM   20  O   UNL     1      -5.964   9.298  66.849  1.00  0.00    -0.057 OA 
HETATM   21  H   UNL     1      -6.656   7.087  67.869  1.00  0.00     0.000 HD 
BRANCH  15  22
HETATM   22  N   UNL     1      -7.939   9.170  71.216  1.00  0.00    -0.325 NA 
HETATM   23  C   UNL     1      -7.577   8.548  72.382  1.00  0.00    -0.036 A  
HETATM   24  C   UNL     1      -9.709   8.494  72.301  1.00  0.00    -0.310 A  
HETATM   25  N   UNL     1      -8.624   8.117  73.059  1.00  0.00    -0.201 NA 
HETATM   26  C   UNL     1     -11.091   8.281  72.447  1.00  0.00    -0.377 A  
HETATM   27  N   UNL     1     -11.931   8.852  71.553  1.00  0.00    -0.312 NA 
HETATM   28  N   UNL     1     -11.639   7.492  73.448  1.00  0.00    -0.533 NA 
HETATM   29  H2  UNL     1     -11.291   7.847  74.339  1.00  0.00     0.000 HD 
HETATM   30  C   UNL     1     -11.397   9.554  70.531  1.00  0.00    -0.283 A  
HETATM   31  H1  UNL     1     -12.642   7.337  73.554  1.00  0.00     0.000 HD 
HETATM   32  N   UNL     1     -10.095   9.753  70.234  1.00  0.00    -0.262 NA 
HETATM   33  C   UNL     1      -9.307   9.205  71.180  1.00  0.00    -0.243 A  
ENDBRANCH  15  22
ENDBRANCH  12  13
ENDBRANCH  10  12
ENDBRANCH   9  10
ENDBRANCH   8   9
ENDBRANCH   1   8
TORSDOF 6
ENDMDL
MODEL      210
REMARK 921   NORMALIZED FREE ENERGY PREDICTED BY IDOCK:   -4.25 KCAL/MOL
REMARK 922        TOTAL FREE ENERGY PREDICTED BY IDOCK:   -7.16 KCAL/MOL
REMARK 923 INTER-LIGAND FREE ENERGY PREDICTED BY IDOCK:   -6.31 KCAL/MOL
REMARK 924 INTRA-LIGAND FREE ENERGY PREDICTED BY IDOCK:   -0.85 KCAL/MOL
REMARK 927      BINDING AFFINITY PREDICTED BY RF-SCORE:    0.00 PKD
ROOT
HETATM    1  CA  UNL     1     -10.099   9.568  70.878  1.00  0.00    -0.260 C  
HETATM    2  C   UNL     1     -11.414   9.385  71.727  1.00  0.00    -0.343 C  
HETATM    3  N   UNL     1      -8.940   9.016  71.667  1.00  0.00    -0.351 NA 
HETATM    4  OXT UNL     1     -12.287  10.285  71.551  1.00  0.00    -0.375 OA 
HETATM    5  H2  UNL     1      -8.072   8.998  71.132  1.00  0.00     0.000 HD 
HETATM    6  O   UNL     1     -11.426   8.374  72.484  1.00  0.00    -0.380 OA 
HETATM    7  H1  UNL     1      -8.860   9.555  72.529  1.00  0.00     0.000 HD 
ENDROOT
BRANCH   1   8
HETATM    8  C   UNL     1     -10.218   8.761  69.586  1.00  0.00    -0.210 C  
BRANCH   8   9
HETATM    9  C   UNL     1      -8.885   8.488  68.883  1.00  0.00    -0.139 C  
BRANCH   9  10
HETATM   10  S   UNL     1      -8.961   9.055  67.124  1.00  0.00    -0.131 S  
HETATM   11  C   UNL     1      -9.219   7.397  66.424  1.00  0.00    -0.159 C  
BRANCH  10  12
HETATM   12  C   UNL     1     -10.732   9.562  67.141  1.00  0.00    -0.182 C  
BRANCH  12  13
HETATM   13  C   UNL     1     -10.924  10.886  66.390  1.00  0.00    -0.088 C  
HETATM   14  O   UNL     1     -10.806  12.003  67.294  1.00  0.00    -0.227 OA 
HETATM   15  C   UNL     1     -10.561  13.148  66.480  1.00  0.00    -0.284 C  
HETATM   16  C   UNL     1      -9.605  12.661  65.387  1.00  0.00     0.032 C  
HETATM   17  H   UNL     1      -9.655  10.912  63.360  1.00  0.00     0.000 HD 
HETATM   18  O   UNL     1      -9.860  13.282  64.120  1.00  0.00    -0.707 OA 
HETATM   19  C   UNL     1      -9.862  11.148  65.318  1.00  0.00    -0.249 C  
HETATM   20  O   UNL     1     -10.313  10.749  64.025  1.00  0.00    -0.354 OA 
HETATM   21  H   UNL     1      -9.267  12.980  63.442  1.00  0.00     0.000 HD 
BRANCH  15  22
HETATM   22  N   UNL     1     -10.082  14.235  67.309  1.00  0.00    -0.250 NA 
HETATM   23  C   UNL     1     -10.567  15.516  67.337  1.00  0.00    -0.292 A  
HETATM   24  C   UNL     1      -8.684  15.558  68.341  1.00  0.00    -0.174 A  
HETATM   25  N   UNL     1      -9.741  16.345  67.945  1.00  0.00    -0.232 NA 
HETATM   26  C   UNL     1      -7.467  15.852  68.979  1.00  0.00    -0.194 A  
HETATM   27  N   UNL     1      -6.645  14.828  69.306  1.00  0.00    -0.117 NA 
HETATM   28  N   UNL     1      -7.050  17.143  69.268  1.00  0.00    -0.209 NA 
HETATM   29  H2  UNL     1      -7.791  17.587  69.810  1.00  0.00     0.000 HD 
HETATM   30  C   UNL     1      -7.010  13.577  68.955  1.00  0.00    -0.108 A  
HETATM   31  H1  UNL     1      -6.166  17.357  69.730  1.00  0.00     0.000 HD 
HETATM   32  N   UNL     1      -8.101  13.179  68.266  1.00  0.00    -0.148 NA 
HETATM   33  C   UNL     1      -8.904  14.230  68.009  1.00  0.00    -0.178 A  
ENDBRANCH  15  22
ENDBRANCH  12  13
ENDBRANCH  10  12
ENDBRANCH   9  10
ENDBRANCH   8   9
ENDBRANCH   1   8
TORSDOF 6
ENDMDL
MODEL      211
REMARK 921   NORMALIZED FREE ENERGY PREDICTED BY IDOCK:   -4.25 KCAL/MOL
REMARK 922        TOTAL FREE ENERGY PREDICTED BY IDOCK:   -7.15 KCAL/MOL
REMARK 923 INTER-LIGAND FREE ENERGY PREDICTED BY IDOCK:   -6.37 KCAL/MOL
REMARK 924 INTRA-LIGAND FREE ENERGY PREDICTED BY IDOCK:   -0.78 KCAL/MOL
REMARK 927      BINDING AFFINITY PREDICTED BY RF-SCORE:    0.00 PKD
ROOT
HETATM    1  CA  UNL     1     -12.488   8.033  71.695  1.00  0.00    -0.320 C  
HETATM    2  C   UNL     1     -12.683   9.567  71.389  1.00  0.00    -0.358 C  
HETATM    3  N   UNL     1     -12.383   7.295  70.386  1.00  0.00    -0.568 NA 
HETATM    4  OXT UNL     1     -13.384  10.192  72.239  1.00  0.00    -0.415 OA 
HETATM    5  H2  UNL     1     -12.142   6.311  70.506  1.00  0.00     0.000 HD 
HETATM    6  O   UNL     1     -12.128   9.976  70.331  1.00  0.00    -0.258 OA 
HETATM    7  H1  UNL     1     -13.257   7.427  69.878  1.00  0.00     0.000 HD 
ENDROOT
BRANCH   1   8
HETATM    8  C   UNL     1     -11.179   7.835  72.456  1.00  0.00    -0.419 C  
BRANCH   8   9
HETATM    9  C   UNL     1      -9.978   8.574  71.858  1.00  0.00    -0.294 C  
BRANCH   9  10
HETATM   10  S   UNL     1      -8.490   7.476  71.847  1.00  0.00    -0.110 S  
HETATM   11  C   UNL     1      -9.083   6.403  70.504  1.00  0.00    -0.155 C  
BRANCH  10  12
HETATM   12  C   UNL     1      -7.431   8.564  70.804  1.00  0.00    -0.072 C  
BRANCH  12  13
HETATM   13  C   UNL     1      -7.756   8.373  69.316  1.00  0.00    -0.098 C  
HETATM   14  O   UNL     1      -8.462   9.518  68.800  1.00  0.00    -0.118 OA 
HETATM   15  C   UNL     1      -8.335   9.458  67.381  1.00  0.00    -0.125 C  
HETATM   16  C   UNL     1      -6.896   8.994  67.132  1.00  0.00    -0.074 C  
HETATM   17  H   UNL     1      -5.414   6.817  67.616  1.00  0.00     0.000 HD 
HETATM   18  O   UNL     1      -6.789   8.128  65.995  1.00  0.00    -0.056 OA 
HETATM   19  C   UNL     1      -6.517   8.254  68.424  1.00  0.00    -0.059 C  
HETATM   20  O   UNL     1      -6.182   6.891  68.170  1.00  0.00    -0.031 OA 
HETATM   21  H   UNL     1      -5.897   7.840  65.841  1.00  0.00     0.000 HD 
BRANCH  15  22
HETATM   22  N   UNL     1      -8.701  10.737  66.809  1.00  0.00    -0.141 NA 
HETATM   23  C   UNL     1      -8.912  11.906  67.492  1.00  0.00    -0.171 A  
HETATM   24  C   UNL     1      -9.710  12.194  65.533  1.00  0.00    -0.181 A  
HETATM   25  N   UNL     1      -9.530  12.806  66.753  1.00  0.00    -0.237 NA 
HETATM   26  C   UNL     1     -10.351  12.601  64.351  1.00  0.00    -0.360 A  
HETATM   27  N   UNL     1     -10.296  11.785  63.273  1.00  0.00    -0.417 NA 
HETATM   28  N   UNL     1     -11.061  13.788  64.238  1.00  0.00    -0.576 NA 
HETATM   29  H2  UNL     1     -10.436  14.543  64.519  1.00  0.00     0.000 HD 
HETATM   30  C   UNL     1      -9.676  10.594  63.402  1.00  0.00    -0.339 A  
HETATM   31  H1  UNL     1     -11.526  14.083  63.379  1.00  0.00     0.000 HD 
HETATM   32  N   UNL     1      -9.105  10.055  64.502  1.00  0.00    -0.222 NA 
HETATM   33  C   UNL     1      -9.147  10.927  65.528  1.00  0.00    -0.201 A  
ENDBRANCH  15  22
ENDBRANCH  12  13
ENDBRANCH  10  12
ENDBRANCH   9  10
ENDBRANCH   8   9
ENDBRANCH   1   8
TORSDOF 6
ENDMDL
MODEL      212
REMARK 921   NORMALIZED FREE ENERGY PREDICTED BY IDOCK:   -4.24 KCAL/MOL
REMARK 922        TOTAL FREE ENERGY PREDICTED BY IDOCK:   -7.14 KCAL/MOL
REMARK 923 INTER-LIGAND FREE ENERGY PREDICTED BY IDOCK:   -7.08 KCAL/MOL
REMARK 924 INTRA-LIGAND FREE ENERGY PREDICTED BY IDOCK:   -0.06 KCAL/MOL
REMARK 927      BINDING AFFINITY PREDICTED BY RF-SCORE:    0.00 PKD
ROOT
HETATM    1  CA  UNL     1      -6.607   9.240  68.836  1.00  0.00    -0.048 C  
HETATM    2  C   UNL     1      -7.361   9.973  70.010  1.00  0.00    -0.167 C  
HETATM    3  N   UNL     1      -7.183   7.854  68.691  1.00  0.00    -0.079 NA 
HETATM    4  OXT UNL     1      -6.655  10.801  70.657  1.00  0.00    -0.332 OA 
HETATM    5  H2  UNL     1      -6.821   7.361  67.876  1.00  0.00     0.000 HD 
HETATM    6  O   UNL     1      -8.568   9.634  70.165  1.00  0.00    -0.193 OA 
HETATM    7  H1  UNL     1      -7.018   7.351  69.563  1.00  0.00     0.000 HD 
ENDROOT
BRANCH   1   8
HETATM    8  C   UNL     1      -6.854   9.993  67.532  1.00  0.00    -0.081 C  
BRANCH   8   9
HETATM    9  C   UNL     1      -8.219  10.683  67.444  1.00  0.00    -0.115 C  
BRANCH   9  10
HETATM   10  S   UNL     1      -9.339   9.745  66.310  1.00  0.00    -0.194 S  
HETATM   11  C   UNL     1     -10.763   9.749  67.440  1.00  0.00    -0.249 C  
BRANCH  10  12
HETATM   12  C   UNL     1      -9.866  11.187  65.292  1.00  0.00    -0.249 C  
BRANCH  12  13
HETATM   13  C   UNL     1     -11.142  11.818  65.865  1.00  0.00    -0.302 C  
HETATM   14  O   UNL     1     -10.822  12.712  66.949  1.00  0.00    -0.246 OA 
HETATM   15  C   UNL     1     -11.960  13.555  67.118  1.00  0.00    -0.381 C  
HETATM   16  C   UNL     1     -12.438  13.864  65.697  1.00  0.00    -0.505 C  
HETATM   17  H   UNL     1     -13.430  12.509  63.610  1.00  0.00     0.000 HD 
HETATM   18  O   UNL     1     -13.866  13.947  65.605  1.00  0.00    -0.237 OA 
HETATM   19  C   UNL     1     -11.902  12.691  64.862  1.00  0.00    -0.387 C  
HETATM   20  O   UNL     1     -12.958  11.968  64.232  1.00  0.00    -0.600 OA 
HETATM   21  H   UNL     1     -14.163  14.139  64.723  1.00  0.00     0.000 HD 
BRANCH  15  22
HETATM   22  N   UNL     1     -11.597  14.697  67.932  1.00  0.00    -0.335 NA 
HETATM   23  C   UNL     1     -12.187  15.081  69.107  1.00  0.00    -0.151 A  
HETATM   24  C   UNL     1     -11.005  16.733  68.451  1.00  0.00    -0.325 A  
HETATM   25  N   UNL     1     -11.858  16.313  69.446  1.00  0.00    -0.136 NA 
HETATM   26  C   UNL     1     -10.363  17.959  68.205  1.00  0.00    -0.383 A  
HETATM   27  N   UNL     1      -9.510  18.042  67.159  1.00  0.00    -0.258 NA 
HETATM   28  N   UNL     1     -10.579  19.099  68.966  1.00  0.00    -0.277 NA 
HETATM   29  H2  UNL     1     -10.399  18.853  69.939  1.00  0.00     0.000 HD 
HETATM   30  C   UNL     1      -9.358  16.959  66.369  1.00  0.00    -0.276 A  
HETATM   31  H1  UNL     1     -10.113  19.989  68.787  1.00  0.00     0.000 HD 
HETATM   32  N   UNL     1      -9.982  15.763  66.447  1.00  0.00    -0.260 NA 
HETATM   33  C   UNL     1     -10.781  15.721  67.531  1.00  0.00    -0.317 A  
ENDBRANCH  15  22
ENDBRANCH  12  13
ENDBRANCH  10  12
ENDBRANCH   9  10
ENDBRANCH   8   9
ENDBRANCH   1   8
TORSDOF 6
ENDMDL
MODEL      213
REMARK 921   NORMALIZED FREE ENERGY PREDICTED BY IDOCK:   -4.22 KCAL/MOL
REMARK 922        TOTAL FREE ENERGY PREDICTED BY IDOCK:   -7.11 KCAL/MOL
REMARK 923 INTER-LIGAND FREE ENERGY PREDICTED BY IDOCK:   -6.38 KCAL/MOL
REMARK 924 INTRA-LIGAND FREE ENERGY PREDICTED BY IDOCK:   -0.73 KCAL/MOL
REMARK 927      BINDING AFFINITY PREDICTED BY RF-SCORE:    0.00 PKD
ROOT
HETATM    1  CA  UNL     1     -12.864  11.057  70.769  1.00  0.00    -0.266 C  
HETATM    2  C   UNL     1     -11.689  11.070  69.719  1.00  0.00    -0.335 C  
HETATM    3  N   UNL     1     -12.493  10.120  71.890  1.00  0.00    -0.348 NA 
HETATM    4  OXT UNL     1     -12.052  11.250  68.520  1.00  0.00    -0.573 OA 
HETATM    5  H2  UNL     1     -13.158  10.147  72.663  1.00  0.00     0.000 HD 
HETATM    6  O   UNL     1     -10.537  10.887  70.203  1.00  0.00    -0.051 OA 
HETATM    7  H1  UNL     1     -12.384   9.185  71.496  1.00  0.00     0.000 HD 
ENDROOT
BRANCH   1   8
HETATM    8  C   UNL     1     -13.028  12.456  71.358  1.00  0.00    -0.348 C  
BRANCH   8   9
HETATM    9  C   UNL     1     -12.045  13.496  70.810  1.00  0.00    -0.271 C  
BRANCH   9  10
HETATM   10  S   UNL     1     -12.742  15.198  70.999  1.00  0.00    -0.429 S  
HETATM   11  C   UNL     1     -11.161  15.978  71.444  1.00  0.00    -0.170 C  
BRANCH  10  12
HETATM   12  C   UNL     1     -12.706  15.641  69.211  1.00  0.00     0.471 C  
BRANCH  12  13
HETATM   13  C   UNL     1     -11.270  15.602  68.671  1.00  0.00    -0.338 C  
HETATM   14  O   UNL     1     -11.027  14.369  67.965  1.00  0.00    -0.248 OA 
HETATM   15  C   UNL     1      -9.877  14.597  67.152  1.00  0.00    -0.237 C  
HETATM   16  C   UNL     1     -10.046  16.021  66.617  1.00  0.00    -0.279 C  
HETATM   17  H   UNL     1     -10.150  18.505  67.615  1.00  0.00     0.000 HD 
HETATM   18  O   UNL     1      -8.798  16.718  66.511  1.00  0.00    -0.235 OA 
HETATM   19  C   UNL     1     -10.966  16.697  67.645  1.00  0.00    -0.193 C  
HETATM   20  O   UNL     1     -10.339  17.825  68.251  1.00  0.00    -0.355 OA 
HETATM   21  H   UNL     1      -8.902  17.602  66.179  1.00  0.00     0.000 HD 
BRANCH  15  22
HETATM   22  N   UNL     1      -9.775  13.549  66.158  1.00  0.00    -0.277 NA 
HETATM   23  C   UNL     1     -10.454  13.483  64.970  1.00  0.00    -0.376 A  
HETATM   24  C   UNL     1      -9.628  11.543  65.307  1.00  0.00    -0.218 A  
HETATM   25  N   UNL     1     -10.394  12.279  64.433  1.00  0.00    -0.314 NA 
HETATM   26  C   UNL     1      -9.250  10.189  65.332  1.00  0.00    -0.202 A  
HETATM   27  N   UNL     1      -8.413   9.771  66.310  1.00  0.00    -0.123 NA 
HETATM   28  N   UNL     1      -9.713   9.252  64.421  1.00  0.00    -0.191 NA 
HETATM   29  H2  UNL     1      -9.504   9.607  63.488  1.00  0.00     0.000 HD 
HETATM   30  C   UNL     1      -8.026  10.662  67.246  1.00  0.00    -0.116 A  
HETATM   31  H1  UNL     1      -9.438   8.269  64.439  1.00  0.00     0.000 HD 
HETATM   32  N   UNL     1      -8.389  11.956  67.381  1.00  0.00    -0.155 NA 
HETATM   33  C   UNL     1      -9.182  12.330  66.358  1.00  0.00    -0.203 A  
ENDBRANCH  15  22
ENDBRANCH  12  13
ENDBRANCH  10  12
ENDBRANCH   9  10
ENDBRANCH   8   9
ENDBRANCH   1   8
TORSDOF 6
ENDMDL
MODEL      214
REMARK 921   NORMALIZED FREE ENERGY PREDICTED BY IDOCK:   -4.21 KCAL/MOL
REMARK 922        TOTAL FREE ENERGY PREDICTED BY IDOCK:   -7.11 KCAL/MOL
REMARK 923 INTER-LIGAND FREE ENERGY PREDICTED BY IDOCK:   -6.99 KCAL/MOL
REMARK 924 INTRA-LIGAND FREE ENERGY PREDICTED BY IDOCK:   -0.12 KCAL/MOL
REMARK 927      BINDING AFFINITY PREDICTED BY RF-SCORE:    0.00 PKD
ROOT
HETATM    1  CA  UNL     1     -11.787  14.051  65.270  1.00  0.00    -0.359 C  
HETATM    2  C   UNL     1     -11.364  15.523  64.898  1.00  0.00    -0.335 C  
HETATM    3  N   UNL     1     -13.292  13.970  65.260  1.00  0.00    -0.580 NA 
HETATM    4  OXT UNL     1     -10.295  15.921  65.446  1.00  0.00    -0.367 OA 
HETATM    5  H2  UNL     1     -13.636  13.017  65.381  1.00  0.00     0.000 HD 
HETATM    6  O   UNL     1     -12.150  16.123  64.113  1.00  0.00    -0.753 OA 
HETATM    7  H1  UNL     1     -13.647  14.610  65.970  1.00  0.00     0.000 HD 
ENDROOT
BRANCH   1   8
HETATM    8  C   UNL     1     -11.255  13.091  64.208  1.00  0.00    -0.411 C  
BRANCH   8   9
HETATM    9  C   UNL     1      -9.905  12.451  64.549  1.00  0.00    -0.078 C  
BRANCH   9  10
HETATM   10  S   UNL     1     -10.093  10.621  64.736  1.00  0.00    -0.332 S  
HETATM   11  C   UNL     1      -8.463  10.213  64.045  1.00  0.00    -0.184 C  
BRANCH  10  12
HETATM   12  C   UNL     1      -9.604  10.539  66.511  1.00  0.00    -0.174 C  
BRANCH  12  13
HETATM   13  C   UNL     1     -10.793  10.880  67.418  1.00  0.00    -0.279 C  
HETATM   14  O   UNL     1     -11.197   9.725  68.181  1.00  0.00    -0.163 OA 
HETATM   15  C   UNL     1     -11.973  10.219  69.269  1.00  0.00     0.067 C  
HETATM   16  C   UNL     1     -11.256  11.495  69.721  1.00  0.00    -0.161 C  
HETATM   17  H   UNL     1     -10.686  13.904  68.698  1.00  0.00     0.000 HD 
HETATM   18  O   UNL     1     -12.169  12.514  70.149  1.00  0.00    -0.302 OA 
HETATM   19  C   UNL     1     -10.480  11.944  68.473  1.00  0.00    -0.224 C  
HETATM   20  O   UNL     1     -10.880  13.244  68.043  1.00  0.00    -0.232 OA 
HETATM   21  H   UNL     1     -11.725  13.305  70.429  1.00  0.00     0.000 HD 
BRANCH  15  22
HETATM   22  N   UNL     1     -12.118   9.181  70.269  1.00  0.00     0.124 NA 
HETATM   23  C   UNL     1     -12.907   9.229  71.388  1.00  0.00    -0.328 A  
HETATM   24  C   UNL     1     -11.568   7.589  71.659  1.00  0.00    -0.268 A  
HETATM   25  N   UNL     1     -12.595   8.286  72.255  1.00  0.00    -0.330 NA 
HETATM   26  C   UNL     1     -10.770   6.516  72.092  1.00  0.00    -0.221 A  
HETATM   27  N   UNL     1      -9.869   5.991  71.230  1.00  0.00    -0.175 NA 
HETATM   28  N   UNL     1     -10.840   5.982  73.371  1.00  0.00    -0.364 NA 
HETATM   29  H2  UNL     1     -11.813   5.724  73.539  1.00  0.00     0.000 HD 
HETATM   30  C   UNL     1      -9.742   6.560  70.013  1.00  0.00    -0.165 A  
HETATM   31  H1  UNL     1     -10.261   5.203  73.685  1.00  0.00     0.000 HD 
HETATM   32  N   UNL     1     -10.381   7.641  69.515  1.00  0.00    -0.213 NA 
HETATM   33  C   UNL     1     -11.297   8.092  70.396  1.00  0.00    -0.187 A  
ENDBRANCH  15  22
ENDBRANCH  12  13
ENDBRANCH  10  12
ENDBRANCH   9  10
ENDBRANCH   8   9
ENDBRANCH   1   8
TORSDOF 6
ENDMDL
MODEL      215
REMARK 921   NORMALIZED FREE ENERGY PREDICTED BY IDOCK:   -4.21 KCAL/MOL
REMARK 922        TOTAL FREE ENERGY PREDICTED BY IDOCK:   -7.11 KCAL/MOL
REMARK 923 INTER-LIGAND FREE ENERGY PREDICTED BY IDOCK:   -6.23 KCAL/MOL
REMARK 924 INTRA-LIGAND FREE ENERGY PREDICTED BY IDOCK:   -0.87 KCAL/MOL
REMARK 927      BINDING AFFINITY PREDICTED BY RF-SCORE:    0.00 PKD
ROOT
HETATM    1  CA  UNL     1      -9.835  10.391  64.803  1.00  0.00    -0.340 C  
HETATM    2  C   UNL     1     -10.169  11.252  63.526  1.00  0.00    -0.403 C  
HETATM    3  N   UNL     1      -8.959   9.238  64.386  1.00  0.00    -0.382 NA 
HETATM    4  OXT UNL     1     -11.305  11.810  63.546  1.00  0.00    -0.418 OA 
HETATM    5  H2  UNL     1      -8.610   8.702  65.180  1.00  0.00     0.000 HD 
HETATM    6  O   UNL     1      -9.269  11.266  62.640  1.00  0.00    -0.346 OA 
HETATM    7  H1  UNL     1      -9.483   8.667  63.724  1.00  0.00     0.000 HD 
ENDROOT
BRANCH   1   8
HETATM    8  C   UNL     1      -9.050  11.247  65.795  1.00  0.00    -0.216 C  
BRANCH   8   9
HETATM    9  C   UNL     1      -8.197  10.449  66.786  1.00  0.00    -0.126 C  
BRANCH   9  10
HETATM   10  S   UNL     1      -8.287  11.212  68.468  1.00  0.00    -0.156 S  
HETATM   11  C   UNL     1      -7.761  12.867  67.931  1.00  0.00    -0.143 C  
BRANCH  10  12
HETATM   12  C   UNL     1     -10.099  11.545  68.454  1.00  0.00    -0.204 C  
BRANCH  12  13
HETATM   13  C   UNL     1     -10.871  10.370  69.069  1.00  0.00    -0.234 C  
HETATM   14  O   UNL     1      -9.985   9.520  69.823  1.00  0.00    -0.186 OA 
HETATM   15  C   UNL     1     -10.815   8.747  70.687  1.00  0.00    -0.232 C  
HETATM   16  C   UNL     1     -11.896   9.718  71.171  1.00  0.00    -0.382 C  
HETATM   17  H   UNL     1     -13.897  11.138  70.095  1.00  0.00     0.000 HD 
HETATM   18  O   UNL     1     -13.174   9.085  71.320  1.00  0.00    -0.465 OA 
HETATM   19  C   UNL     1     -11.943  10.795  70.076  1.00  0.00    -0.347 C  
HETATM   20  O   UNL     1     -13.232  10.874  69.470  1.00  0.00     0.142 OA 
HETATM   21  H   UNL     1     -13.844   9.687  71.620  1.00  0.00     0.000 HD 
BRANCH  15  22
HETATM   22  N   UNL     1     -10.001   8.134  71.717  1.00  0.00    -0.186 NA 
HETATM   23  C   UNL     1      -8.722   8.482  72.060  1.00  0.00    -0.196 A  
HETATM   24  C   UNL     1      -9.093   6.577  72.950  1.00  0.00    -0.128 A  
HETATM   25  N   UNL     1      -8.139   7.557  72.799  1.00  0.00    -0.103 NA 
HETATM   26  C   UNL     1      -9.072   5.319  73.575  1.00  0.00    -0.128 A  
HETATM   27  N   UNL     1     -10.218   4.600  73.618  1.00  0.00    -0.163 NA 
HETATM   28  N   UNL     1      -7.929   4.761  74.129  1.00  0.00    -0.100 NA 
HETATM   29  H2  UNL     1      -7.554   5.437  74.796  1.00  0.00     0.000 HD 
HETATM   30  C   UNL     1     -11.312   5.103  73.010  1.00  0.00    -0.309 A  
HETATM   31  H1  UNL     1      -7.914   3.848  74.583  1.00  0.00     0.000 HD 
HETATM   32  N   UNL     1     -11.435   6.249  72.305  1.00  0.00    -0.294 NA 
HETATM   33  C   UNL     1     -10.280   6.944  72.335  1.00  0.00    -0.187 A  
ENDBRANCH  15  22
ENDBRANCH  12  13
ENDBRANCH  10  12
ENDBRANCH   9  10
ENDBRANCH   8   9
ENDBRANCH   1   8
TORSDOF 6
ENDMDL
MODEL      216
REMARK 921   NORMALIZED FREE ENERGY PREDICTED BY IDOCK:   -4.19 KCAL/MOL
REMARK 922        TOTAL FREE ENERGY PREDICTED BY IDOCK:   -7.08 KCAL/MOL
REMARK 923 INTER-LIGAND FREE ENERGY PREDICTED BY IDOCK:   -6.33 KCAL/MOL
REMARK 924 INTRA-LIGAND FREE ENERGY PREDICTED BY IDOCK:   -0.75 KCAL/MOL
REMARK 927      BINDING AFFINITY PREDICTED BY RF-SCORE:    0.00 PKD
ROOT
HETATM    1  CA  UNL     1      -6.850  13.882  67.815  1.00  0.00    -0.175 C  
HETATM    2  C   UNL     1      -6.417  13.539  69.291  1.00  0.00    -0.111 C  
HETATM    3  N   UNL     1      -7.214  12.599  67.113  1.00  0.00    -0.347 NA 
HETATM    4  OXT UNL     1      -5.535  14.307  69.776  1.00  0.00    -0.092 OA 
HETATM    5  H2  UNL     1      -7.613  12.755  66.188  1.00  0.00     0.000 HD 
HETATM    6  O   UNL     1      -6.992  12.535  69.797  1.00  0.00     0.141 OA 
HETATM    7  H1  UNL     1      -6.385  12.005  67.090  1.00  0.00     0.000 HD 
ENDROOT
BRANCH   1   8
HETATM    8  C   UNL     1      -8.092  14.771  67.849  1.00  0.00    -0.146 C  
BRANCH   8   9
HETATM    9  C   UNL     1      -8.811  14.909  66.504  1.00  0.00    -0.221 C  
BRANCH   9  10
HETATM   10  S   UNL     1     -10.607  15.261  66.771  1.00  0.00    -0.307 S  
HETATM   11  C   UNL     1     -10.881  15.991  65.129  1.00  0.00    -0.395 C  
BRANCH  10  12
HETATM   12  C   UNL     1     -11.217  13.572  66.363  1.00  0.00    -0.307 C  
BRANCH  12  13
HETATM   13  C   UNL     1     -11.855  12.913  67.594  1.00  0.00    -0.346 C  
HETATM   14  O   UNL     1     -11.473  11.526  67.682  1.00  0.00    -0.348 OA 
HETATM   15  C   UNL     1     -11.728  11.128  69.027  1.00  0.00    -0.339 C  
HETATM   16  C   UNL     1     -11.298  12.324  69.882  1.00  0.00    -0.007 C  
HETATM   17  H   UNL     1     -12.042  14.874  70.224  1.00  0.00     0.000 HD 
HETATM   18  O   UNL     1     -12.143  12.511  71.026  1.00  0.00    -0.405 OA 
HETATM   19  C   UNL     1     -11.400  13.520  68.924  1.00  0.00    -0.289 C  
HETATM   20  O   UNL     1     -12.324  14.497  69.398  1.00  0.00    -0.276 OA 
HETATM   21  H   UNL     1     -11.876  13.252  71.556  1.00  0.00     0.000 HD 
BRANCH  15  22
HETATM   22  N   UNL     1     -11.053   9.875  69.296  1.00  0.00    -0.213 NA 
HETATM   23  C   UNL     1     -10.016   9.338  68.580  1.00  0.00    -0.178 A  
HETATM   24  C   UNL     1     -10.772   7.775  69.822  1.00  0.00    -0.236 A  
HETATM   25  N   UNL     1      -9.824   8.065  68.867  1.00  0.00    -0.170 NA 
HETATM   26  C   UNL     1     -11.121   6.585  70.483  1.00  0.00    -0.319 A  
HETATM   27  N   UNL     1     -12.071   6.636  71.446  1.00  0.00    -0.353 NA 
HETATM   28  N   UNL     1     -10.561   5.352  70.183  1.00  0.00    -0.296 NA 
HETATM   29  H2  UNL     1      -9.548   5.454  70.256  1.00  0.00     0.000 HD 
HETATM   30  C   UNL     1     -12.677   7.818  71.685  1.00  0.00    -0.335 A  
HETATM   31  H1  UNL     1     -10.815   4.489  70.663  1.00  0.00     0.000 HD 
HETATM   32  N   UNL     1     -12.494   9.002  71.060  1.00  0.00    -0.221 NA 
HETATM   33  C   UNL     1     -11.507   8.904  70.148  1.00  0.00    -0.036 A  
ENDBRANCH  15  22
ENDBRANCH  12  13
ENDBRANCH  10  12
ENDBRANCH   9  10
ENDBRANCH   8   9
ENDBRANCH   1   8
TORSDOF 6
ENDMDL
MODEL      217
REMARK 921   NORMALIZED FREE ENERGY PREDICTED BY IDOCK:   -4.19 KCAL/MOL
REMARK 922        TOTAL FREE ENERGY PREDICTED BY IDOCK:   -7.08 KCAL/MOL
REMARK 923 INTER-LIGAND FREE ENERGY PREDICTED BY IDOCK:   -6.82 KCAL/MOL
REMARK 924 INTRA-LIGAND FREE ENERGY PREDICTED BY IDOCK:   -0.25 KCAL/MOL
REMARK 927      BINDING AFFINITY PREDICTED BY RF-SCORE:    0.00 PKD
ROOT
HETATM    1  CA  UNL     1     -10.700   5.959  67.043  1.00  0.00    -0.318 C  
HETATM    2  C   UNL     1     -10.269   4.663  66.255  1.00  0.00    -0.275 C  
HETATM    3  N   UNL     1     -10.406   5.747  68.506  1.00  0.00    -0.196 NA 
HETATM    4  OXT UNL     1     -10.971   4.408  65.233  1.00  0.00    -0.250 OA 
HETATM    5  H2  UNL     1     -10.555   6.589  69.063  1.00  0.00     0.000 HD 
HETATM    6  O   UNL     1      -9.289   4.038  66.748  1.00  0.00    -0.156 OA 
HETATM    7  H1  UNL     1     -10.964   4.957  68.828  1.00  0.00     0.000 HD 
ENDROOT
BRANCH   1   8
HETATM    8  C   UNL     1      -9.865   7.142  66.559  1.00  0.00    -0.189 C  
BRANCH   8   9
HETATM    9  C   UNL     1     -10.471   8.515  66.866  1.00  0.00    -0.275 C  
BRANCH   9  10
HETATM   10  S   UNL     1      -9.138   9.790  66.995  1.00  0.00    -0.139 S  
HETATM   11  C   UNL     1      -7.897   8.830  66.078  1.00  0.00    -0.105 C  
BRANCH  10  12
HETATM   12  C   UNL     1      -9.699  10.828  65.580  1.00  0.00    -0.239 C  
BRANCH  12  13
HETATM   13  C   UNL     1     -10.451  12.069  66.081  1.00  0.00    -0.236 C  
HETATM   14  O   UNL     1      -9.531  13.027  66.640  1.00  0.00    -0.246 OA 
HETATM   15  C   UNL     1     -10.224  14.273  66.668  1.00  0.00    -0.272 C  
HETATM   16  C   UNL     1     -11.015  14.316  65.357  1.00  0.00    -0.333 C  
HETATM   17  H   UNL     1     -13.005  12.942  64.208  1.00  0.00     0.000 HD 
HETATM   18  O   UNL     1     -12.291  14.951  65.508  1.00  0.00    -0.104 OA 
HETATM   19  C   UNL     1     -11.179  12.838  64.975  1.00  0.00    -0.298 C  
HETATM   20  O   UNL     1     -12.553  12.465  64.894  1.00  0.00    -0.563 OA 
HETATM   21  H   UNL     1     -12.782  14.978  64.696  1.00  0.00     0.000 HD 
BRANCH  15  22
HETATM   22  N   UNL     1      -9.275  15.347  66.877  1.00  0.00    -0.219 NA 
HETATM   23  C   UNL     1      -8.139  15.296  67.641  1.00  0.00    -0.158 A  
HETATM   24  C   UNL     1      -8.513  17.360  67.245  1.00  0.00    -0.208 A  
HETATM   25  N   UNL     1      -7.657  16.498  67.892  1.00  0.00    -0.149 NA 
HETATM   26  C   UNL     1      -8.576  18.763  67.177  1.00  0.00    -0.277 A  
HETATM   27  N   UNL     1      -9.514  19.329  66.382  1.00  0.00    -0.353 NA 
HETATM   28  N   UNL     1      -7.743  19.600  67.903  1.00  0.00    -0.289 NA 
HETATM   29  H2  UNL     1      -6.782  19.330  67.692  1.00  0.00     0.000 HD 
HETATM   30  C   UNL     1     -10.379  18.519  65.736  1.00  0.00    -0.197 A  
HETATM   31  H1  UNL     1      -7.789  20.618  67.854  1.00  0.00     0.000 HD 
HETATM   32  N   UNL     1     -10.476  17.173  65.791  1.00  0.00    -0.515 NA 
HETATM   33  C   UNL     1      -9.492  16.661  66.556  1.00  0.00    -0.266 A  
ENDBRANCH  15  22
ENDBRANCH  12  13
ENDBRANCH  10  12
ENDBRANCH   9  10
ENDBRANCH   8   9
ENDBRANCH   1   8
TORSDOF 6
ENDMDL
MODEL      218
REMARK 921   NORMALIZED FREE ENERGY PREDICTED BY IDOCK:   -4.18 KCAL/MOL
REMARK 922        TOTAL FREE ENERGY PREDICTED BY IDOCK:   -7.07 KCAL/MOL
REMARK 923 INTER-LIGAND FREE ENERGY PREDICTED BY IDOCK:   -6.37 KCAL/MOL
REMARK 924 INTRA-LIGAND FREE ENERGY PREDICTED BY IDOCK:   -0.69 KCAL/MOL
REMARK 927      BINDING AFFINITY PREDICTED BY RF-SCORE:    0.00 PKD
ROOT
HETATM    1  CA  UNL     1      -8.661  17.102  67.167  1.00  0.00    -0.212 C  
HETATM    2  C   UNL     1      -9.876  18.065  66.881  1.00  0.00    -0.330 C  
HETATM    3  N   UNL     1      -7.841  17.689  68.287  1.00  0.00    -0.246 NA 
HETATM    4  OXT UNL     1     -10.256  18.093  65.674  1.00  0.00    -0.578 OA 
HETATM    5  H2  UNL     1      -7.101  17.062  68.603  1.00  0.00     0.000 HD 
HETATM    6  O   UNL     1     -10.308  18.694  67.887  1.00  0.00    -0.370 OA 
HETATM    7  H1  UNL     1      -7.487  18.594  67.979  1.00  0.00     0.000 HD 
ENDROOT
BRANCH   1   8
HETATM    8  C   UNL     1      -9.191  15.746  67.629  1.00  0.00    -0.200 C  
BRANCH   8   9
HETATM    9  C   UNL     1      -9.033  14.620  66.603  1.00  0.00    -0.238 C  
BRANCH   9  10
HETATM   10  S   UNL     1     -10.286  13.294  66.909  1.00  0.00    -0.254 S  
HETATM   11  C   UNL     1      -9.700  12.199  65.582  1.00  0.00    -0.207 C  
BRANCH  10  12
HETATM   12  C   UNL     1      -9.385  12.466  68.287  1.00  0.00    -0.199 C  
BRANCH  12  13
HETATM   13  C   UNL     1     -10.095  11.169  68.696  1.00  0.00    -0.200 C  
HETATM   14  O   UNL     1      -9.233  10.356  69.517  1.00  0.00    -0.194 OA 
HETATM   15  C   UNL     1     -10.083   9.430  70.191  1.00  0.00    -0.233 C  
HETATM   16  C   UNL     1     -11.327  10.238  70.570  1.00  0.00    -0.341 C  
HETATM   17  H   UNL     1     -13.305  11.526  69.303  1.00  0.00     0.000 HD 
HETATM   18  O   UNL     1     -12.531   9.464  70.481  1.00  0.00    -0.490 OA 
HETATM   19  C   UNL     1     -11.342  11.393  69.557  1.00  0.00    -0.289 C  
HETATM   20  O   UNL     1     -12.531  11.387  68.769  1.00  0.00    -0.396 OA 
HETATM   21  H   UNL     1     -13.303   9.965  70.716  1.00  0.00     0.000 HD 
BRANCH  15  22
HETATM   22  N   UNL     1      -9.358   8.821  71.288  1.00  0.00    -0.225 NA 
HETATM   23  C   UNL     1      -8.031   8.989  71.581  1.00  0.00     0.081 A  
HETATM   24  C   UNL     1      -8.694   7.300  72.706  1.00  0.00    -0.122 A  
HETATM   25  N   UNL     1      -7.593   8.078  72.430  1.00  0.00    -0.104 NA 
HETATM   26  C   UNL     1      -8.869   6.143  73.485  1.00  0.00    -0.124 A  
HETATM   27  N   UNL     1     -10.117   5.638  73.621  1.00  0.00    -0.184 NA 
HETATM   28  N   UNL     1      -7.822   5.474  74.102  1.00  0.00    -0.099 NA 
HETATM   29  H2  UNL     1      -7.324   6.154  74.677  1.00  0.00     0.000 HD 
HETATM   30  C   UNL     1     -11.126   6.239  72.957  1.00  0.00    -0.207 A  
HETATM   31  H1  UNL     1      -7.949   4.634  74.668  1.00  0.00     0.000 HD 
HETATM   32  N   UNL     1     -11.072   7.293  72.113  1.00  0.00    -0.237 NA 
HETATM   33  C   UNL     1      -9.818   7.782  72.052  1.00  0.00    -0.174 A  
ENDBRANCH  15  22
ENDBRANCH  12  13
ENDBRANCH  10  12
ENDBRANCH   9  10
ENDBRANCH   8   9
ENDBRANCH   1   8
TORSDOF 6
ENDMDL
MODEL      219
REMARK 921   NORMALIZED FREE ENERGY PREDICTED BY IDOCK:   -4.18 KCAL/MOL
REMARK 922        TOTAL FREE ENERGY PREDICTED BY IDOCK:   -7.06 KCAL/MOL
REMARK 923 INTER-LIGAND FREE ENERGY PREDICTED BY IDOCK:   -6.12 KCAL/MOL
REMARK 924 INTRA-LIGAND FREE ENERGY PREDICTED BY IDOCK:   -0.94 KCAL/MOL
REMARK 927      BINDING AFFINITY PREDICTED BY RF-SCORE:    0.00 PKD
ROOT
HETATM    1  CA  UNL     1      -9.030   4.336  69.340  1.00  0.00    -0.101 C  
HETATM    2  C   UNL     1      -9.294   5.054  67.961  1.00  0.00    -0.125 C  
HETATM    3  N   UNL     1      -7.742   4.867  69.916  1.00  0.00    -0.055 NA 
HETATM    4  OXT UNL     1      -9.897   4.346  67.103  1.00  0.00    -0.200 OA 
HETATM    5  H2  UNL     1      -7.565   4.530  70.862  1.00  0.00     0.000 HD 
HETATM    6  O   UNL     1      -8.860   6.237  67.883  1.00  0.00    -0.114 OA 
HETATM    7  H1  UNL     1      -6.988   4.638  69.268  1.00  0.00     0.000 HD 
ENDROOT
BRANCH   1   8
HETATM    8  C   UNL     1     -10.158   4.679  70.309  1.00  0.00    -0.276 C  
BRANCH   8   9
HETATM    9  C   UNL     1      -9.695   5.312  71.625  1.00  0.00    -0.160 C  
BRANCH   9  10
HETATM   10  S   UNL     1     -11.129   6.075  72.509  1.00  0.00    -0.293 S  
HETATM   11  C   UNL     1     -10.392   5.951  74.165  1.00  0.00    -0.284 C  
BRANCH  10  12
HETATM   12  C   UNL     1     -10.663   7.830  72.194  1.00  0.00    -0.248 C  
BRANCH  12  13
HETATM   13  C   UNL     1     -10.100   7.996  70.776  1.00  0.00    -0.192 C  
HETATM   14  O   UNL     1     -10.951   8.853  69.990  1.00  0.00    -0.236 OA 
HETATM   15  C   UNL     1     -10.162   9.294  68.887  1.00  0.00    -0.202 C  
HETATM   16  C   UNL     1      -8.773   9.558  69.476  1.00  0.00    -0.174 C  
HETATM   17  H   UNL     1      -6.820   8.140  70.638  1.00  0.00     0.000 HD 
HETATM   18  O   UNL     1      -7.718   9.211  68.569  1.00  0.00    -0.091 OA 
HETATM   19  C   UNL     1      -8.728   8.675  70.732  1.00  0.00    -0.173 C  
HETATM   20  O   UNL     1      -7.671   7.719  70.666  1.00  0.00    -0.087 OA 
HETATM   21  H   UNL     1      -6.857   9.375  68.933  1.00  0.00     0.000 HD 
BRANCH  15  22
HETATM   22  N   UNL     1     -10.810  10.422  68.251  1.00  0.00    -0.235 NA 
HETATM   23  C   UNL     1     -10.768  10.742  66.920  1.00  0.00    -0.252 A  
HETATM   24  C   UNL     1     -11.521  12.463  67.936  1.00  0.00    -0.328 A  
HETATM   25  N   UNL     1     -11.182  11.974  66.694  1.00  0.00    -0.310 NA 
HETATM   26  C   UNL     1     -11.969  13.721  68.372  1.00  0.00    -0.360 A  
HETATM   27  N   UNL     1     -12.293  13.874  69.677  1.00  0.00    -0.306 NA 
HETATM   28  N   UNL     1     -12.071  14.825  67.539  1.00  0.00    -0.526 NA 
HETATM   29  H2  UNL     1     -12.654  14.554  66.746  1.00  0.00     0.000 HD 
HETATM   30  C   UNL     1     -12.118  12.825  70.507  1.00  0.00    -0.285 A  
HETATM   31  H1  UNL     1     -12.396  15.739  67.856  1.00  0.00     0.000 HD 
HETATM   32  N   UNL     1     -11.615  11.603  70.229  1.00  0.00    -0.240 NA 
HETATM   33  C   UNL     1     -11.354  11.492  68.911  1.00  0.00    -0.268 A  
ENDBRANCH  15  22
ENDBRANCH  12  13
ENDBRANCH  10  12
ENDBRANCH   9  10
ENDBRANCH   8   9
ENDBRANCH   1   8
TORSDOF 6
ENDMDL
MODEL      220
REMARK 921   NORMALIZED FREE ENERGY PREDICTED BY IDOCK:   -4.15 KCAL/MOL
REMARK 922        TOTAL FREE ENERGY PREDICTED BY IDOCK:   -7.02 KCAL/MOL
REMARK 923 INTER-LIGAND FREE ENERGY PREDICTED BY IDOCK:   -6.32 KCAL/MOL
REMARK 924 INTRA-LIGAND FREE ENERGY PREDICTED BY IDOCK:   -0.70 KCAL/MOL
REMARK 927      BINDING AFFINITY PREDICTED BY RF-SCORE:    0.00 PKD
ROOT
HETATM    1  CA  UNL     1      -7.210  16.176  68.446  1.00  0.00    -0.135 C  
HETATM    2  C   UNL     1      -6.260  17.244  69.111  1.00  0.00    -0.225 C  
HETATM    3  N   UNL     1      -6.773  14.804  68.892  1.00  0.00    -0.093 NA 
HETATM    4  OXT UNL     1      -6.060  18.281  68.414  1.00  0.00    -0.187 OA 
HETATM    5  H2  UNL     1      -7.413  14.070  68.591  1.00  0.00     0.000 HD 
HETATM    6  O   UNL     1      -5.808  16.924  70.246  1.00  0.00    -0.216 OA 
HETATM    7  H1  UNL     1      -5.818  14.655  68.564  1.00  0.00     0.000 HD 
ENDROOT
BRANCH   1   8
HETATM    8  C   UNL     1      -8.638  16.400  68.936  1.00  0.00    -0.250 C  
BRANCH   8   9
HETATM    9  C   UNL     1      -9.552  15.176  68.813  1.00  0.00    -0.219 C  
BRANCH   9  10
HETATM   10  S   UNL     1     -11.317  15.706  68.667  1.00  0.00    -0.373 S  
HETATM   11  C   UNL     1     -11.053  16.780  67.225  1.00  0.00     0.076 C  
BRANCH  10  12
HETATM   12  C   UNL     1     -11.905  14.230  67.734  1.00  0.00    -0.379 C  
BRANCH  12  13
HETATM   13  C   UNL     1     -10.721  13.459  67.136  1.00  0.00    -0.264 C  
HETATM   14  O   UNL     1     -10.606  12.156  67.742  1.00  0.00    -0.197 OA 
HETATM   15  C   UNL     1      -9.802  11.377  66.859  1.00  0.00    -0.193 C  
HETATM   16  C   UNL     1     -10.264  11.770  65.453  1.00  0.00    -0.261 C  
HETATM   17  H   UNL     1     -10.269  13.968  63.922  1.00  0.00     0.000 HD 
HETATM   18  O   UNL     1      -9.184  11.797  64.510  1.00  0.00    -0.419 OA 
HETATM   19  C   UNL     1     -10.864  13.172  65.639  1.00  0.00    -0.278 C  
HETATM   20  O   UNL     1     -10.181  14.146  64.851  1.00  0.00    -0.412 OA 
HETATM   21  H   UNL     1      -9.470  12.041  63.638  1.00  0.00     0.000 HD 
BRANCH  15  22
HETATM   22  N   UNL     1      -9.929   9.975  67.203  1.00  0.00    -0.191 NA 
HETATM   23  C   UNL     1     -10.401   8.976  66.394  1.00  0.00    -0.149 A  
HETATM   24  C   UNL     1     -10.374   8.190  68.379  1.00  0.00    -0.199 A  
HETATM   25  N   UNL     1     -10.690   7.884  67.075  1.00  0.00    -0.306 NA 
HETATM   26  C   UNL     1     -10.505   7.475  69.582  1.00  0.00    -0.234 A  
HETATM   27  N   UNL     1     -10.026   8.030  70.719  1.00  0.00    -0.187 NA 
HETATM   28  N   UNL     1     -11.127   6.238  69.670  1.00  0.00    -0.378 NA 
HETATM   29  H2  UNL     1     -10.669   5.620  68.999  1.00  0.00     0.000 HD 
HETATM   30  C   UNL     1      -9.494   9.268  70.651  1.00  0.00    -0.272 A  
HETATM   31  H1  UNL     1     -11.222   5.719  70.543  1.00  0.00     0.000 HD 
HETATM   32  N   UNL     1      -9.393  10.087  69.581  1.00  0.00    -0.224 NA 
HETATM   33  C   UNL     1      -9.841   9.466  68.472  1.00  0.00    -0.156 A  
ENDBRANCH  15  22
ENDBRANCH  12  13
ENDBRANCH  10  12
ENDBRANCH   9  10
ENDBRANCH   8   9
ENDBRANCH   1   8
TORSDOF 6
ENDMDL
MODEL      221
REMARK 921   NORMALIZED FREE ENERGY PREDICTED BY IDOCK:   -4.14 KCAL/MOL
REMARK 922        TOTAL FREE ENERGY PREDICTED BY IDOCK:   -7.02 KCAL/MOL
REMARK 923 INTER-LIGAND FREE ENERGY PREDICTED BY IDOCK:   -5.96 KCAL/MOL
REMARK 924 INTRA-LIGAND FREE ENERGY PREDICTED BY IDOCK:   -1.06 KCAL/MOL
REMARK 927      BINDING AFFINITY PREDICTED BY RF-SCORE:    0.00 PKD
ROOT
HETATM    1  CA  UNL     1      -7.904   8.189  65.706  1.00  0.00    -0.096 C  
HETATM    2  C   UNL     1      -7.924   9.739  65.417  1.00  0.00    -0.125 C  
HETATM    3  N   UNL     1      -6.479   7.770  65.962  1.00  0.00    -0.042 NA 
HETATM    4  OXT UNL     1      -8.824  10.115  64.610  1.00  0.00    -0.166 OA 
HETATM    5  H2  UNL     1      -6.403   6.800  66.268  1.00  0.00     0.000 HD 
HETATM    6  O   UNL     1      -7.034  10.405  66.015  1.00  0.00    -0.115 OA 
HETATM    7  H1  UNL     1      -5.937   7.962  65.120  1.00  0.00     0.000 HD 
ENDROOT
BRANCH   1   8
HETATM    8  C   UNL     1      -8.715   7.902  66.967  1.00  0.00    -0.132 C  
BRANCH   8   9
HETATM    9  C   UNL     1      -7.874   7.562  68.201  1.00  0.00    -0.122 C  
BRANCH   9  10
HETATM   10  S   UNL     1      -8.931   6.783  69.503  1.00  0.00    -0.138 S  
HETATM   11  C   UNL     1      -7.738   5.482  69.933  1.00  0.00    -0.082 C  
BRANCH  10  12
HETATM   12  C   UNL     1      -8.484   7.945  70.861  1.00  0.00    -0.126 C  
BRANCH  12  13
HETATM   13  C   UNL     1      -9.657   8.882  71.182  1.00  0.00    -0.272 C  
HETATM   14  O   UNL     1      -9.838   9.847  70.127  1.00  0.00    -0.247 OA 
HETATM   15  C   UNL     1     -11.158  10.363  70.283  1.00  0.00    -0.307 C  
HETATM   16  C   UNL     1     -12.014   9.151  70.665  1.00  0.00    -0.124 C  
HETATM   17  H   UNL     1     -12.176   7.413  72.697  1.00  0.00     0.000 HD 
HETATM   18  O   UNL     1     -13.045   9.483  71.603  1.00  0.00    -0.351 OA 
HETATM   19  C   UNL     1     -11.008   8.168  71.282  1.00  0.00    -0.240 C  
HETATM   20  O   UNL     1     -11.338   7.856  72.634  1.00  0.00    -0.361 OA 
HETATM   21  H   UNL     1     -13.576   8.732  71.841  1.00  0.00     0.000 HD 
BRANCH  15  22
HETATM   22  N   UNL     1     -11.547  11.063  69.076  1.00  0.00    -0.296 NA 
HETATM   23  C   UNL     1     -11.658  10.526  67.821  1.00  0.00     0.131 A  
HETATM   24  C   UNL     1     -11.663  12.647  67.578  1.00  0.00    -0.368 A  
HETATM   25  N   UNL     1     -11.720  11.458  66.888  1.00  0.00    -0.467 NA 
HETATM   26  C   UNL     1     -11.627  13.988  67.158  1.00  0.00    -0.372 A  
HETATM   27  N   UNL     1     -11.645  14.960  68.099  1.00  0.00    -0.328 NA 
HETATM   28  N   UNL     1     -11.548  14.368  65.826  1.00  0.00    -0.349 NA 
HETATM   29  H2  UNL     1     -12.320  13.918  65.335  1.00  0.00     0.000 HD 
HETATM   30  C   UNL     1     -11.641  14.594  69.397  1.00  0.00    -0.305 A  
HETATM   31  H1  UNL     1     -11.522  15.342  65.521  1.00  0.00     0.000 HD 
HETATM   32  N   UNL     1     -11.585  13.351  69.924  1.00  0.00    -0.241 NA 
HETATM   33  C   UNL     1     -11.616  12.425  68.945  1.00  0.00    -0.316 A  
ENDBRANCH  15  22
ENDBRANCH  12  13
ENDBRANCH  10  12
ENDBRANCH   9  10
ENDBRANCH   8   9
ENDBRANCH   1   8
TORSDOF 6
ENDMDL
MODEL      222
REMARK 921   NORMALIZED FREE ENERGY PREDICTED BY IDOCK:   -4.12 KCAL/MOL
REMARK 922        TOTAL FREE ENERGY PREDICTED BY IDOCK:   -6.98 KCAL/MOL
REMARK 923 INTER-LIGAND FREE ENERGY PREDICTED BY IDOCK:   -6.03 KCAL/MOL
REMARK 924 INTRA-LIGAND FREE ENERGY PREDICTED BY IDOCK:   -0.95 KCAL/MOL
REMARK 927      BINDING AFFINITY PREDICTED BY RF-SCORE:    0.00 PKD
ROOT
HETATM    1  CA  UNL     1     -10.947   7.969  70.460  1.00  0.00    -0.247 C  
HETATM    2  C   UNL     1     -10.872   6.879  69.324  1.00  0.00    -0.237 C  
HETATM    3  N   UNL     1     -12.071   7.607  71.396  1.00  0.00    -0.307 NA 
HETATM    4  OXT UNL     1     -10.482   7.312  68.200  1.00  0.00    -0.194 OA 
HETATM    5  H2  UNL     1     -12.107   8.207  72.220  1.00  0.00     0.000 HD 
HETATM    6  O   UNL     1     -11.222   5.717  69.674  1.00  0.00    -0.353 OA 
HETATM    7  H1  UNL     1     -12.941   7.616  70.864  1.00  0.00     0.000 HD 
ENDROOT
BRANCH   1   8
HETATM    8  C   UNL     1      -9.645   7.955  71.257  1.00  0.00    -0.186 C  
BRANCH   8   9
HETATM    9  C   UNL     1      -8.752   9.181  71.038  1.00  0.00    -0.189 C  
BRANCH   9  10
HETATM   10  S   UNL     1      -7.009   8.654  70.714  1.00  0.00    -0.067 S  
HETATM   11  C   UNL     1      -7.267   6.918  71.188  1.00  0.00    -0.076 C  
BRANCH  10  12
HETATM   12  C   UNL     1      -7.195   8.411  68.897  1.00  0.00    -0.078 C  
BRANCH  12  13
HETATM   13  C   UNL     1      -7.098   9.753  68.158  1.00  0.00    -0.078 C  
HETATM   14  O   UNL     1      -8.369  10.106  67.578  1.00  0.00    -0.118 OA 
HETATM   15  C   UNL     1      -8.309  11.506  67.310  1.00  0.00    -0.154 C  
HETATM   16  C   UNL     1      -7.573  12.107  68.511  1.00  0.00    -0.124 C  
HETATM   17  H   UNL     1      -5.137  11.951  69.614  1.00  0.00     0.000 HD 
HETATM   18  O   UNL     1      -6.722  13.200  68.141  1.00  0.00    -0.085 OA 
HETATM   19  C   UNL     1      -6.751  10.935  69.067  1.00  0.00    -0.070 C  
HETATM   20  O   UNL     1      -5.353  11.218  69.049  1.00  0.00    -0.041 OA 
HETATM   21  H   UNL     1      -6.266  13.573  68.886  1.00  0.00     0.000 HD 
BRANCH  15  22
HETATM   22  N   UNL     1      -9.644  12.007  67.063  1.00  0.00    -0.192 NA 
HETATM   23  C   UNL     1     -10.783  11.259  66.917  1.00  0.00    -0.273 A  
HETATM   24  C   UNL     1     -11.249  13.220  66.213  1.00  0.00    -0.299 A  
HETATM   25  N   UNL     1     -11.771  11.960  66.396  1.00  0.00    -0.541 NA 
HETATM   26  C   UNL     1     -11.776  14.394  65.648  1.00  0.00    -0.356 A  
HETATM   27  N   UNL     1     -11.024  15.519  65.679  1.00  0.00    -0.325 NA 
HETATM   28  N   UNL     1     -13.019  14.455  65.035  1.00  0.00    -0.588 NA 
HETATM   29  H2  UNL     1     -13.705  14.107  65.705  1.00  0.00     0.000 HD 
HETATM   30  C   UNL     1      -9.783  15.445  66.203  1.00  0.00    -0.318 A  
HETATM   31  H1  UNL     1     -13.400  15.307  64.624  1.00  0.00     0.000 HD 
HETATM   32  N   UNL     1      -9.135  14.365  66.691  1.00  0.00    -0.259 NA 
HETATM   33  C   UNL     1      -9.945  13.287  66.679  1.00  0.00    -0.272 A  
ENDBRANCH  15  22
ENDBRANCH  12  13
ENDBRANCH  10  12
ENDBRANCH   9  10
ENDBRANCH   8   9
ENDBRANCH   1   8
TORSDOF 6
ENDMDL
MODEL      223
REMARK 921   NORMALIZED FREE ENERGY PREDICTED BY IDOCK:   -4.11 KCAL/MOL
REMARK 922        TOTAL FREE ENERGY PREDICTED BY IDOCK:   -6.97 KCAL/MOL
REMARK 923 INTER-LIGAND FREE ENERGY PREDICTED BY IDOCK:   -6.06 KCAL/MOL
REMARK 924 INTRA-LIGAND FREE ENERGY PREDICTED BY IDOCK:   -0.91 KCAL/MOL
REMARK 927      BINDING AFFINITY PREDICTED BY RF-SCORE:    0.00 PKD
ROOT
HETATM    1  CA  UNL     1     -10.636  15.712  69.949  1.00  0.00    -0.321 C  
HETATM    2  C   UNL     1     -10.060  16.716  68.879  1.00  0.00    -0.274 C  
HETATM    3  N   UNL     1     -12.059  16.104  70.254  1.00  0.00    -0.374 NA 
HETATM    4  OXT UNL     1      -8.818  16.941  68.981  1.00  0.00    -0.247 OA 
HETATM    5  H2  UNL     1     -12.534  15.430  70.854  1.00  0.00     0.000 HD 
HETATM    6  O   UNL     1     -10.909  17.177  68.067  1.00  0.00    -0.378 OA 
HETATM    7  H1  UNL     1     -12.050  17.045  70.647  1.00  0.00     0.000 HD 
ENDROOT
BRANCH   1   8
HETATM    8  C   UNL     1     -10.650  14.303  69.361  1.00  0.00    -0.103 C  
BRANCH   8   9
HETATM    9  C   UNL     1     -11.984  13.890  68.730  1.00  0.00    -0.358 C  
BRANCH   9  10
HETATM   10  S   UNL     1     -11.692  12.766  67.291  1.00  0.00    -0.360 S  
HETATM   11  C   UNL     1     -10.426  13.814  66.514  1.00  0.00    -0.282 C  
BRANCH  10  12
HETATM   12  C   UNL     1     -10.530  11.622  68.148  1.00  0.00    -0.195 C  
BRANCH  12  13
HETATM   13  C   UNL     1     -11.289  10.440  68.766  1.00  0.00    -0.214 C  
HETATM   14  O   UNL     1     -10.579   9.207  68.540  1.00  0.00    -0.212 OA 
HETATM   15  C   UNL     1     -11.095   8.272  69.485  1.00  0.00     0.051 C  
HETATM   16  C   UNL     1     -11.285   9.076  70.775  1.00  0.00    -0.275 C  
HETATM   17  H   UNL     1     -12.776  11.137  71.613  1.00  0.00     0.000 HD 
HETATM   18  O   UNL     1     -12.444   8.664  71.511  1.00  0.00    -0.306 OA 
HETATM   19  C   UNL     1     -11.431  10.526  70.289  1.00  0.00    -0.333 C  
HETATM   20  O   UNL     1     -12.687  11.084  70.668  1.00  0.00    -0.324 OA 
HETATM   21  H   UNL     1     -12.562   9.162  72.311  1.00  0.00     0.000 HD 
BRANCH  15  22
HETATM   22  N   UNL     1     -10.207   7.131  69.569  1.00  0.00    -0.190 NA 
HETATM   23  C   UNL     1      -9.205   6.943  70.484  1.00  0.00    -0.156 A  
HETATM   24  C   UNL     1      -8.881   5.519  68.927  1.00  0.00    -0.107 A  
HETATM   25  N   UNL     1      -8.378   5.981  70.122  1.00  0.00    -0.118 NA 
HETATM   26  C   UNL     1      -8.426   4.550  68.016  1.00  0.00    -0.098 A  
HETATM   27  N   UNL     1      -9.197   4.263  66.941  1.00  0.00    -0.136 NA 
HETATM   28  N   UNL     1      -7.214   3.889  68.147  1.00  0.00    -0.058 NA 
HETATM   29  H2  UNL     1      -7.199   3.464  69.074  1.00  0.00     0.000 HD 
HETATM   30  C   UNL     1     -10.338   4.961  66.766  1.00  0.00    -0.217 A  
HETATM   31  H1  UNL     1      -6.884   3.186  67.485  1.00  0.00     0.000 HD 
HETATM   32  N   UNL     1     -10.834   5.970  67.516  1.00  0.00    -0.308 NA 
HETATM   33  C   UNL     1     -10.053   6.180  68.595  1.00  0.00    -0.162 A  
ENDBRANCH  15  22
ENDBRANCH  12  13
ENDBRANCH  10  12
ENDBRANCH   9  10
ENDBRANCH   8   9
ENDBRANCH   1   8
TORSDOF 6
ENDMDL
MODEL      224
REMARK 921   NORMALIZED FREE ENERGY PREDICTED BY IDOCK:   -4.09 KCAL/MOL
REMARK 922        TOTAL FREE ENERGY PREDICTED BY IDOCK:   -6.95 KCAL/MOL
REMARK 923 INTER-LIGAND FREE ENERGY PREDICTED BY IDOCK:   -6.18 KCAL/MOL
REMARK 924 INTRA-LIGAND FREE ENERGY PREDICTED BY IDOCK:   -0.76 KCAL/MOL
REMARK 927      BINDING AFFINITY PREDICTED BY RF-SCORE:    0.00 PKD
ROOT
HETATM    1  CA  UNL     1      -6.083  11.473  69.198  1.00  0.00    -0.064 C  
HETATM    2  C   UNL     1      -6.520  12.568  68.152  1.00  0.00    -0.076 C  
HETATM    3  N   UNL     1      -6.443  11.959  70.578  1.00  0.00    -0.488 NA 
HETATM    4  OXT UNL     1      -5.784  12.642  67.125  1.00  0.00    -0.307 OA 
HETATM    5  H2  UNL     1      -6.293  11.252  71.297  1.00  0.00     0.000 HD 
HETATM    6  O   UNL     1      -7.538  13.241  68.476  1.00  0.00    -0.128 OA 
HETATM    7  H1  UNL     1      -5.924  12.819  70.755  1.00  0.00     0.000 HD 
ENDROOT
BRANCH   1   8
HETATM    8  C   UNL     1      -6.861  10.186  68.933  1.00  0.00    -0.054 C  
BRANCH   8   9
HETATM    9  C   UNL     1      -7.440   9.523  70.186  1.00  0.00    -0.135 C  
BRANCH   9  10
HETATM   10  S   UNL     1      -8.332   7.967  69.735  1.00  0.00    -0.123 S  
HETATM   11  C   UNL     1      -6.843   6.926  69.690  1.00  0.00    -0.051 C  
BRANCH  10  12
HETATM   12  C   UNL     1      -8.857   7.521  71.444  1.00  0.00    -0.132 C  
BRANCH  12  13
HETATM   13  C   UNL     1     -10.219   8.145  71.774  1.00  0.00    -0.212 C  
HETATM   14  O   UNL     1     -10.230   9.546  71.438  1.00  0.00    -0.283 OA 
HETATM   15  C   UNL     1     -11.602   9.926  71.359  1.00  0.00    -0.352 C  
HETATM   16  C   UNL     1     -12.301   8.746  70.678  1.00  0.00     0.144 C  
HETATM   17  H   UNL     1     -12.779   6.164  71.206  1.00  0.00     0.000 HD 
HETATM   18  O   UNL     1     -13.618   8.516  71.195  1.00  0.00    -0.548 OA 
HETATM   19  C   UNL     1     -11.381   7.551  70.971  1.00  0.00    -0.273 C  
HETATM   20  O   UNL     1     -12.058   6.532  71.704  1.00  0.00    -0.337 OA 
HETATM   21  H   UNL     1     -14.052   7.784  70.773  1.00  0.00     0.000 HD 
BRANCH  15  22
HETATM   22  N   UNL     1     -11.710  11.205  70.689  1.00  0.00    -0.288 NA 
HETATM   23  C   UNL     1     -12.456  12.280  71.097  1.00  0.00    -0.226 A  
HETATM   24  C   UNL     1     -11.909  12.655  69.068  1.00  0.00    -0.294 A  
HETATM   25  N   UNL     1     -12.604  13.172  70.137  1.00  0.00    -0.089 NA 
HETATM   26  C   UNL     1     -11.734  13.096  67.745  1.00  0.00    -0.358 A  
HETATM   27  N   UNL     1     -10.915  12.390  66.932  1.00  0.00    -0.255 NA 
HETATM   28  N   UNL     1     -12.379  14.206  67.220  1.00  0.00    -0.576 NA 
HETATM   29  H2  UNL     1     -12.171  14.996  67.832  1.00  0.00     0.000 HD 
HETATM   30  C   UNL     1     -10.349  11.264  67.415  1.00  0.00    -0.200 A  
HETATM   31  H1  UNL     1     -12.251  14.526  66.260  1.00  0.00     0.000 HD 
HETATM   32  N   UNL     1     -10.509  10.692  68.628  1.00  0.00    -0.180 NA 
HETATM   33  C   UNL     1     -11.294  11.460  69.409  1.00  0.00    -0.297 A  
ENDBRANCH  15  22
ENDBRANCH  12  13
ENDBRANCH  10  12
ENDBRANCH   9  10
ENDBRANCH   8   9
ENDBRANCH   1   8
TORSDOF 6
ENDMDL
MODEL      225
REMARK 921   NORMALIZED FREE ENERGY PREDICTED BY IDOCK:   -4.09 KCAL/MOL
REMARK 922        TOTAL FREE ENERGY PREDICTED BY IDOCK:   -6.95 KCAL/MOL
REMARK 923 INTER-LIGAND FREE ENERGY PREDICTED BY IDOCK:   -7.43 KCAL/MOL
REMARK 924 INTRA-LIGAND FREE ENERGY PREDICTED BY IDOCK:    0.49 KCAL/MOL
REMARK 927      BINDING AFFINITY PREDICTED BY RF-SCORE:    0.00 PKD
ROOT
HETATM    1  CA  UNL     1      -8.304  10.194  66.874  1.00  0.00    -0.122 C  
HETATM    2  C   UNL     1      -9.125   9.269  65.896  1.00  0.00    -0.197 C  
HETATM    3  N   UNL     1      -6.840   9.876  66.715  1.00  0.00    -0.082 NA 
HETATM    4  OXT UNL     1     -10.275   8.945  66.315  1.00  0.00    -0.284 OA 
HETATM    5  H2  UNL     1      -6.239  10.516  67.235  1.00  0.00     0.000 HD 
HETATM    6  O   UNL     1      -8.529   8.958  64.828  1.00  0.00    -0.167 OA 
HETATM    7  H1  UNL     1      -6.699   8.901  66.978  1.00  0.00     0.000 HD 
ENDROOT
BRANCH   1   8
HETATM    8  C   UNL     1      -8.516  11.655  66.481  1.00  0.00    -0.141 C  
BRANCH   8   9
HETATM    9  C   UNL     1      -9.985  12.073  66.358  1.00  0.00    -0.219 C  
BRANCH   9  10
HETATM   10  S   UNL     1     -10.107  13.881  65.990  1.00  0.00    -0.317 S  
HETATM   11  C   UNL     1     -11.890  14.001  66.324  1.00  0.00    -0.411 C  
BRANCH  10  12
HETATM   12  C   UNL     1      -9.537  14.472  67.640  1.00  0.00    -0.214 C  
BRANCH  12  13
HETATM   13  C   UNL     1     -10.730  14.909  68.501  1.00  0.00    -0.245 C  
HETATM   14  O   UNL     1     -11.476  13.762  68.954  1.00  0.00    -0.262 OA 
HETATM   15  C   UNL     1     -12.259  14.208  70.059  1.00  0.00    -0.357 C  
HETATM   16  C   UNL     1     -11.342  15.156  70.837  1.00  0.00    -0.307 C  
HETATM   17  H   UNL     1     -10.122  17.504  70.423  1.00  0.00     0.000 HD 
HETATM   18  O   UNL     1     -12.053  16.263  71.406  1.00  0.00    -0.613 OA 
HETATM   19  C   UNL     1     -10.328  15.636  69.787  1.00  0.00    -0.305 C  
HETATM   20  O   UNL     1     -10.371  17.053  69.625  1.00  0.00    -0.211 OA 
HETATM   21  H   UNL     1     -11.485  16.851  71.889  1.00  0.00     0.000 HD 
BRANCH  15  22
HETATM   22  N   UNL     1     -12.760  13.062  70.788  1.00  0.00    -0.220 NA 
HETATM   23  C   UNL     1     -13.507  13.089  71.937  1.00  0.00    -0.408 A  
HETATM   24  C   UNL     1     -12.799  11.086  71.717  1.00  0.00    -0.391 A  
HETATM   25  N   UNL     1     -13.543  11.911  72.530  1.00  0.00     0.018 NA 
HETATM   26  C   UNL     1     -12.414   9.739  71.828  1.00  0.00    -0.398 A  
HETATM   27  N   UNL     1     -11.726   9.178  70.806  1.00  0.00    -0.277 NA 
HETATM   28  N   UNL     1     -12.681   8.959  72.943  1.00  0.00    -0.487 NA 
HETATM   29  H2  UNL     1     -13.686   9.001  73.110  1.00  0.00     0.000 HD 
HETATM   30  C   UNL     1     -11.395   9.956  69.755  1.00  0.00    -0.193 A  
HETATM   31  H1  UNL     1     -12.401   7.981  73.023  1.00  0.00     0.000 HD 
HETATM   32  N   UNL     1     -11.626  11.275  69.574  1.00  0.00    -0.297 NA 
HETATM   33  C   UNL     1     -12.353  11.768  70.596  1.00  0.00    -0.328 A  
ENDBRANCH  15  22
ENDBRANCH  12  13
ENDBRANCH  10  12
ENDBRANCH   9  10
ENDBRANCH   8   9
ENDBRANCH   1   8
TORSDOF 6
ENDMDL
MODEL      226
REMARK 921   NORMALIZED FREE ENERGY PREDICTED BY IDOCK:   -4.09 KCAL/MOL
REMARK 922        TOTAL FREE ENERGY PREDICTED BY IDOCK:   -6.94 KCAL/MOL
REMARK 923 INTER-LIGAND FREE ENERGY PREDICTED BY IDOCK:   -5.57 KCAL/MOL
REMARK 924 INTRA-LIGAND FREE ENERGY PREDICTED BY IDOCK:   -1.38 KCAL/MOL
REMARK 927      BINDING AFFINITY PREDICTED BY RF-SCORE:    0.00 PKD
ROOT
HETATM    1  CA  UNL     1      -8.758   5.496  69.877  1.00  0.00    -0.123 C  
HETATM    2  C   UNL     1      -8.406   4.454  68.749  1.00  0.00    -0.083 C  
HETATM    3  N   UNL     1      -8.658   6.883  69.294  1.00  0.00    -0.132 NA 
HETATM    4  OXT UNL     1      -7.842   3.398  69.161  1.00  0.00    -0.051 OA 
HETATM    5  H2  UNL     1      -8.982   7.605  69.938  1.00  0.00     0.000 HD 
HETATM    6  O   UNL     1      -8.719   4.807  67.578  1.00  0.00    -0.104 OA 
HETATM    7  H1  UNL     1      -7.695   7.028  68.991  1.00  0.00     0.000 HD 
ENDROOT
BRANCH   1   8
HETATM    8  C   UNL     1     -10.199   5.278  70.333  1.00  0.00    -0.338 C  
BRANCH   8   9
HETATM    9  C   UNL     1     -11.167   6.398  69.939  1.00  0.00    -0.420 C  
BRANCH   9  10
HETATM   10  S   UNL     1     -12.044   7.042  71.434  1.00  0.00    -0.373 S  
HETATM   11  C   UNL     1     -11.659   5.610  72.485  1.00  0.00    -0.246 C  
BRANCH  10  12
HETATM   12  C   UNL     1     -10.677   8.124  72.032  1.00  0.00    -0.278 C  
BRANCH  12  13
HETATM   13  C   UNL     1     -10.813   9.539  71.454  1.00  0.00    -0.312 C  
HETATM   14  O   UNL     1     -10.030   9.672  70.252  1.00  0.00    -0.241 OA 
HETATM   15  C   UNL     1     -10.541  10.815  69.569  1.00  0.00    -0.196 C  
HETATM   16  C   UNL     1     -12.060  10.738  69.751  1.00  0.00    -0.318 C  
HETATM   17  H   UNL     1     -13.812  10.842  71.775  1.00  0.00     0.000 HD 
HETATM   18  O   UNL     1     -12.659  12.031  69.905  1.00  0.00     0.000 OA 
HETATM   19  C   UNL     1     -12.238   9.896  71.024  1.00  0.00    -0.353 C  
HETATM   20  O   UNL     1     -12.928  10.620  72.041  1.00  0.00    -0.461 OA 
HETATM   21  H   UNL     1     -13.601  11.984  70.018  1.00  0.00     0.000 HD 
BRANCH  15  22
HETATM   22  N   UNL     1     -10.062  10.815  68.202  1.00  0.00    -0.160 NA 
HETATM   23  C   UNL     1     -10.655  10.203  67.130  1.00  0.00    -0.246 A  
HETATM   24  C   UNL     1      -8.671  10.705  66.523  1.00  0.00    -0.146 A  
HETATM   25  N   UNL     1      -9.837  10.111  66.098  1.00  0.00    -0.223 NA 
HETATM   26  C   UNL     1      -7.414  10.872  65.916  1.00  0.00    -0.048 A  
HETATM   27  N   UNL     1      -6.467  11.579  66.575  1.00  0.00    -0.090 NA 
HETATM   28  N   UNL     1      -7.084  10.327  64.684  1.00  0.00    -0.256 NA 
HETATM   29  H2  UNL     1      -7.787  10.640  64.015  1.00  0.00     0.000 HD 
HETATM   30  C   UNL     1      -6.758  12.043  67.809  1.00  0.00    -0.096 A  
HETATM   31  H1  UNL     1      -6.171  10.449  64.243  1.00  0.00     0.000 HD 
HETATM   32  N   UNL     1      -7.887  11.872  68.530  1.00  0.00    -0.139 NA 
HETATM   33  C   UNL     1      -8.809  11.204  67.809  1.00  0.00    -0.135 A  
ENDBRANCH  15  22
ENDBRANCH  12  13
ENDBRANCH  10  12
ENDBRANCH   9  10
ENDBRANCH   8   9
ENDBRANCH   1   8
TORSDOF 6
ENDMDL
MODEL      227
REMARK 921   NORMALIZED FREE ENERGY PREDICTED BY IDOCK:   -4.09 KCAL/MOL
REMARK 922        TOTAL FREE ENERGY PREDICTED BY IDOCK:   -6.94 KCAL/MOL
REMARK 923 INTER-LIGAND FREE ENERGY PREDICTED BY IDOCK:   -6.21 KCAL/MOL
REMARK 924 INTRA-LIGAND FREE ENERGY PREDICTED BY IDOCK:   -0.73 KCAL/MOL
REMARK 927      BINDING AFFINITY PREDICTED BY RF-SCORE:    0.00 PKD
ROOT
HETATM    1  CA  UNL     1      -7.785  16.890  68.048  1.00  0.00    -0.177 C  
HETATM    2  C   UNL     1      -6.711  17.659  68.908  1.00  0.00    -0.236 C  
HETATM    3  N   UNL     1      -7.500  15.412  68.140  1.00  0.00    -0.110 NA 
HETATM    4  OXT UNL     1      -6.404  18.806  68.469  1.00  0.00    -0.217 OA 
HETATM    5  H2  UNL     1      -8.224  14.844  67.700  1.00  0.00     0.000 HD 
HETATM    6  O   UNL     1      -6.284  17.031  69.917  1.00  0.00    -0.230 OA 
HETATM    7  H1  UNL     1      -6.574  15.245  67.749  1.00  0.00     0.000 HD 
ENDROOT
BRANCH   1   8
HETATM    8  C   UNL     1      -9.173  17.141  68.634  1.00  0.00    -0.263 C  
BRANCH   8   9
HETATM    9  C   UNL     1      -9.898  15.881  69.114  1.00  0.00    -0.247 C  
BRANCH   9  10
HETATM   10  S   UNL     1     -11.525  15.709  68.252  1.00  0.00    -0.314 S  
HETATM   11  C   UNL     1     -10.812  15.363  66.616  1.00  0.00    -0.302 C  
BRANCH  10  12
HETATM   12  C   UNL     1     -11.834  13.957  68.729  1.00  0.00    -0.361 C  
BRANCH  12  13
HETATM   13  C   UNL     1     -10.917  13.011  67.942  1.00  0.00    -0.241 C  
HETATM   14  O   UNL     1      -9.970  12.374  68.822  1.00  0.00    -0.152 OA 
HETATM   15  C   UNL     1      -9.479  11.233  68.120  1.00  0.00    -0.184 C  
HETATM   16  C   UNL     1     -10.703  10.652  67.405  1.00  0.00    -0.276 C  
HETATM   17  H   UNL     1     -12.416  11.414  65.492  1.00  0.00     0.000 HD 
HETATM   18  O   UNL     1     -10.379  10.111  66.117  1.00  0.00    -0.227 OA 
HETATM   19  C   UNL     1     -11.657  11.849  67.272  1.00  0.00    -0.293 C  
HETATM   20  O   UNL     1     -11.957  12.135  65.907  1.00  0.00    -0.561 OA 
HETATM   21  H   UNL     1     -11.138   9.751  65.673  1.00  0.00     0.000 HD 
BRANCH  15  22
HETATM   22  N   UNL     1      -8.804  10.350  69.048  1.00  0.00    -0.164 NA 
HETATM   23  C   UNL     1      -7.553   9.812  68.897  1.00  0.00    -0.081 A  
HETATM   24  C   UNL     1      -8.501   8.720  70.468  1.00  0.00    -0.166 A  
HETATM   25  N   UNL     1      -7.340   8.815  69.735  1.00  0.00    -0.051 NA 
HETATM   26  C   UNL     1      -8.922   7.828  71.469  1.00  0.00    -0.133 A  
HETATM   27  N   UNL     1     -10.119   8.042  72.063  1.00  0.00    -0.201 NA 
HETATM   28  N   UNL     1      -8.184   6.722  71.865  1.00  0.00    -0.102 NA 
HETATM   29  H2  UNL     1      -7.255   7.053  72.125  1.00  0.00     0.000 HD 
HETATM   30  C   UNL     1     -10.875   9.070  71.626  1.00  0.00    -0.366 A  
HETATM   31  H1  UNL     1      -8.490   6.074  72.591  1.00  0.00     0.000 HD 
HETATM   32  N   UNL     1     -10.623   9.935  70.619  1.00  0.00    -0.300 NA 
HETATM   33  C   UNL     1      -9.402   9.706  70.098  1.00  0.00    -0.251 A  
ENDBRANCH  15  22
ENDBRANCH  12  13
ENDBRANCH  10  12
ENDBRANCH   9  10
ENDBRANCH   8   9
ENDBRANCH   1   8
TORSDOF 6
ENDMDL
MODEL      228
REMARK 921   NORMALIZED FREE ENERGY PREDICTED BY IDOCK:   -4.07 KCAL/MOL
REMARK 922        TOTAL FREE ENERGY PREDICTED BY IDOCK:   -6.91 KCAL/MOL
REMARK 923 INTER-LIGAND FREE ENERGY PREDICTED BY IDOCK:   -6.62 KCAL/MOL
REMARK 924 INTRA-LIGAND FREE ENERGY PREDICTED BY IDOCK:   -0.29 KCAL/MOL
REMARK 927      BINDING AFFINITY PREDICTED BY RF-SCORE:    0.00 PKD
ROOT
HETATM    1  CA  UNL     1      -6.779  15.272  67.404  1.00  0.00    -0.123 C  
HETATM    2  C   UNL     1      -5.631  15.782  68.356  1.00  0.00    -0.111 C  
HETATM    3  N   UNL     1      -6.699  13.769  67.321  1.00  0.00    -0.435 NA 
HETATM    4  OXT UNL     1      -5.163  16.919  68.059  1.00  0.00    -0.110 OA 
HETATM    5  H2  UNL     1      -7.482  13.361  66.811  1.00  0.00     0.000 HD 
HETATM    6  O   UNL     1      -5.315  14.987  69.285  1.00  0.00    -0.091 OA 
HETATM    7  H1  UNL     1      -5.794  13.524  66.918  1.00  0.00     0.000 HD 
ENDROOT
BRANCH   1   8
HETATM    8  C   UNL     1      -8.133  15.640  68.007  1.00  0.00    -0.140 C  
BRANCH   8   9
HETATM    9  C   UNL     1      -9.151  14.496  68.029  1.00  0.00    -0.185 C  
BRANCH   9  10
HETATM   10  S   UNL     1     -10.698  14.998  67.149  1.00  0.00    -0.309 S  
HETATM   11  C   UNL     1     -10.052  14.680  65.480  1.00  0.00    -0.377 C  
BRANCH  10  12
HETATM   12  C   UNL     1     -11.584  13.394  67.347  1.00  0.00    -0.354 C  
BRANCH  12  13
HETATM   13  C   UNL     1     -10.599  12.219  67.290  1.00  0.00    -0.224 C  
HETATM   14  O   UNL     1     -10.585  11.507  68.543  1.00  0.00    -0.193 OA 
HETATM   15  C   UNL     1     -10.011  10.231  68.268  1.00  0.00    -0.147 C  
HETATM   16  C   UNL     1     -10.588   9.821  66.910  1.00  0.00    -0.173 C  
HETATM   17  H   UNL     1     -10.490  10.696  64.380  1.00  0.00     0.000 HD 
HETATM   18  O   UNL     1      -9.642   9.103  66.107  1.00  0.00    -0.224 OA 
HETATM   19  C   UNL     1     -10.966  11.156  66.250  1.00  0.00    -0.163 C  
HETATM   20  O   UNL     1     -10.263  11.356  65.025  1.00  0.00    -0.251 OA 
HETATM   21  H   UNL     1      -9.999   8.850  65.264  1.00  0.00     0.000 HD 
BRANCH  15  22
HETATM   22  N   UNL     1     -10.281   9.333  69.373  1.00  0.00    -0.202 NA 
HETATM   23  C   UNL     1      -9.705   8.110  69.589  1.00  0.00    -0.170 A  
HETATM   24  C   UNL     1     -11.409   8.214  70.870  1.00  0.00    -0.268 A  
HETATM   25  N   UNL     1     -10.368   7.401  70.483  1.00  0.00    -0.212 NA 
HETATM   26  C   UNL     1     -12.493   8.018  71.743  1.00  0.00    -0.324 A  
HETATM   27  N   UNL     1     -13.329   9.056  71.977  1.00  0.00    -0.404 NA 
HETATM   28  N   UNL     1     -12.767   6.806  72.359  1.00  0.00    -0.509 NA 
HETATM   29  H2  UNL     1     -11.923   6.521  72.856  1.00  0.00     0.000 HD 
HETATM   30  C   UNL     1     -13.114  10.213  71.317  1.00  0.00    -0.396 A  
HETATM   31  H1  UNL     1     -13.554   6.664  72.993  1.00  0.00     0.000 HD 
HETATM   32  N   UNL     1     -12.169  10.495  70.394  1.00  0.00    -0.311 NA 
HETATM   33  C   UNL     1     -11.339   9.445  70.236  1.00  0.00    -0.220 A  
ENDBRANCH  15  22
ENDBRANCH  12  13
ENDBRANCH  10  12
ENDBRANCH   9  10
ENDBRANCH   8   9
ENDBRANCH   1   8
TORSDOF 6
ENDMDL
MODEL      229
REMARK 921   NORMALIZED FREE ENERGY PREDICTED BY IDOCK:   -4.07 KCAL/MOL
REMARK 922        TOTAL FREE ENERGY PREDICTED BY IDOCK:   -6.91 KCAL/MOL
REMARK 923 INTER-LIGAND FREE ENERGY PREDICTED BY IDOCK:   -6.85 KCAL/MOL
REMARK 924 INTRA-LIGAND FREE ENERGY PREDICTED BY IDOCK:   -0.07 KCAL/MOL
REMARK 927      BINDING AFFINITY PREDICTED BY RF-SCORE:    0.00 PKD
ROOT
HETATM    1  CA  UNL     1      -7.472  10.538  66.723  1.00  0.00    -0.115 C  
HETATM    2  C   UNL     1      -6.511  10.630  65.478  1.00  0.00    -0.066 C  
HETATM    3  N   UNL     1      -6.634  10.561  67.976  1.00  0.00    -0.060 NA 
HETATM    4  OXT UNL     1      -6.920  10.019  64.447  1.00  0.00    -0.125 OA 
HETATM    5  H2  UNL     1      -7.196  10.618  68.825  1.00  0.00     0.000 HD 
HETATM    6  O   UNL     1      -5.451  11.290  65.668  1.00  0.00    -0.217 OA 
HETATM    7  H1  UNL     1      -6.023   9.744  67.962  1.00  0.00     0.000 HD 
ENDROOT
BRANCH   1   8
HETATM    8  C   UNL     1      -8.388  11.760  66.745  1.00  0.00    -0.165 C  
BRANCH   8   9
HETATM    9  C   UNL     1      -9.316  11.880  65.532  1.00  0.00    -0.078 C  
BRANCH   9  10
HETATM   10  S   UNL     1     -10.309  13.436  65.636  1.00  0.00    -0.293 S  
HETATM   11  C   UNL     1     -11.910  12.601  65.846  1.00  0.00    -0.444 C  
BRANCH  10  12
HETATM   12  C   UNL     1     -10.000  13.765  67.423  1.00  0.00    -0.237 C  
BRANCH  12  13
HETATM   13  C   UNL     1     -11.297  13.623  68.232  1.00  0.00    -0.289 C  
HETATM   14  O   UNL     1     -11.456  12.270  68.701  1.00  0.00    -0.256 OA 
HETATM   15  C   UNL     1     -12.403  12.327  69.766  1.00  0.00    -0.016 C  
HETATM   16  C   UNL     1     -12.053  13.602  70.539  1.00  0.00    -0.339 C  
HETATM   17  H   UNL     1     -12.020  16.241  70.081  1.00  0.00     0.000 HD 
HETATM   18  O   UNL     1     -13.214  14.271  71.047  1.00  0.00    -0.350 OA 
HETATM   19  C   UNL     1     -11.326  14.475  69.504  1.00  0.00    -0.275 C  
HETATM   20  O   UNL     1     -12.002  15.713  69.292  1.00  0.00    -0.365 OA 
HETATM   21  H   UNL     1     -12.997  15.062  71.527  1.00  0.00     0.000 HD 
BRANCH  15  22
HETATM   22  N   UNL     1     -12.357  11.091  70.519  1.00  0.00    -0.352 NA 
HETATM   23  C   UNL     1     -13.237  10.696  71.492  1.00  0.00    -0.360 A  
HETATM   24  C   UNL     1     -11.535   9.417  71.654  1.00  0.00    -0.393 A  
HETATM   25  N   UNL     1     -12.767   9.690  72.205  1.00  0.00    -0.368 NA 
HETATM   26  C   UNL     1     -10.522   8.504  71.996  1.00  0.00    -0.336 A  
HETATM   27  N   UNL     1      -9.432   8.421  71.199  1.00  0.00    -0.167 NA 
HETATM   28  N   UNL     1     -10.570   7.701  73.126  1.00  0.00    -0.372 NA 
HETATM   29  H2  UNL     1     -11.447   7.181  73.091  1.00  0.00     0.000 HD 
HETATM   30  C   UNL     1      -9.344   9.258  70.145  1.00  0.00    -0.228 A  
HETATM   31  H1  UNL     1      -9.835   7.039  73.374  1.00  0.00     0.000 HD 
HETATM   32  N   UNL     1     -10.201  10.232  69.766  1.00  0.00    -0.238 NA 
HETATM   33  C   UNL     1     -11.287  10.237  70.564  1.00  0.00    -0.341 A  
ENDBRANCH  15  22
ENDBRANCH  12  13
ENDBRANCH  10  12
ENDBRANCH   9  10
ENDBRANCH   8   9
ENDBRANCH   1   8
TORSDOF 6
ENDMDL
MODEL      230
REMARK 921   NORMALIZED FREE ENERGY PREDICTED BY IDOCK:   -4.06 KCAL/MOL
REMARK 922        TOTAL FREE ENERGY PREDICTED BY IDOCK:   -6.90 KCAL/MOL
REMARK 923 INTER-LIGAND FREE ENERGY PREDICTED BY IDOCK:   -6.57 KCAL/MOL
REMARK 924 INTRA-LIGAND FREE ENERGY PREDICTED BY IDOCK:   -0.33 KCAL/MOL
REMARK 927      BINDING AFFINITY PREDICTED BY RF-SCORE:    0.00 PKD
ROOT
HETATM    1  CA  UNL     1     -13.024  11.319  71.115  1.00  0.00    -0.272 C  
HETATM    2  C   UNL     1     -11.916  10.370  70.520  1.00  0.00    -0.334 C  
HETATM    3  N   UNL     1     -13.307  10.894  72.533  1.00  0.00    -0.377 NA 
HETATM    4  OXT UNL     1     -12.012  10.158  69.276  1.00  0.00    -0.026 OA 
HETATM    5  H2  UNL     1     -13.934  11.535  73.019  1.00  0.00     0.000 HD 
HETATM    6  O   UNL     1     -11.081   9.931  71.360  1.00  0.00    -0.325 OA 
HETATM    7  H1  UNL     1     -13.661   9.938  72.511  1.00  0.00     0.000 HD 
ENDROOT
BRANCH   1   8
HETATM    8  C   UNL     1     -12.496  12.752  71.147  1.00  0.00    -0.335 C  
BRANCH   8   9
HETATM    9  C   UNL     1     -11.538  13.102  70.004  1.00  0.00    -0.131 C  
BRANCH   9  10
HETATM   10  S   UNL     1     -11.814  14.844  69.448  1.00  0.00    -0.323 S  
HETATM   11  C   UNL     1     -10.078  15.157  69.009  1.00  0.00    -0.244 C  
BRANCH  10  12
HETATM   12  C   UNL     1     -12.397  14.434  67.749  1.00  0.00     0.013 C  
BRANCH  12  13
HETATM   13  C   UNL     1     -11.216  14.043  66.850  1.00  0.00    -0.313 C  
HETATM   14  O   UNL     1     -10.656  12.783  67.267  1.00  0.00    -0.231 OA 
HETATM   15  C   UNL     1      -9.894  12.300  66.162  1.00  0.00    -0.243 C  
HETATM   16  C   UNL     1     -10.729  12.645  64.925  1.00  0.00    -0.299 C  
HETATM   17  H   UNL     1     -11.605  14.854  63.689  1.00  0.00     0.000 HD 
HETATM   18  O   UNL     1      -9.918  13.015  63.803  1.00  0.00    -0.744 OA 
HETATM   19  C   UNL     1     -11.602  13.823  65.384  1.00  0.00    -0.320 C  
HETATM   20  O   UNL     1     -11.366  14.990  64.598  1.00  0.00    -0.384 OA 
HETATM   21  H   UNL     1     -10.436  13.229  63.036  1.00  0.00     0.000 HD 
BRANCH  15  22
HETATM   22  N   UNL     1      -9.594  10.897  66.359  1.00  0.00    -0.191 NA 
HETATM   23  C   UNL     1     -10.030   9.854  65.586  1.00  0.00    -0.283 A  
HETATM   24  C   UNL     1      -9.273   8.999  67.390  1.00  0.00    -0.138 A  
HETATM   25  N   UNL     1      -9.859   8.690  66.184  1.00  0.00    -0.244 NA 
HETATM   26  C   UNL     1      -8.898   8.214  68.494  1.00  0.00    -0.134 A  
HETATM   27  N   UNL     1      -8.264   8.813  69.528  1.00  0.00    -0.108 NA 
HETATM   28  N   UNL     1      -9.169   6.857  68.591  1.00  0.00    -0.131 NA 
HETATM   29  H2  UNL     1      -8.786   6.410  67.757  1.00  0.00     0.000 HD 
HETATM   30  C   UNL     1      -8.071  10.148  69.473  1.00  0.00    -0.170 A  
HETATM   31  H1  UNL     1      -8.897   6.287  69.392  1.00  0.00     0.000 HD 
HETATM   32  N   UNL     1      -8.461  11.019  68.517  1.00  0.00    -0.147 NA 
HETATM   33  C   UNL     1      -9.044  10.363  67.494  1.00  0.00    -0.134 A  
ENDBRANCH  15  22
ENDBRANCH  12  13
ENDBRANCH  10  12
ENDBRANCH   9  10
ENDBRANCH   8   9
ENDBRANCH   1   8
TORSDOF 6
ENDMDL
MODEL      231
REMARK 921   NORMALIZED FREE ENERGY PREDICTED BY IDOCK:   -4.05 KCAL/MOL
REMARK 922        TOTAL FREE ENERGY PREDICTED BY IDOCK:   -6.89 KCAL/MOL
REMARK 923 INTER-LIGAND FREE ENERGY PREDICTED BY IDOCK:   -6.40 KCAL/MOL
REMARK 924 INTRA-LIGAND FREE ENERGY PREDICTED BY IDOCK:   -0.49 KCAL/MOL
REMARK 927      BINDING AFFINITY PREDICTED BY RF-SCORE:    0.00 PKD
ROOT
HETATM    1  CA  UNL     1     -12.357  13.749  65.290  1.00  0.00    -0.464 C  
HETATM    2  C   UNL     1     -10.957  13.994  64.608  1.00  0.00    -0.392 C  
HETATM    3  N   UNL     1     -13.102  12.710  64.491  1.00  0.00    -0.820 NA 
HETATM    4  OXT UNL     1     -10.513  15.174  64.722  1.00  0.00    -0.368 OA 
HETATM    5  H2  UNL     1     -13.971  12.418  64.937  1.00  0.00     0.000 HD 
HETATM    6  O   UNL     1     -10.463  12.989  64.025  1.00  0.00    -0.418 OA 
HETATM    7  H1  UNL     1     -13.246  13.079  63.551  1.00  0.00     0.000 HD 
ENDROOT
BRANCH   1   8
HETATM    8  C   UNL     1     -12.142  13.197  66.697  1.00  0.00    -0.409 C  
BRANCH   8   9
HETATM    9  C   UNL     1     -10.672  13.021  67.093  1.00  0.00    -0.254 C  
BRANCH   9  10
HETATM   10  S   UNL     1     -10.257  11.225  67.232  1.00  0.00    -0.200 S  
HETATM   11  C   UNL     1      -8.469  11.447  66.992  1.00  0.00    -0.159 C  
BRANCH  10  12
HETATM   12  C   UNL     1     -10.223  11.157  69.073  1.00  0.00    -0.176 C  
BRANCH  12  13
HETATM   13  C   UNL     1     -10.132   9.704  69.560  1.00  0.00    -0.209 C  
HETATM   14  O   UNL     1     -10.492   8.792  68.504  1.00  0.00    -0.206 OA 
HETATM   15  C   UNL     1      -9.974   7.519  68.885  1.00  0.00    -0.168 C  
HETATM   16  C   UNL     1      -8.605   7.818  69.504  1.00  0.00    -0.135 C  
HETATM   17  H   UNL     1      -7.647   9.133  71.632  1.00  0.00     0.000 HD 
HETATM   18  O   UNL     1      -8.301   6.952  70.605  1.00  0.00    -0.125 OA 
HETATM   19  C   UNL     1      -8.720   9.277  69.970  1.00  0.00    -0.195 C  
HETATM   20  O   UNL     1      -8.523   9.398  71.377  1.00  0.00    -0.293 OA 
HETATM   21  H   UNL     1      -7.452   7.137  70.990  1.00  0.00     0.000 HD 
BRANCH  15  22
HETATM   22  N   UNL     1      -9.976   6.635  67.738  1.00  0.00    -0.127 NA 
HETATM   23  C   UNL     1     -10.435   5.344  67.704  1.00  0.00    -0.150 A  
HETATM   24  C   UNL     1      -9.278   5.625  65.932  1.00  0.00    -0.132 A  
HETATM   25  N   UNL     1     -10.023   4.701  66.629  1.00  0.00    -0.219 NA 
HETATM   26  C   UNL     1      -8.529   5.543  64.746  1.00  0.00    -0.125 A  
HETATM   27  N   UNL     1      -7.953   6.670  64.266  1.00  0.00    -0.115 NA 
HETATM   28  N   UNL     1      -8.327   4.358  64.052  1.00  0.00    -0.102 NA 
HETATM   29  H2  UNL     1      -9.245   3.960  63.859  1.00  0.00     0.000 HD 
HETATM   30  C   UNL     1      -8.080   7.807  64.980  1.00  0.00    -0.139 A  
HETATM   31  H1  UNL     1      -7.783   4.299  63.191  1.00  0.00     0.000 HD 
HETATM   32  N   UNL     1      -8.692   7.993  66.170  1.00  0.00    -0.146 NA 
HETATM   33  C   UNL     1      -9.286   6.854  66.575  1.00  0.00    -0.158 A  
ENDBRANCH  15  22
ENDBRANCH  12  13
ENDBRANCH  10  12
ENDBRANCH   9  10
ENDBRANCH   8   9
ENDBRANCH   1   8
TORSDOF 6
ENDMDL
MODEL      232
REMARK 921   NORMALIZED FREE ENERGY PREDICTED BY IDOCK:   -4.04 KCAL/MOL
REMARK 922        TOTAL FREE ENERGY PREDICTED BY IDOCK:   -6.88 KCAL/MOL
REMARK 923 INTER-LIGAND FREE ENERGY PREDICTED BY IDOCK:   -6.65 KCAL/MOL
REMARK 924 INTRA-LIGAND FREE ENERGY PREDICTED BY IDOCK:   -0.23 KCAL/MOL
REMARK 927      BINDING AFFINITY PREDICTED BY RF-SCORE:    0.00 PKD
ROOT
HETATM    1  CA  UNL     1     -12.553  10.107  70.887  1.00  0.00    -0.360 C  
HETATM    2  C   UNL     1     -11.279   9.185  70.985  1.00  0.00    -0.312 C  
HETATM    3  N   UNL     1     -13.253  10.098  72.222  1.00  0.00    -0.564 NA 
HETATM    4  OXT UNL     1     -10.969   8.595  69.909  1.00  0.00    -0.234 OA 
HETATM    5  H2  UNL     1     -14.025  10.763  72.267  1.00  0.00     0.000 HD 
HETATM    6  O   UNL     1     -10.736   9.142  72.124  1.00  0.00    -0.288 OA 
HETATM    7  H1  UNL     1     -13.545   9.140  72.418  1.00  0.00     0.000 HD 
ENDROOT
BRANCH   1   8
HETATM    8  C   UNL     1     -12.117  11.540  70.592  1.00  0.00    -0.450 C  
BRANCH   8   9
HETATM    9  C   UNL     1     -11.143  11.679  69.418  1.00  0.00    -0.206 C  
BRANCH   9  10
HETATM   10  S   UNL     1     -11.720  13.000  68.260  1.00  0.00    -0.354 S  
HETATM   11  C   UNL     1     -10.057  13.621  67.870  1.00  0.00    -0.244 C  
BRANCH  10  12
HETATM   12  C   UNL     1     -11.901  11.919  66.779  1.00  0.00    -0.087 C  
BRANCH  12  13
HETATM   13  C   UNL     1     -10.660  12.015  65.882  1.00  0.00    -0.265 C  
HETATM   14  O   UNL     1      -9.719  10.972  66.206  1.00  0.00    -0.195 OA 
HETATM   15  C   UNL     1      -8.844  10.864  65.085  1.00  0.00    -0.156 C  
HETATM   16  C   UNL     1      -9.748  11.027  63.860  1.00  0.00    -0.292 C  
HETATM   17  H   UNL     1     -11.299  12.933  62.793  1.00  0.00     0.000 HD 
HETATM   18  O   UNL     1      -9.105  11.739  62.795  1.00  0.00    -0.606 OA 
HETATM   19  C   UNL     1     -10.956  11.813  64.394  1.00  0.00    -0.339 C  
HETATM   20  O   UNL     1     -11.115  13.058  63.716  1.00  0.00    -0.399 OA 
HETATM   21  H   UNL     1      -9.665  11.841  62.035  1.00  0.00     0.000 HD 
BRANCH  15  22
HETATM   22  N   UNL     1      -8.103   9.622  65.170  1.00  0.00    -0.119 NA 
HETATM   23  C   UNL     1      -6.906   9.344  64.566  1.00  0.00    -0.093 A  
HETATM   24  C   UNL     1      -7.707   7.475  65.217  1.00  0.00    -0.112 A  
HETATM   25  N   UNL     1      -6.640   8.052  64.567  1.00  0.00    -0.059 NA 
HETATM   26  C   UNL     1      -8.046   6.139  65.487  1.00  0.00    -0.131 A  
HETATM   27  N   UNL     1      -9.152   5.889  66.226  1.00  0.00    -0.147 NA 
HETATM   28  N   UNL     1      -7.318   5.057  65.014  1.00  0.00    -0.067 NA 
HETATM   29  H2  UNL     1      -6.350   5.190  65.309  1.00  0.00     0.000 HD 
HETATM   30  C   UNL     1      -9.908   6.935  66.620  1.00  0.00    -0.153 A  
HETATM   31  H1  UNL     1      -7.564   4.086  65.211  1.00  0.00     0.000 HD 
HETATM   32  N   UNL     1      -9.739   8.248  66.349  1.00  0.00    -0.243 NA 
HETATM   33  C   UNL     1      -8.600   8.441  65.654  1.00  0.00    -0.174 A  
ENDBRANCH  15  22
ENDBRANCH  12  13
ENDBRANCH  10  12
ENDBRANCH   9  10
ENDBRANCH   8   9
ENDBRANCH   1   8
TORSDOF 6
ENDMDL
MODEL      233
REMARK 921   NORMALIZED FREE ENERGY PREDICTED BY IDOCK:   -4.03 KCAL/MOL
REMARK 922        TOTAL FREE ENERGY PREDICTED BY IDOCK:   -6.87 KCAL/MOL
REMARK 923 INTER-LIGAND FREE ENERGY PREDICTED BY IDOCK:   -5.60 KCAL/MOL
REMARK 924 INTRA-LIGAND FREE ENERGY PREDICTED BY IDOCK:   -1.27 KCAL/MOL
REMARK 927      BINDING AFFINITY PREDICTED BY RF-SCORE:    0.00 PKD
ROOT
HETATM    1  CA  UNL     1     -10.525  11.089  64.860  1.00  0.00    -0.303 C  
HETATM    2  C   UNL     1     -10.624  11.710  63.415  1.00  0.00    -0.409 C  
HETATM    3  N   UNL     1      -9.785   9.779  64.767  1.00  0.00    -0.422 NA 
HETATM    4  OXT UNL     1     -11.668  12.393  63.203  1.00  0.00    -0.402 OA 
HETATM    5  H2  UNL     1      -9.584   9.374  65.681  1.00  0.00     0.000 HD 
HETATM    6  O   UNL     1      -9.658  11.439  62.649  1.00  0.00    -0.320 OA 
HETATM    7  H1  UNL     1     -10.325   9.154  64.169  1.00  0.00     0.000 HD 
ENDROOT
BRANCH   1   8
HETATM    8  C   UNL     1      -9.717  12.025  65.756  1.00  0.00    -0.254 C  
BRANCH   8   9
HETATM    9  C   UNL     1      -8.570  11.348  66.512  1.00  0.00    -0.175 C  
BRANCH   9  10
HETATM   10  S   UNL     1      -8.687  11.719  68.320  1.00  0.00    -0.159 S  
HETATM   11  C   UNL     1      -9.058  13.486  68.106  1.00  0.00    -0.199 C  
BRANCH  10  12
HETATM   12  C   UNL     1     -10.427  11.157  68.539  1.00  0.00    -0.191 C  
BRANCH  12  13
HETATM   13  C   UNL     1     -10.475   9.666  68.901  1.00  0.00    -0.215 C  
HETATM   14  O   UNL     1     -10.019   8.862  67.795  1.00  0.00    -0.171 OA 
HETATM   15  C   UNL     1      -9.685   7.588  68.342  1.00  0.00    -0.156 C  
HETATM   16  C   UNL     1      -9.006   7.897  69.680  1.00  0.00    -0.146 C  
HETATM   17  H   UNL     1      -9.677   9.013  72.021  1.00  0.00     0.000 HD 
HETATM   18  O   UNL     1      -9.321   6.930  70.690  1.00  0.00    -0.161 OA 
HETATM   19  C   UNL     1      -9.550   9.283  70.060  1.00  0.00    -0.209 C  
HETATM   20  O   UNL     1     -10.250   9.251  71.302  1.00  0.00    -0.303 OA 
HETATM   21  H   UNL     1      -8.900   7.121  71.520  1.00  0.00     0.000 HD 
BRANCH  15  22
HETATM   22  N   UNL     1      -8.895   6.844  67.383  1.00  0.00    -0.118 NA 
HETATM   23  C   UNL     1      -7.605   7.110  67.007  1.00  0.00    -0.099 A  
HETATM   24  C   UNL     1      -8.388   5.740  65.568  1.00  0.00    -0.140 A  
HETATM   25  N   UNL     1      -7.268   6.466  65.906  1.00  0.00    -0.076 NA 
HETATM   26  C   UNL     1      -8.686   4.905  64.478  1.00  0.00    -0.148 A  
HETATM   27  N   UNL     1      -9.876   4.261  64.464  1.00  0.00    -0.154 NA 
HETATM   28  N   UNL     1      -7.832   4.726  63.399  1.00  0.00    -0.076 NA 
HETATM   29  H2  UNL     1      -6.931   4.428  63.771  1.00  0.00     0.000 HD 
HETATM   30  C   UNL     1     -10.742   4.496  65.471  1.00  0.00    -0.130 A  
HETATM   31  H1  UNL     1      -8.049   4.120  62.607  1.00  0.00     0.000 HD 
HETATM   32  N   UNL     1     -10.610   5.337  66.520  1.00  0.00    -0.306 NA 
HETATM   33  C   UNL     1      -9.392   5.914  66.508  1.00  0.00    -0.153 A  
ENDBRANCH  15  22
ENDBRANCH  12  13
ENDBRANCH  10  12
ENDBRANCH   9  10
ENDBRANCH   8   9
ENDBRANCH   1   8
TORSDOF 6
ENDMDL
MODEL      234
REMARK 921   NORMALIZED FREE ENERGY PREDICTED BY IDOCK:   -4.03 KCAL/MOL
REMARK 922        TOTAL FREE ENERGY PREDICTED BY IDOCK:   -6.87 KCAL/MOL
REMARK 923 INTER-LIGAND FREE ENERGY PREDICTED BY IDOCK:   -6.00 KCAL/MOL
REMARK 924 INTRA-LIGAND FREE ENERGY PREDICTED BY IDOCK:   -0.86 KCAL/MOL
REMARK 927      BINDING AFFINITY PREDICTED BY RF-SCORE:    0.00 PKD
ROOT
HETATM    1  CA  UNL     1     -12.286   9.798  70.577  1.00  0.00    -0.098 C  
HETATM    2  C   UNL     1     -13.282  10.231  71.720  1.00  0.00    -0.430 C  
HETATM    3  N   UNL     1     -12.248  10.890  69.539  1.00  0.00    -0.454 NA 
HETATM    4  OXT UNL     1     -13.895   9.274  72.278  1.00  0.00    -0.453 OA 
HETATM    5  H2  UNL     1     -11.539  10.729  68.825  1.00  0.00     0.000 HD 
HETATM    6  O   UNL     1     -13.352  11.474  71.926  1.00  0.00    -0.443 OA 
HETATM    7  H1  UNL     1     -13.186  10.987  69.149  1.00  0.00     0.000 HD 
ENDROOT
BRANCH   1   8
HETATM    8  C   UNL     1     -10.883   9.652  71.161  1.00  0.00    -0.404 C  
BRANCH   8   9
HETATM    9  C   UNL     1     -10.413   8.204  71.330  1.00  0.00    -0.212 C  
BRANCH   9  10
HETATM   10  S   UNL     1      -8.822   7.937  70.427  1.00  0.00    -0.143 S  
HETATM   11  C   UNL     1      -9.587   7.758  68.788  1.00  0.00    -0.154 C  
BRANCH  10  12
HETATM   12  C   UNL     1      -8.371   9.716  70.262  1.00  0.00    -0.186 C  
BRANCH  12  13
HETATM   13  C   UNL     1      -8.434  10.158  68.794  1.00  0.00    -0.131 C  
HETATM   14  O   UNL     1      -8.998  11.480  68.686  1.00  0.00    -0.170 OA 
HETATM   15  C   UNL     1      -8.623  11.968  67.399  1.00  0.00    -0.171 C  
HETATM   16  C   UNL     1      -7.180  11.494  67.201  1.00  0.00    -0.140 C  
HETATM   17  H   UNL     1      -5.883   9.161  66.978  1.00  0.00     0.000 HD 
HETATM   18  O   UNL     1      -6.904  11.137  65.840  1.00  0.00    -0.346 OA 
HETATM   19  C   UNL     1      -7.062  10.272  68.124  1.00  0.00    -0.082 C  
HETATM   20  O   UNL     1      -6.734   9.091  67.394  1.00  0.00    -0.068 OA 
HETATM   21  H   UNL     1      -6.009  10.843  65.717  1.00  0.00     0.000 HD 
BRANCH  15  22
HETATM   22  N   UNL     1      -8.838  13.399  67.346  1.00  0.00    -0.203 NA 
HETATM   23  C   UNL     1      -9.520  14.086  66.376  1.00  0.00    -0.259 A  
HETATM   24  C   UNL     1      -8.418  15.538  67.489  1.00  0.00    -0.173 A  
HETATM   25  N   UNL     1      -9.281  15.383  66.428  1.00  0.00    -0.282 NA 
HETATM   26  C   UNL     1      -7.754  16.658  68.018  1.00  0.00    -0.165 A  
HETATM   27  N   UNL     1      -7.012  16.498  69.138  1.00  0.00    -0.216 NA 
HETATM   28  N   UNL     1      -7.799  17.916  67.436  1.00  0.00    -0.207 NA 
HETATM   29  H2  UNL     1      -8.783  18.168  67.333  1.00  0.00     0.000 HD 
HETATM   30  C   UNL     1      -6.900  15.260  69.661  1.00  0.00    -0.187 A  
HETATM   31  H1  UNL     1      -7.317  18.729  67.821  1.00  0.00     0.000 HD 
HETATM   32  N   UNL     1      -7.411  14.098  69.198  1.00  0.00    -0.083 NA 
HETATM   33  C   UNL     1      -8.178  14.323  68.112  1.00  0.00    -0.146 A  
ENDBRANCH  15  22
ENDBRANCH  12  13
ENDBRANCH  10  12
ENDBRANCH   9  10
ENDBRANCH   8   9
ENDBRANCH   1   8
TORSDOF 6
ENDMDL
MODEL      235
REMARK 921   NORMALIZED FREE ENERGY PREDICTED BY IDOCK:   -4.01 KCAL/MOL
REMARK 922        TOTAL FREE ENERGY PREDICTED BY IDOCK:   -6.84 KCAL/MOL
REMARK 923 INTER-LIGAND FREE ENERGY PREDICTED BY IDOCK:   -6.15 KCAL/MOL
REMARK 924 INTRA-LIGAND FREE ENERGY PREDICTED BY IDOCK:   -0.69 KCAL/MOL
REMARK 927      BINDING AFFINITY PREDICTED BY RF-SCORE:    0.00 PKD
ROOT
HETATM    1  CA  UNL     1      -7.728  15.216  67.368  1.00  0.00    -0.197 C  
HETATM    2  C   UNL     1      -7.910  15.939  68.757  1.00  0.00    -0.185 C  
HETATM    3  N   UNL     1      -6.460  14.403  67.416  1.00  0.00    -0.338 NA 
HETATM    4  OXT UNL     1      -8.484  17.065  68.697  1.00  0.00    -0.250 OA 
HETATM    5  H2  UNL     1      -6.336  13.818  66.590  1.00  0.00     0.000 HD 
HETATM    6  O   UNL     1      -7.450  15.310  69.751  1.00  0.00    -0.201 OA 
HETATM    7  H1  UNL     1      -5.680  15.043  67.566  1.00  0.00     0.000 HD 
ENDROOT
BRANCH   1   8
HETATM    8  C   UNL     1      -8.896  14.259  67.142  1.00  0.00    -0.243 C  
BRANCH   8   9
HETATM    9  C   UNL     1     -10.109  14.888  66.450  1.00  0.00    -0.284 C  
BRANCH   9  10
HETATM   10  S   UNL     1     -11.660  14.454  67.357  1.00  0.00    -0.389 S  
HETATM   11  C   UNL     1     -12.084  13.039  66.298  1.00  0.00    -0.386 C  
BRANCH  10  12
HETATM   12  C   UNL     1     -10.856  13.485  68.702  1.00  0.00    -0.259 C  
BRANCH  12  13
HETATM   13  C   UNL     1     -11.388  12.046  68.727  1.00  0.00    -0.278 C  
HETATM   14  O   UNL     1     -10.523  11.172  67.974  1.00  0.00    -0.176 OA 
HETATM   15  C   UNL     1     -10.828   9.846  68.402  1.00  0.00    -0.221 C  
HETATM   16  C   UNL     1     -11.041   9.957  69.915  1.00  0.00    -0.275 C  
HETATM   17  H   UNL     1     -12.753  11.166  71.583  1.00  0.00     0.000 HD 
HETATM   18  O   UNL     1     -12.071   9.081  70.389  1.00  0.00    -0.477 OA 
HETATM   19  C   UNL     1     -11.432  11.428  70.127  1.00  0.00    -0.214 C  
HETATM   20  O   UNL     1     -12.726  11.549  70.714  1.00  0.00    -0.301 OA 
HETATM   21  H   UNL     1     -12.203   9.149  71.327  1.00  0.00     0.000 HD 
BRANCH  15  22
HETATM   22  N   UNL     1      -9.779   8.947  67.969  1.00  0.00    -0.152 NA 
HETATM   23  C   UNL     1      -8.470   9.274  67.735  1.00  0.00    -0.116 A  
HETATM   24  C   UNL     1      -8.781   7.349  66.865  1.00  0.00    -0.126 A  
HETATM   25  N   UNL     1      -7.838   8.333  67.059  1.00  0.00    -0.096 NA 
HETATM   26  C   UNL     1      -8.750   6.126  66.173  1.00  0.00    -0.148 A  
HETATM   27  N   UNL     1      -9.841   5.327  66.225  1.00  0.00    -0.172 NA 
HETATM   28  N   UNL     1      -7.667   5.707  65.414  1.00  0.00    -0.084 NA 
HETATM   29  H2  UNL     1      -6.845   5.734  66.018  1.00  0.00     0.000 HD 
HETATM   30  C   UNL     1     -10.926   5.767  66.895  1.00  0.00    -0.153 A  
HETATM   31  H1  UNL     1      -7.645   4.819  64.912  1.00  0.00     0.000 HD 
HETATM   32  N   UNL     1     -11.109   6.951  67.520  1.00  0.00    -0.252 NA 
HETATM   33  C   UNL     1      -9.979   7.685  67.477  1.00  0.00    -0.178 A  
ENDBRANCH  15  22
ENDBRANCH  12  13
ENDBRANCH  10  12
ENDBRANCH   9  10
ENDBRANCH   8   9
ENDBRANCH   1   8
TORSDOF 6
ENDMDL
MODEL      236
REMARK 921   NORMALIZED FREE ENERGY PREDICTED BY IDOCK:   -3.99 KCAL/MOL
REMARK 922        TOTAL FREE ENERGY PREDICTED BY IDOCK:   -6.82 KCAL/MOL
REMARK 923 INTER-LIGAND FREE ENERGY PREDICTED BY IDOCK:   -6.44 KCAL/MOL
REMARK 924 INTRA-LIGAND FREE ENERGY PREDICTED BY IDOCK:   -0.38 KCAL/MOL
REMARK 927      BINDING AFFINITY PREDICTED BY RF-SCORE:    0.00 PKD
ROOT
HETATM    1  CA  UNL     1     -10.902   6.838  71.866  1.00  0.00    -0.232 C  
HETATM    2  C   UNL     1      -9.728   6.354  72.801  1.00  0.00    -0.157 C  
HETATM    3  N   UNL     1     -10.839   8.340  71.759  1.00  0.00    -0.249 NA 
HETATM    4  OXT UNL     1      -9.986   5.317  73.479  1.00  0.00    -0.156 OA 
HETATM    5  H2  UNL     1     -11.499   8.715  71.079  1.00  0.00     0.000 HD 
HETATM    6  O   UNL     1      -8.688   7.068  72.766  1.00  0.00    -0.119 OA 
HETATM    7  H1  UNL     1     -10.971   8.729  72.693  1.00  0.00     0.000 HD 
ENDROOT
BRANCH   1   8
HETATM    8  C   UNL     1     -10.703   6.256  70.468  1.00  0.00    -0.327 C  
BRANCH   8   9
HETATM    9  C   UNL     1     -10.723   7.292  69.340  1.00  0.00    -0.225 C  
BRANCH   9  10
HETATM   10  S   UNL     1      -9.016   7.550  68.678  1.00  0.00    -0.131 S  
HETATM   11  C   UNL     1      -9.147   6.289  67.376  1.00  0.00    -0.111 C  
BRANCH  10  12
HETATM   12  C   UNL     1      -9.418   9.001  67.615  1.00  0.00    -0.140 C  
BRANCH  12  13
HETATM   13  C   UNL     1      -9.470  10.287  68.451  1.00  0.00    -0.146 C  
HETATM   14  O   UNL     1      -8.586  11.285  67.902  1.00  0.00    -0.126 OA 
HETATM   15  C   UNL     1      -9.011  12.534  68.443  1.00  0.00    -0.130 C  
HETATM   16  C   UNL     1     -10.541  12.466  68.441  1.00  0.00    -0.236 C  
HETATM   17  H   UNL     1     -12.453  11.009  69.624  1.00  0.00     0.000 HD 
HETATM   18  O   UNL     1     -11.120  13.121  69.577  1.00  0.00    -0.439 OA 
HETATM   19  C   UNL     1     -10.845  10.960  68.463  1.00  0.00    -0.220 C  
HETATM   20  O   UNL     1     -11.600  10.592  69.616  1.00  0.00    -0.250 OA 
HETATM   21  H   UNL     1     -12.069  13.079  69.577  1.00  0.00     0.000 HD 
BRANCH  15  22
HETATM   22  N   UNL     1      -8.419  13.615  67.683  1.00  0.00    -0.170 NA 
HETATM   23  C   UNL     1      -7.118  14.038  67.744  1.00  0.00    -0.173 A  
HETATM   24  C   UNL     1      -8.207  15.567  66.728  1.00  0.00    -0.242 A  
HETATM   25  N   UNL     1      -6.956  15.221  67.184  1.00  0.00    -0.246 NA 
HETATM   26  C   UNL     1      -8.704  16.722  66.101  1.00  0.00    -0.264 A  
HETATM   27  N   UNL     1      -9.997  16.734  65.700  1.00  0.00    -0.575 NA 
HETATM   28  N   UNL     1      -7.945  17.865  65.893  1.00  0.00    -0.546 NA 
HETATM   29  H2  UNL     1      -7.105  17.583  65.388  1.00  0.00     0.000 HD 
HETATM   30  C   UNL     1     -10.761  15.656  65.972  1.00  0.00    -0.317 A  
HETATM   31  H1  UNL     1      -8.306  18.703  65.438  1.00  0.00     0.000 HD 
HETATM   32  N   UNL     1     -10.427  14.532  66.642  1.00  0.00    -0.271 NA 
HETATM   33  C   UNL     1      -9.121  14.554  66.975  1.00  0.00    -0.239 A  
ENDBRANCH  15  22
ENDBRANCH  12  13
ENDBRANCH  10  12
ENDBRANCH   9  10
ENDBRANCH   8   9
ENDBRANCH   1   8
TORSDOF 6
ENDMDL
MODEL      237
REMARK 921   NORMALIZED FREE ENERGY PREDICTED BY IDOCK:   -3.99 KCAL/MOL
REMARK 922        TOTAL FREE ENERGY PREDICTED BY IDOCK:   -6.81 KCAL/MOL
REMARK 923 INTER-LIGAND FREE ENERGY PREDICTED BY IDOCK:   -6.09 KCAL/MOL
REMARK 924 INTRA-LIGAND FREE ENERGY PREDICTED BY IDOCK:   -0.72 KCAL/MOL
REMARK 927      BINDING AFFINITY PREDICTED BY RF-SCORE:    0.00 PKD
ROOT
HETATM    1  CA  UNL     1     -11.237   6.604  71.684  1.00  0.00    -0.264 C  
HETATM    2  C   UNL     1     -10.340   6.782  72.968  1.00  0.00    -0.228 C  
HETATM    3  N   UNL     1     -11.885   7.928  71.368  1.00  0.00    -0.292 NA 
HETATM    4  OXT UNL     1     -10.256   5.754  73.702  1.00  0.00    -0.188 OA 
HETATM    5  H2  UNL     1     -12.392   7.916  70.483  1.00  0.00     0.000 HD 
HETATM    6  O   UNL     1      -9.830   7.929  73.109  1.00  0.00    -0.268 OA 
HETATM    7  H1  UNL     1     -12.476   8.186  72.157  1.00  0.00     0.000 HD 
ENDROOT
BRANCH   1   8
HETATM    8  C   UNL     1     -10.353   6.216  70.502  1.00  0.00    -0.270 C  
BRANCH   8   9
HETATM    9  C   UNL     1     -11.064   6.227  69.145  1.00  0.00    -0.390 C  
BRANCH   9  10
HETATM   10  S   UNL     1      -9.837   6.447  67.780  1.00  0.00    -0.129 S  
HETATM   11  C   UNL     1     -10.659   5.306  66.629  1.00  0.00    -0.270 C  
BRANCH  10  12
HETATM   12  C   UNL     1     -10.556   7.999  67.097  1.00  0.00    -0.297 C  
BRANCH  12  13
HETATM   13  C   UNL     1      -9.588   9.175  67.285  1.00  0.00    -0.154 C  
HETATM   14  O   UNL     1     -10.261  10.429  67.059  1.00  0.00    -0.205 OA 
HETATM   15  C   UNL     1      -9.448  11.432  67.663  1.00  0.00    -0.162 C  
HETATM   16  C   UNL     1      -8.949  10.804  68.968  1.00  0.00    -0.132 C  
HETATM   17  H   UNL     1      -7.403   8.744  69.702  1.00  0.00     0.000 HD 
HETATM   18  O   UNL     1      -7.609  11.199  69.288  1.00  0.00    -0.235 OA 
HETATM   19  C   UNL     1      -9.029   9.293  68.706  1.00  0.00    -0.132 C  
HETATM   20  O   UNL     1      -7.750   8.671  68.821  1.00  0.00    -0.094 OA 
HETATM   21  H   UNL     1      -7.299  10.809  70.098  1.00  0.00     0.000 HD 
BRANCH  15  22
HETATM   22  N   UNL     1     -10.211  12.656  67.794  1.00  0.00    -0.217 NA 
HETATM   23  C   UNL     1     -11.474  12.885  67.318  1.00  0.00    -0.336 A  
HETATM   24  C   UNL     1     -10.660  14.793  67.824  1.00  0.00    -0.257 A  
HETATM   25  N   UNL     1     -11.776  14.169  67.312  1.00  0.00    -0.372 NA 
HETATM   26  C   UNL     1     -10.333  16.146  68.018  1.00  0.00    -0.271 A  
HETATM   27  N   UNL     1      -9.160  16.446  68.623  1.00  0.00    -0.223 NA 
HETATM   28  N   UNL     1     -11.139  17.194  67.597  1.00  0.00    -0.139 NA 
HETATM   29  H2  UNL     1     -12.064  17.045  68.000  1.00  0.00     0.000 HD 
HETATM   30  C   UNL     1      -8.337  15.432  68.961  1.00  0.00    -0.223 A  
HETATM   31  H1  UNL     1     -10.901  18.175  67.738  1.00  0.00     0.000 HD 
HETATM   32  N   UNL     1      -8.496  14.108  68.748  1.00  0.00    -0.117 NA 
HETATM   33  C   UNL     1      -9.698  13.864  68.187  1.00  0.00    -0.222 A  
ENDBRANCH  15  22
ENDBRANCH  12  13
ENDBRANCH  10  12
ENDBRANCH   9  10
ENDBRANCH   8   9
ENDBRANCH   1   8
TORSDOF 6
ENDMDL
MODEL      238
REMARK 921   NORMALIZED FREE ENERGY PREDICTED BY IDOCK:   -3.99 KCAL/MOL
REMARK 922        TOTAL FREE ENERGY PREDICTED BY IDOCK:   -6.80 KCAL/MOL
REMARK 923 INTER-LIGAND FREE ENERGY PREDICTED BY IDOCK:   -6.23 KCAL/MOL
REMARK 924 INTRA-LIGAND FREE ENERGY PREDICTED BY IDOCK:   -0.57 KCAL/MOL
REMARK 927      BINDING AFFINITY PREDICTED BY RF-SCORE:    0.00 PKD
ROOT
HETATM    1  CA  UNL     1     -12.713  14.493  72.320  1.00  0.00    -0.328 C  
HETATM    2  C   UNL     1     -13.240  15.137  70.981  1.00  0.00    -0.450 C  
HETATM    3  N   UNL     1     -13.328  15.233  73.480  1.00  0.00    -0.622 NA 
HETATM    4  OXT UNL     1     -12.418  15.102  70.019  1.00  0.00    -0.322 OA 
HETATM    5  H2  UNL     1     -13.121  14.799  74.379  1.00  0.00     0.000 HD 
HETATM    6  O   UNL     1     -14.406  15.616  71.041  1.00  0.00    -0.428 OA 
HETATM    7  H1  UNL     1     -13.022  16.205  73.432  1.00  0.00     0.000 HD 
ENDROOT
BRANCH   1   8
HETATM    8  C   UNL     1     -13.171  13.038  72.393  1.00  0.00    -0.487 C  
BRANCH   8   9
HETATM    9  C   UNL     1     -12.944  12.235  71.108  1.00  0.00    -0.138 C  
BRANCH   9  10
HETATM   10  S   UNL     1     -12.246  10.570  71.507  1.00  0.00    -0.203 S  
HETATM   11  C   UNL     1     -13.767   9.653  71.120  1.00  0.00    -0.095 C  
BRANCH  10  12
HETATM   12  C   UNL     1     -11.410  10.297  69.888  1.00  0.00    -0.290 C  
BRANCH  12  13
HETATM   13  C   UNL     1     -10.335   9.209  70.009  1.00  0.00    -0.207 C  
HETATM   14  O   UNL     1     -10.688   8.258  71.033  1.00  0.00    -0.211 OA 
HETATM   15  C   UNL     1      -9.902   7.095  70.783  1.00  0.00    -0.178 C  
HETATM   16  C   UNL     1      -9.892   6.943  69.259  1.00  0.00    -0.157 C  
HETATM   17  H   UNL     1      -8.992   8.319  67.145  1.00  0.00     0.000 HD 
HETATM   18  O   UNL     1      -8.639   6.452  68.766  1.00  0.00    -0.123 OA 
HETATM   19  C   UNL     1     -10.166   8.364  68.744  1.00  0.00    -0.207 C  
HETATM   20  O   UNL     1      -9.097   8.843  67.930  1.00  0.00    -0.138 OA 
HETATM   21  H   UNL     1      -8.632   6.358  67.821  1.00  0.00     0.000 HD 
BRANCH  15  22
HETATM   22  N   UNL     1     -10.441   5.979  71.533  1.00  0.00    -0.220 NA 
HETATM   23  C   UNL     1     -11.525   6.006  72.370  1.00  0.00    -0.308 A  
HETATM   24  C   UNL     1     -10.493   4.180  72.769  1.00  0.00    -0.167 A  
HETATM   25  N   UNL     1     -11.582   4.936  73.140  1.00  0.00    -0.295 NA 
HETATM   26  C   UNL     1      -9.971   2.967  73.250  1.00  0.00    -0.112 A  
HETATM   27  N   UNL     1      -8.904   2.427  72.617  1.00  0.00    -0.070 NA 
HETATM   28  N   UNL     1     -10.476   2.306  74.360  1.00  0.00    -0.139 NA 
HETATM   29  H2  UNL     1     -11.473   2.163  74.200  1.00  0.00     0.000 HD 
HETATM   30  C   UNL     1      -8.359   3.108  71.587  1.00  0.00    -0.061 A  
HETATM   31  H1  UNL     1     -10.096   1.426  74.709  1.00  0.00     0.000 HD 
HETATM   32  N   UNL     1      -8.711   4.315  71.092  1.00  0.00    -0.099 NA 
HETATM   33  C   UNL     1      -9.804   4.782  71.728  1.00  0.00    -0.180 A  
ENDBRANCH  15  22
ENDBRANCH  12  13
ENDBRANCH  10  12
ENDBRANCH   9  10
ENDBRANCH   8   9
ENDBRANCH   1   8
TORSDOF 6
ENDMDL
MODEL      239
REMARK 921   NORMALIZED FREE ENERGY PREDICTED BY IDOCK:   -3.98 KCAL/MOL
REMARK 922        TOTAL FREE ENERGY PREDICTED BY IDOCK:   -6.80 KCAL/MOL
REMARK 923 INTER-LIGAND FREE ENERGY PREDICTED BY IDOCK:   -6.16 KCAL/MOL
REMARK 924 INTRA-LIGAND FREE ENERGY PREDICTED BY IDOCK:   -0.64 KCAL/MOL
REMARK 927      BINDING AFFINITY PREDICTED BY RF-SCORE:    0.00 PKD
ROOT
HETATM    1  CA  UNL     1      -8.815   6.238  68.254  1.00  0.00    -0.114 C  
HETATM    2  C   UNL     1      -8.807   5.086  69.330  1.00  0.00    -0.091 C  
HETATM    3  N   UNL     1      -9.868   5.922  67.223  1.00  0.00    -0.128 NA 
HETATM    4  OXT UNL     1      -7.675   4.849  69.844  1.00  0.00    -0.055 OA 
HETATM    5  H2  UNL     1     -10.008   6.681  66.557  1.00  0.00     0.000 HD 
HETATM    6  O   UNL     1      -9.926   4.537  69.534  1.00  0.00    -0.215 OA 
HETATM    7  H1  UNL     1      -9.614   5.043  66.772  1.00  0.00     0.000 HD 
ENDROOT
BRANCH   1   8
HETATM    8  C   UNL     1      -9.195   7.554  68.929  1.00  0.00    -0.142 C  
BRANCH   8   9
HETATM    9  C   UNL     1     -10.695   7.864  68.920  1.00  0.00    -0.073 C  
BRANCH   9  10
HETATM   10  S   UNL     1     -11.032   9.429  69.846  1.00  0.00    -0.205 S  
HETATM   11  C   UNL     1     -10.053   8.973  71.309  1.00  0.00    -0.314 C  
BRANCH  10  12
HETATM   12  C   UNL     1      -9.733  10.445  69.024  1.00  0.00    -0.206 C  
BRANCH  12  13
HETATM   13  C   UNL     1     -10.239  10.988  67.681  1.00  0.00    -0.182 C  
HETATM   14  O   UNL     1     -10.313  12.427  67.711  1.00  0.00    -0.209 OA 
HETATM   15  C   UNL     1     -10.357  12.852  66.351  1.00  0.00    -0.268 C  
HETATM   16  C   UNL     1      -9.377  11.932  65.616  1.00  0.00    -0.115 C  
HETATM   17  H   UNL     1      -9.160   9.320  65.063  1.00  0.00     0.000 HD 
HETATM   18  O   UNL     1      -9.822  11.602  64.294  1.00  0.00    -0.248 OA 
HETATM   19  C   UNL     1      -9.313  10.678  66.502  1.00  0.00    -0.167 C  
HETATM   20  O   UNL     1      -9.734   9.513  65.795  1.00  0.00    -0.256 OA 
HETATM   21  H   UNL     1      -9.214  11.032  63.838  1.00  0.00     0.000 HD 
BRANCH  15  22
HETATM   22  N   UNL     1     -10.076  14.271  66.279  1.00  0.00    -0.288 NA 
HETATM   23  C   UNL     1     -10.743  15.197  65.521  1.00  0.00    -0.365 A  
HETATM   24  C   UNL     1      -8.930  16.126  66.162  1.00  0.00    -0.337 A  
HETATM   25  N   UNL     1     -10.072  16.329  65.421  1.00  0.00    -0.547 NA 
HETATM   26  C   UNL     1      -7.797  16.922  66.399  1.00  0.00    -0.313 A  
HETATM   27  N   UNL     1      -6.851  16.463  67.250  1.00  0.00    -0.168 NA 
HETATM   28  N   UNL     1      -7.584  18.148  65.784  1.00  0.00    -0.543 NA 
HETATM   29  H2  UNL     1      -8.404  18.726  65.967  1.00  0.00     0.000 HD 
HETATM   30  C   UNL     1      -7.015  15.236  67.788  1.00  0.00    -0.165 A  
HETATM   31  H1  UNL     1      -6.761  18.726  65.956  1.00  0.00     0.000 HD 
HETATM   32  N   UNL     1      -8.007  14.345  67.570  1.00  0.00    -0.178 NA 
HETATM   33  C   UNL     1      -8.942  14.873  66.755  1.00  0.00    -0.268 A  
ENDBRANCH  15  22
ENDBRANCH  12  13
ENDBRANCH  10  12
ENDBRANCH   9  10
ENDBRANCH   8   9
ENDBRANCH   1   8
TORSDOF 6
ENDMDL
MODEL      240
REMARK 921   NORMALIZED FREE ENERGY PREDICTED BY IDOCK:   -3.98 KCAL/MOL
REMARK 922        TOTAL FREE ENERGY PREDICTED BY IDOCK:   -6.79 KCAL/MOL
REMARK 923 INTER-LIGAND FREE ENERGY PREDICTED BY IDOCK:   -5.95 KCAL/MOL
REMARK 924 INTRA-LIGAND FREE ENERGY PREDICTED BY IDOCK:   -0.84 KCAL/MOL
REMARK 927      BINDING AFFINITY PREDICTED BY RF-SCORE:    0.00 PKD
ROOT
HETATM    1  CA  UNL     1     -11.515  14.719  70.219  1.00  0.00    -0.260 C  
HETATM    2  C   UNL     1     -10.698  15.714  69.310  1.00  0.00    -0.239 C  
HETATM    3  N   UNL     1     -12.985  14.979  70.009  1.00  0.00    -0.620 NA 
HETATM    4  OXT UNL     1      -9.582  16.073  69.789  1.00  0.00    -0.196 OA 
HETATM    5  H2  UNL     1     -13.577  14.295  70.481  1.00  0.00     0.000 HD 
HETATM    6  O   UNL     1     -11.263  16.038  68.229  1.00  0.00    -0.343 OA 
HETATM    7  H1  UNL     1     -13.181  15.937  70.299  1.00  0.00     0.000 HD 
ENDROOT
BRANCH   1   8
HETATM    8  C   UNL     1     -11.222  13.285  69.785  1.00  0.00    -0.029 C  
BRANCH   8   9
HETATM    9  C   UNL     1     -12.196  12.724  68.745  1.00  0.00     0.041 C  
BRANCH   9  10
HETATM   10  S   UNL     1     -11.450  11.263  67.891  1.00  0.00    -0.263 S  
HETATM   11  C   UNL     1     -10.118  12.201  67.086  1.00  0.00    -0.206 C  
BRANCH  10  12
HETATM   12  C   UNL     1     -10.459  10.664  69.323  1.00  0.00    -0.227 C  
BRANCH  12  13
HETATM   13  C   UNL     1     -11.188   9.526  70.050  1.00  0.00    -0.209 C  
HETATM   14  O   UNL     1     -10.242   8.613  70.641  1.00  0.00    -0.187 OA 
HETATM   15  C   UNL     1     -10.963   7.876  71.626  1.00  0.00    -0.238 C  
HETATM   16  C   UNL     1     -11.888   8.900  72.289  1.00  0.00    -0.295 C  
HETATM   17  H   UNL     1     -13.949  10.453  71.571  1.00  0.00     0.000 HD 
HETATM   18  O   UNL     1     -13.160   8.341  72.645  1.00  0.00    -0.588 OA 
HETATM   19  C   UNL     1     -12.050   9.996  71.225  1.00  0.00    -0.394 C  
HETATM   20  O   UNL     1     -13.414  10.161  70.842  1.00  0.00    -0.345 OA 
HETATM   21  H   UNL     1     -13.734   8.976  73.056  1.00  0.00     0.000 HD 
BRANCH  15  22
HETATM   22  N   UNL     1     -10.029   7.199  72.501  1.00  0.00    -0.165 NA 
HETATM   23  C   UNL     1      -9.360   7.749  73.562  1.00  0.00    -0.290 A  
HETATM   24  C   UNL     1      -8.398   5.891  73.134  1.00  0.00    -0.116 A  
HETATM   25  N   UNL     1      -8.360   6.988  73.964  1.00  0.00    -0.133 NA 
HETATM   26  C   UNL     1      -7.572   4.761  73.013  1.00  0.00    -0.092 A  
HETATM   27  N   UNL     1      -7.920   3.798  72.128  1.00  0.00    -0.071 NA 
HETATM   28  N   UNL     1      -6.400   4.592  73.737  1.00  0.00    -0.049 NA 
HETATM   29  H2  UNL     1      -6.637   4.690  74.724  1.00  0.00     0.000 HD 
HETATM   30  C   UNL     1      -9.014   3.996  71.365  1.00  0.00    -0.111 A  
HETATM   31  H1  UNL     1      -5.800   3.772  73.649  1.00  0.00     0.000 HD 
HETATM   32  N   UNL     1      -9.832   5.070  71.324  1.00  0.00    -0.173 NA 
HETATM   33  C   UNL     1      -9.467   5.974  72.255  1.00  0.00    -0.150 A  
ENDBRANCH  15  22
ENDBRANCH  12  13
ENDBRANCH  10  12
ENDBRANCH   9  10
ENDBRANCH   8   9
ENDBRANCH   1   8
TORSDOF 6
ENDMDL
MODEL      241
REMARK 921   NORMALIZED FREE ENERGY PREDICTED BY IDOCK:   -3.96 KCAL/MOL
REMARK 922        TOTAL FREE ENERGY PREDICTED BY IDOCK:   -6.77 KCAL/MOL
REMARK 923 INTER-LIGAND FREE ENERGY PREDICTED BY IDOCK:   -5.63 KCAL/MOL
REMARK 924 INTRA-LIGAND FREE ENERGY PREDICTED BY IDOCK:   -1.14 KCAL/MOL
REMARK 927      BINDING AFFINITY PREDICTED BY RF-SCORE:    0.00 PKD
ROOT
HETATM    1  CA  UNL     1     -12.329   8.659  71.483  1.00  0.00    -0.324 C  
HETATM    2  C   UNL     1     -12.234  10.232  71.448  1.00  0.00    -0.383 C  
HETATM    3  N   UNL     1     -11.720   8.115  70.216  1.00  0.00    -0.471 NA 
HETATM    4  OXT UNL     1     -13.182  10.832  72.035  1.00  0.00    -0.484 OA 
HETATM    5  H2  UNL     1     -11.644   7.098  70.220  1.00  0.00     0.000 HD 
HETATM    6  O   UNL     1     -11.235  10.693  70.830  1.00  0.00    -0.246 OA 
HETATM    7  H1  UNL     1     -12.264   8.467  69.428  1.00  0.00     0.000 HD 
ENDROOT
BRANCH   1   8
HETATM    8  C   UNL     1     -11.516   8.132  72.663  1.00  0.00    -0.454 C  
BRANCH   8   9
HETATM    9  C   UNL     1     -11.248   6.624  72.627  1.00  0.00    -0.249 C  
BRANCH   9  10
HETATM   10  S   UNL     1     -10.046   6.155  73.951  1.00  0.00    -0.287 S  
HETATM   11  C   UNL     1     -10.130   4.368  73.631  1.00  0.00    -0.157 C  
BRANCH  10  12
HETATM   12  C   UNL     1      -8.517   6.478  72.975  1.00  0.00    -0.118 C  
BRANCH  12  13
HETATM   13  C   UNL     1      -8.792   6.332  71.472  1.00  0.00    -0.138 C  
HETATM   14  O   UNL     1      -8.700   7.610  70.813  1.00  0.00    -0.136 OA 
HETATM   15  C   UNL     1      -8.533   7.330  69.425  1.00  0.00    -0.133 C  
HETATM   16  C   UNL     1      -7.587   6.126  69.375  1.00  0.00    -0.098 C  
HETATM   17  H   UNL     1      -7.613   3.563  70.153  1.00  0.00     0.000 HD 
HETATM   18  O   UNL     1      -7.906   5.222  68.309  1.00  0.00    -0.086 OA 
HETATM   19  C   UNL     1      -7.775   5.451  70.742  1.00  0.00    -0.090 C  
HETATM   20  O   UNL     1      -8.244   4.110  70.606  1.00  0.00    -0.065 OA 
HETATM   21  H   UNL     1      -7.320   4.476  68.278  1.00  0.00     0.000 HD 
BRANCH  15  22
HETATM   22  N   UNL     1      -8.081   8.525  68.743  1.00  0.00    -0.119 NA 
HETATM   23  C   UNL     1      -7.185   9.446  69.218  1.00  0.00    -0.066 A  
HETATM   24  C   UNL     1      -8.158  10.350  67.546  1.00  0.00    -0.107 A  
HETATM   25  N   UNL     1      -7.212  10.567  68.523  1.00  0.00    -0.082 NA 
HETATM   26  C   UNL     1      -8.687  11.172  66.537  1.00  0.00    -0.174 A  
HETATM   27  N   UNL     1      -9.574  10.636  65.666  1.00  0.00    -0.204 NA 
HETATM   28  N   UNL     1      -8.367  12.515  66.401  1.00  0.00    -0.390 NA 
HETATM   29  H2  UNL     1      -7.350  12.581  66.343  1.00  0.00     0.000 HD 
HETATM   30  C   UNL     1      -9.949   9.353  65.844  1.00  0.00    -0.256 A  
HETATM   31  H1  UNL     1      -8.751  13.112  65.668  1.00  0.00     0.000 HD 
HETATM   32  N   UNL     1      -9.584   8.494  66.820  1.00  0.00    -0.190 NA 
HETATM   33  C   UNL     1      -8.667   9.063  67.628  1.00  0.00    -0.124 A  
ENDBRANCH  15  22
ENDBRANCH  12  13
ENDBRANCH  10  12
ENDBRANCH   9  10
ENDBRANCH   8   9
ENDBRANCH   1   8
TORSDOF 6
ENDMDL
MODEL      242
REMARK 921   NORMALIZED FREE ENERGY PREDICTED BY IDOCK:   -3.96 KCAL/MOL
REMARK 922        TOTAL FREE ENERGY PREDICTED BY IDOCK:   -6.77 KCAL/MOL
REMARK 923 INTER-LIGAND FREE ENERGY PREDICTED BY IDOCK:   -6.17 KCAL/MOL
REMARK 924 INTRA-LIGAND FREE ENERGY PREDICTED BY IDOCK:   -0.60 KCAL/MOL
REMARK 927      BINDING AFFINITY PREDICTED BY RF-SCORE:    0.00 PKD
ROOT
HETATM    1  CA  UNL     1      -8.804  16.522  66.839  1.00  0.00    -0.208 C  
HETATM    2  C   UNL     1      -9.663  17.787  66.454  1.00  0.00    -0.308 C  
HETATM    3  N   UNL     1      -7.610  16.980  67.636  1.00  0.00    -0.163 NA 
HETATM    4  OXT UNL     1     -10.268  17.698  65.346  1.00  0.00    -0.576 OA 
HETATM    5  H2  UNL     1      -7.069  16.204  68.017  1.00  0.00     0.000 HD 
HETATM    6  O   UNL     1      -9.628  18.731  67.292  1.00  0.00    -0.295 OA 
HETATM    7  H1  UNL     1      -7.053  17.597  67.045  1.00  0.00     0.000 HD 
ENDROOT
BRANCH   1   8
HETATM    8  C   UNL     1      -9.637  15.598  67.724  1.00  0.00    -0.209 C  
BRANCH   8   9
HETATM    9  C   UNL     1     -10.790  14.895  67.001  1.00  0.00    -0.315 C  
BRANCH   9  10
HETATM   10  S   UNL     1     -10.626  13.061  67.164  1.00  0.00    -0.247 S  
HETATM   11  C   UNL     1      -9.251  13.120  68.352  1.00  0.00    -0.141 C  
BRANCH  10  12
HETATM   12  C   UNL     1     -11.972  12.836  68.401  1.00  0.00    -0.231 C  
BRANCH  12  13
HETATM   13  C   UNL     1     -12.022  11.383  68.892  1.00  0.00    -0.304 C  
HETATM   14  O   UNL     1     -11.184  10.543  68.073  1.00  0.00    -0.289 OA 
HETATM   15  C   UNL     1     -10.947   9.359  68.832  1.00  0.00    -0.050 C  
HETATM   16  C   UNL     1     -10.749   9.843  70.271  1.00  0.00    -0.310 C  
HETATM   17  H   UNL     1     -12.202  11.070  72.157  1.00  0.00     0.000 HD 
HETATM   18  O   UNL     1     -11.294   8.934  71.235  1.00  0.00    -0.260 OA 
HETATM   19  C   UNL     1     -11.484  11.192  70.312  1.00  0.00    -0.237 C  
HETATM   20  O   UNL     1     -12.536  11.188  71.276  1.00  0.00    -0.376 OA 
HETATM   21  H   UNL     1     -11.172   9.234  72.128  1.00  0.00     0.000 HD 
BRANCH  15  22
HETATM   22  N   UNL     1      -9.843   8.625  68.248  1.00  0.00    -0.160 NA 
HETATM   23  C   UNL     1      -8.569   9.089  68.050  1.00  0.00    -0.129 A  
HETATM   24  C   UNL     1      -8.754   7.305  66.892  1.00  0.00    -0.126 A  
HETATM   25  N   UNL     1      -7.885   8.319  67.226  1.00  0.00    -0.104 NA 
HETATM   26  C   UNL     1      -8.647   6.212  66.014  1.00  0.00    -0.145 A  
HETATM   27  N   UNL     1      -9.671   5.329  65.955  1.00  0.00    -0.138 NA 
HETATM   28  N   UNL     1      -7.555   6.005  65.184  1.00  0.00    -0.084 NA 
HETATM   29  H2  UNL     1      -6.722   6.003  65.773  1.00  0.00     0.000 HD 
HETATM   30  C   UNL     1     -10.769   5.571  66.701  1.00  0.00    -0.261 A  
HETATM   31  H1  UNL     1      -7.478   5.212  64.547  1.00  0.00     0.000 HD 
HETATM   32  N   UNL     1     -11.026   6.624  67.507  1.00  0.00    -0.333 NA 
HETATM   33  C   UNL     1      -9.958   7.443  67.565  1.00  0.00    -0.173 A  
ENDBRANCH  15  22
ENDBRANCH  12  13
ENDBRANCH  10  12
ENDBRANCH   9  10
ENDBRANCH   8   9
ENDBRANCH   1   8
TORSDOF 6
ENDMDL
MODEL      243
REMARK 921   NORMALIZED FREE ENERGY PREDICTED BY IDOCK:   -3.95 KCAL/MOL
REMARK 922        TOTAL FREE ENERGY PREDICTED BY IDOCK:   -6.76 KCAL/MOL
REMARK 923 INTER-LIGAND FREE ENERGY PREDICTED BY IDOCK:   -5.84 KCAL/MOL
REMARK 924 INTRA-LIGAND FREE ENERGY PREDICTED BY IDOCK:   -0.92 KCAL/MOL
REMARK 927      BINDING AFFINITY PREDICTED BY RF-SCORE:    0.00 PKD
ROOT
HETATM    1  CA  UNL     1      -7.554   8.974  70.621  1.00  0.00    -0.119 C  
HETATM    2  C   UNL     1      -6.719   7.642  70.501  1.00  0.00    -0.042 C  
HETATM    3  N   UNL     1      -8.118   9.060  72.016  1.00  0.00    -0.333 NA 
HETATM    4  OXT UNL     1      -6.727   7.115  69.350  1.00  0.00    -0.046 OA 
HETATM    5  H2  UNL     1      -8.576   9.952  72.201  1.00  0.00     0.000 HD 
HETATM    6  O   UNL     1      -6.161   7.263  71.568  1.00  0.00    -0.037 OA 
HETATM    7  H1  UNL     1      -8.737   8.262  72.156  1.00  0.00     0.000 HD 
ENDROOT
BRANCH   1   8
HETATM    8  C   UNL     1      -6.627  10.169  70.411  1.00  0.00    -0.132 C  
BRANCH   8   9
HETATM    9  C   UNL     1      -6.620  10.725  68.983  1.00  0.00    -0.058 C  
BRANCH   9  10
HETATM   10  S   UNL     1      -7.162  12.492  68.981  1.00  0.00     0.069 S  
HETATM   11  C   UNL     1      -5.524  13.170  68.581  1.00  0.00    -0.075 C  
BRANCH  10  12
HETATM   12  C   UNL     1      -7.828  12.507  67.262  1.00  0.00    -0.160 C  
BRANCH  12  13
HETATM   13  C   UNL     1      -9.362  12.542  67.275  1.00  0.00    -0.190 C  
HETATM   14  O   UNL     1      -9.886  11.473  68.088  1.00  0.00    -0.181 OA 
HETATM   15  C   UNL     1     -11.232  11.831  68.395  1.00  0.00    -0.251 C  
HETATM   16  C   UNL     1     -11.190  13.339  68.659  1.00  0.00    -0.274 C  
HETATM   17  H   UNL     1     -10.639  15.569  67.281  1.00  0.00     0.000 HD 
HETATM   18  O   UNL     1     -12.367  14.010  68.189  1.00  0.00    -0.535 OA 
HETATM   19  C   UNL     1      -9.946  13.815  67.894  1.00  0.00    -0.240 C  
HETATM   20  O   UNL     1     -10.277  14.779  66.897  1.00  0.00    -0.253 OA 
HETATM   21  H   UNL     1     -12.341  14.946  68.353  1.00  0.00     0.000 HD 
BRANCH  15  22
HETATM   22  N   UNL     1     -11.714  11.006  69.483  1.00  0.00    -0.299 NA 
HETATM   23  C   UNL     1     -12.402  11.433  70.588  1.00  0.00    -0.373 A  
HETATM   24  C   UNL     1     -11.739   9.449  71.014  1.00  0.00    -0.323 A  
HETATM   25  N   UNL     1     -12.428  10.519  71.538  1.00  0.00    -0.391 NA 
HETATM   26  C   UNL     1     -11.370   8.202  71.547  1.00  0.00    -0.263 A  
HETATM   27  N   UNL     1     -10.743   7.315  70.741  1.00  0.00    -0.228 NA 
HETATM   28  N   UNL     1     -11.593   7.842  72.868  1.00  0.00    -0.603 NA 
HETATM   29  H2  UNL     1     -12.588   7.968  73.053  1.00  0.00     0.000 HD 
HETATM   30  C   UNL     1     -10.452   7.691  69.479  1.00  0.00    -0.227 A  
HETATM   31  H1  UNL     1     -11.326   6.936  73.255  1.00  0.00     0.000 HD 
HETATM   32  N   UNL     1     -10.671   8.883  68.882  1.00  0.00    -0.160 NA 
HETATM   33  C   UNL     1     -11.338   9.709  69.712  1.00  0.00    -0.120 A  
ENDBRANCH  15  22
ENDBRANCH  12  13
ENDBRANCH  10  12
ENDBRANCH   9  10
ENDBRANCH   8   9
ENDBRANCH   1   8
TORSDOF 6
ENDMDL
MODEL      244
REMARK 921   NORMALIZED FREE ENERGY PREDICTED BY IDOCK:   -3.95 KCAL/MOL
REMARK 922        TOTAL FREE ENERGY PREDICTED BY IDOCK:   -6.76 KCAL/MOL
REMARK 923 INTER-LIGAND FREE ENERGY PREDICTED BY IDOCK:   -5.64 KCAL/MOL
REMARK 924 INTRA-LIGAND FREE ENERGY PREDICTED BY IDOCK:   -1.12 KCAL/MOL
REMARK 927      BINDING AFFINITY PREDICTED BY RF-SCORE:    0.00 PKD
ROOT
HETATM    1  CA  UNL     1      -6.630   8.466  69.807  1.00  0.00    -0.039 C  
HETATM    2  C   UNL     1      -6.473   9.951  69.300  1.00  0.00    -0.048 C  
HETATM    3  N   UNL     1      -7.396   8.483  71.105  1.00  0.00    -0.070 NA 
HETATM    4  OXT UNL     1      -5.407  10.180  68.657  1.00  0.00    -0.039 OA 
HETATM    5  H2  UNL     1      -7.634   7.548  71.434  1.00  0.00     0.000 HD 
HETATM    6  O   UNL     1      -7.421  10.725  69.611  1.00  0.00    -0.141 OA 
HETATM    7  H1  UNL     1      -6.852   9.014  71.785  1.00  0.00     0.000 HD 
ENDROOT
BRANCH   1   8
HETATM    8  C   UNL     1      -7.444   7.671  68.789  1.00  0.00    -0.100 C  
BRANCH   8   9
HETATM    9  C   UNL     1      -8.408   6.651  69.403  1.00  0.00    -0.128 C  
BRANCH   9  10
HETATM   10  S   UNL     1     -10.057   6.746  68.571  1.00  0.00    -0.171 S  
HETATM   11  C   UNL     1     -10.527   5.028  68.932  1.00  0.00     0.009 C  
BRANCH  10  12
HETATM   12  C   UNL     1     -10.960   7.519  69.978  1.00  0.00    -0.240 C  
BRANCH  12  13
HETATM   13  C   UNL     1     -10.726   9.035  70.006  1.00  0.00    -0.229 C  
HETATM   14  O   UNL     1     -10.483   9.535  68.676  1.00  0.00    -0.200 OA 
HETATM   15  C   UNL     1     -10.712  10.942  68.732  1.00  0.00    -0.207 C  
HETATM   16  C   UNL     1     -11.936  11.108  69.637  1.00  0.00    -0.359 C  
HETATM   17  H   UNL     1     -12.574  10.642  72.196  1.00  0.00     0.000 HD 
HETATM   18  O   UNL     1     -11.856  12.282  70.455  1.00  0.00    -0.509 OA 
HETATM   19  C   UNL     1     -11.933   9.837  70.500  1.00  0.00    -0.206 C  
HETATM   20  O   UNL     1     -11.826  10.145  71.889  1.00  0.00    -0.170 OA 
HETATM   21  H   UNL     1     -12.615  12.386  71.017  1.00  0.00     0.000 HD 
BRANCH  15  22
HETATM   22  N   UNL     1     -10.838  11.463  67.386  1.00  0.00    -0.238 NA 
HETATM   23  C   UNL     1     -11.910  12.143  66.872  1.00  0.00    -0.222 A  
HETATM   24  C   UNL     1     -10.705  11.559  65.209  1.00  0.00    -0.279 A  
HETATM   25  N   UNL     1     -11.867  12.211  65.555  1.00  0.00    -0.440 NA 
HETATM   26  C   UNL     1     -10.127  11.243  63.968  1.00  0.00    -0.329 A  
HETATM   27  N   UNL     1      -8.913  10.644  63.955  1.00  0.00    -0.192 NA 
HETATM   28  N   UNL     1     -10.747  11.490  62.752  1.00  0.00    -0.562 NA 
HETATM   29  H2  UNL     1     -10.989  12.481  62.730  1.00  0.00     0.000 HD 
HETATM   30  C   UNL     1      -8.342  10.329  65.136  1.00  0.00    -0.161 A  
HETATM   31  H1  UNL     1     -10.327  11.260  61.851  1.00  0.00     0.000 HD 
HETATM   32  N   UNL     1      -8.834  10.498  66.383  1.00  0.00    -0.150 NA 
HETATM   33  C   UNL     1     -10.018  11.139  66.338  1.00  0.00    -0.217 A  
ENDBRANCH  15  22
ENDBRANCH  12  13
ENDBRANCH  10  12
ENDBRANCH   9  10
ENDBRANCH   8   9
ENDBRANCH   1   8
TORSDOF 6
ENDMDL
MODEL      245
REMARK 921   NORMALIZED FREE ENERGY PREDICTED BY IDOCK:   -3.94 KCAL/MOL
REMARK 922        TOTAL FREE ENERGY PREDICTED BY IDOCK:   -6.74 KCAL/MOL
REMARK 923 INTER-LIGAND FREE ENERGY PREDICTED BY IDOCK:   -6.22 KCAL/MOL
REMARK 924 INTRA-LIGAND FREE ENERGY PREDICTED BY IDOCK:   -0.51 KCAL/MOL
REMARK 927      BINDING AFFINITY PREDICTED BY RF-SCORE:    0.00 PKD
ROOT
HETATM    1  CA  UNL     1     -12.131  11.291  69.624  1.00  0.00    -0.322 C  
HETATM    2  C   UNL     1     -11.872  12.822  69.893  1.00  0.00    -0.301 C  
HETATM    3  N   UNL     1     -11.993  11.035  68.145  1.00  0.00    -0.763 NA 
HETATM    4  OXT UNL     1     -12.527  13.308  70.862  1.00  0.00    -0.362 OA 
HETATM    5  H2  UNL     1     -12.035  10.044  67.911  1.00  0.00     0.000 HD 
HETATM    6  O   UNL     1     -11.057  13.374  69.102  1.00  0.00    -0.252 OA 
HETATM    7  H1  UNL     1     -12.703  11.586  67.662  1.00  0.00     0.000 HD 
ENDROOT
BRANCH   1   8
HETATM    8  C   UNL     1     -11.069  10.467  70.348  1.00  0.00    -0.371 C  
BRANCH   8   9
HETATM    9  C   UNL     1     -11.434   8.992  70.545  1.00  0.00    -0.212 C  
BRANCH   9  10
HETATM   10  S   UNL     1     -12.236   8.744  72.192  1.00  0.00    -0.370 S  
HETATM   11  C   UNL     1     -13.314   7.384  71.651  1.00  0.00    -0.364 C  
BRANCH  10  12
HETATM   12  C   UNL     1     -10.909   7.693  72.919  1.00  0.00    -0.389 C  
BRANCH  12  13
HETATM   13  C   UNL     1     -10.994   6.260  72.377  1.00  0.00    -0.254 C  
HETATM   14  O   UNL     1     -10.314   6.156  71.110  1.00  0.00    -0.196 OA 
HETATM   15  C   UNL     1     -10.066   4.766  70.905  1.00  0.00    -0.205 C  
HETATM   16  C   UNL     1      -9.669   4.228  72.283  1.00  0.00    -0.152 C  
HETATM   17  H   UNL     1     -10.807   3.933  74.690  1.00  0.00     0.000 HD 
HETATM   18  O   UNL     1     -10.154   2.899  72.512  1.00  0.00    -0.149 OA 
HETATM   19  C   UNL     1     -10.306   5.221  73.267  1.00  0.00    -0.207 C  
HETATM   20  O   UNL     1     -11.234   4.578  74.137  1.00  0.00    -0.248 OA 
HETATM   21  H   UNL     1      -9.908   2.564  73.367  1.00  0.00     0.000 HD 
BRANCH  15  22
HETATM   22  N   UNL     1      -9.089   4.602  69.850  1.00  0.00    -0.099 NA 
HETATM   23  C   UNL     1      -7.765   4.286  70.005  1.00  0.00    -0.052 A  
HETATM   24  C   UNL     1      -7.992   4.981  68.000  1.00  0.00    -0.090 A  
HETATM   25  N   UNL     1      -7.069   4.513  68.908  1.00  0.00    -0.051 NA 
HETATM   26  C   UNL     1      -7.873   5.450  66.680  1.00  0.00    -0.101 A  
HETATM   27  N   UNL     1      -9.001   5.781  66.009  1.00  0.00    -0.150 NA 
HETATM   28  N   UNL     1      -6.656   5.617  66.037  1.00  0.00    -0.046 NA 
HETATM   29  H2  UNL     1      -6.161   4.726  66.087  1.00  0.00     0.000 HD 
HETATM   30  C   UNL     1     -10.180   5.697  66.658  1.00  0.00    -0.229 A  
HETATM   31  H1  UNL     1      -6.570   5.957  65.079  1.00  0.00     0.000 HD 
HETATM   32  N   UNL     1     -10.414   5.350  67.942  1.00  0.00    -0.167 NA 
HETATM   33  C   UNL     1      -9.266   4.986  68.547  1.00  0.00    -0.120 A  
ENDBRANCH  15  22
ENDBRANCH  12  13
ENDBRANCH  10  12
ENDBRANCH   9  10
ENDBRANCH   8   9
ENDBRANCH   1   8
TORSDOF 6
ENDMDL
MODEL      246
REMARK 921   NORMALIZED FREE ENERGY PREDICTED BY IDOCK:   -3.93 KCAL/MOL
REMARK 922        TOTAL FREE ENERGY PREDICTED BY IDOCK:   -6.73 KCAL/MOL
REMARK 923 INTER-LIGAND FREE ENERGY PREDICTED BY IDOCK:   -5.17 KCAL/MOL
REMARK 924 INTRA-LIGAND FREE ENERGY PREDICTED BY IDOCK:   -1.56 KCAL/MOL
REMARK 927      BINDING AFFINITY PREDICTED BY RF-SCORE:    0.00 PKD
ROOT
HETATM    1  CA  UNL     1     -11.436   7.128  69.974  1.00  0.00    -0.161 C  
HETATM    2  C   UNL     1     -12.049   7.442  71.391  1.00  0.00    -0.327 C  
HETATM    3  N   UNL     1     -10.548   8.277  69.571  1.00  0.00    -0.248 NA 
HETATM    4  OXT UNL     1     -13.208   6.972  71.583  1.00  0.00    -0.374 OA 
HETATM    5  H2  UNL     1     -10.028   8.092  68.714  1.00  0.00     0.000 HD 
HETATM    6  O   UNL     1     -11.313   8.133  72.150  1.00  0.00    -0.287 OA 
HETATM    7  H1  UNL     1     -11.126   9.115  69.509  1.00  0.00     0.000 HD 
ENDROOT
BRANCH   1   8
HETATM    8  C   UNL     1     -10.571   5.872  70.067  1.00  0.00    -0.364 C  
BRANCH   8   9
HETATM    9  C   UNL     1      -9.065   6.142  70.142  1.00  0.00    -0.152 C  
BRANCH   9  10
HETATM   10  S   UNL     1      -8.211   5.427  68.666  1.00  0.00    -0.094 S  
HETATM   11  C   UNL     1      -8.073   3.748  69.349  1.00  0.00    -0.054 C  
BRANCH  10  12
HETATM   12  C   UNL     1      -9.730   5.130  67.666  1.00  0.00    -0.148 C  
BRANCH  12  13
HETATM   13  C   UNL     1      -9.749   6.036  66.428  1.00  0.00    -0.121 C  
HETATM   14  O   UNL     1      -9.800   7.424  66.815  1.00  0.00    -0.201 OA 
HETATM   15  C   UNL     1      -9.381   8.171  65.674  1.00  0.00     0.102 C  
HETATM   16  C   UNL     1      -8.231   7.359  65.070  1.00  0.00    -0.098 C  
HETATM   17  H   UNL     1      -7.895   4.954  63.940  1.00  0.00     0.000 HD 
HETATM   18  O   UNL     1      -8.217   7.412  63.638  1.00  0.00    -0.329 OA 
HETATM   19  C   UNL     1      -8.490   5.927  65.563  1.00  0.00    -0.154 C  
HETATM   20  O   UNL     1      -8.676   5.022  64.476  1.00  0.00    -0.151 OA 
HETATM   21  H   UNL     1      -7.505   6.909  63.262  1.00  0.00     0.000 HD 
BRANCH  15  22
HETATM   22  N   UNL     1      -9.064   9.526  66.075  1.00  0.00    -0.164 NA 
HETATM   23  C   UNL     1      -7.834  10.126  66.020  1.00  0.00    -0.122 A  
HETATM   24  C   UNL     1      -9.057  11.360  67.260  1.00  0.00    -0.162 A  
HETATM   25  N   UNL     1      -7.792  11.234  66.735  1.00  0.00    -0.151 NA 
HETATM   26  C   UNL     1      -9.631  12.289  68.145  1.00  0.00    -0.213 A  
HETATM   27  N   UNL     1     -10.951  12.185  68.425  1.00  0.00    -0.221 NA 
HETATM   28  N   UNL     1      -8.907  13.294  68.770  1.00  0.00    -0.380 NA 
HETATM   29  H2  UNL     1      -8.432  13.825  68.039  1.00  0.00     0.000 HD 
HETATM   30  C   UNL     1     -11.641  11.160  67.883  1.00  0.00    -0.251 A  
HETATM   31  H1  UNL     1      -9.324  13.969  69.412  1.00  0.00     0.000 HD 
HETATM   32  N   UNL     1     -11.188  10.159  67.096  1.00  0.00    -0.155 NA 
HETATM   33  C   UNL     1      -9.882  10.339  66.813  1.00  0.00    -0.197 A  
ENDBRANCH  15  22
ENDBRANCH  12  13
ENDBRANCH  10  12
ENDBRANCH   9  10
ENDBRANCH   8   9
ENDBRANCH   1   8
TORSDOF 6
ENDMDL
MODEL      247
REMARK 921   NORMALIZED FREE ENERGY PREDICTED BY IDOCK:   -3.93 KCAL/MOL
REMARK 922        TOTAL FREE ENERGY PREDICTED BY IDOCK:   -6.73 KCAL/MOL
REMARK 923 INTER-LIGAND FREE ENERGY PREDICTED BY IDOCK:   -6.10 KCAL/MOL
REMARK 924 INTRA-LIGAND FREE ENERGY PREDICTED BY IDOCK:   -0.63 KCAL/MOL
REMARK 927      BINDING AFFINITY PREDICTED BY RF-SCORE:    0.00 PKD
ROOT
HETATM    1  CA  UNL     1      -9.924   5.986  70.572  1.00  0.00    -0.185 C  
HETATM    2  C   UNL     1     -10.934   5.874  71.777  1.00  0.00    -0.269 C  
HETATM    3  N   UNL     1     -10.704   5.899  69.285  1.00  0.00    -0.306 NA 
HETATM    4  OXT UNL     1     -10.464   5.314  72.810  1.00  0.00    -0.196 OA 
HETATM    5  H2  UNL     1     -10.128   6.078  68.462  1.00  0.00     0.000 HD 
HETATM    6  O   UNL     1     -12.084   6.345  71.555  1.00  0.00    -0.328 OA 
HETATM    7  H1  UNL     1     -11.163   4.989  69.255  1.00  0.00     0.000 HD 
ENDROOT
BRANCH   1   8
HETATM    8  C   UNL     1      -9.236   7.348  70.616  1.00  0.00    -0.157 C  
BRANCH   8   9
HETATM    9  C   UNL     1      -8.557   7.761  69.307  1.00  0.00    -0.138 C  
BRANCH   9  10
HETATM   10  S   UNL     1      -6.718   7.682  69.486  1.00  0.00    -0.036 S  
HETATM   11  C   UNL     1      -6.534   6.086  68.635  1.00  0.00    -0.049 C  
BRANCH  10  12
HETATM   12  C   UNL     1      -6.318   8.747  68.037  1.00  0.00    -0.056 C  
BRANCH  12  13
HETATM   13  C   UNL     1      -7.469   8.736  67.021  1.00  0.00    -0.091 C  
HETATM   14  O   UNL     1      -8.324   9.881  67.211  1.00  0.00    -0.120 OA 
HETATM   15  C   UNL     1      -9.068  10.026  66.003  1.00  0.00    -0.155 C  
HETATM   16  C   UNL     1      -8.069   9.719  64.884  1.00  0.00    -0.140 C  
HETATM   17  H   UNL     1      -6.628   7.622  64.047  1.00  0.00     0.000 HD 
HETATM   18  O   UNL     1      -8.675   9.028  63.784  1.00  0.00    -0.353 OA 
HETATM   19  C   UNL     1      -7.008   8.841  65.565  1.00  0.00    -0.076 C  
HETATM   20  O   UNL     1      -6.914   7.557  64.951  1.00  0.00    -0.052 OA 
HETATM   21  H   UNL     1      -8.056   8.837  63.089  1.00  0.00     0.000 HD 
BRANCH  15  22
HETATM   22  N   UNL     1      -9.680  11.338  65.969  1.00  0.00    -0.212 NA 
HETATM   23  C   UNL     1      -9.644  12.282  66.962  1.00  0.00    -0.208 A  
HETATM   24  C   UNL     1     -11.170  12.891  65.600  1.00  0.00    -0.295 A  
HETATM   25  N   UNL     1     -10.540  13.231  66.775  1.00  0.00    -0.274 NA 
HETATM   26  C   UNL     1     -12.246  13.462  64.899  1.00  0.00    -0.408 A  
HETATM   27  N   UNL     1     -12.597  12.926  63.707  1.00  0.00    -0.710 NA 
HETATM   28  N   UNL     1     -12.986  14.533  65.378  1.00  0.00    -0.437 NA 
HETATM   29  H2  UNL     1     -12.330  15.285  65.590  1.00  0.00     0.000 HD 
HETATM   30  C   UNL     1     -11.932  11.835  63.275  1.00  0.00    -0.248 A  
HETATM   31  H1  UNL     1     -13.767  14.948  64.868  1.00  0.00     0.000 HD 
HETATM   32  N   UNL     1     -10.949  11.145  63.894  1.00  0.00    -0.312 NA 
HETATM   33  C   UNL     1     -10.609  11.749  65.050  1.00  0.00    -0.288 A  
ENDBRANCH  15  22
ENDBRANCH  12  13
ENDBRANCH  10  12
ENDBRANCH   9  10
ENDBRANCH   8   9
ENDBRANCH   1   8
TORSDOF 6
ENDMDL
MODEL      248
REMARK 921   NORMALIZED FREE ENERGY PREDICTED BY IDOCK:   -3.93 KCAL/MOL
REMARK 922        TOTAL FREE ENERGY PREDICTED BY IDOCK:   -6.72 KCAL/MOL
REMARK 923 INTER-LIGAND FREE ENERGY PREDICTED BY IDOCK:   -6.40 KCAL/MOL
REMARK 924 INTRA-LIGAND FREE ENERGY PREDICTED BY IDOCK:   -0.32 KCAL/MOL
REMARK 927      BINDING AFFINITY PREDICTED BY RF-SCORE:    0.00 PKD
ROOT
HETATM    1  CA  UNL     1     -10.874  14.470  64.916  1.00  0.00    -0.421 C  
HETATM    2  C   UNL     1     -11.843  13.542  64.089  1.00  0.00    -0.437 C  
HETATM    3  N   UNL     1     -10.914  15.854  64.320  1.00  0.00    -0.888 NA 
HETATM    4  OXT UNL     1     -11.482  12.331  64.017  1.00  0.00    -0.347 OA 
HETATM    5  H2  UNL     1     -10.397  16.537  64.874  1.00  0.00     0.000 HD 
HETATM    6  O   UNL     1     -12.847  14.125  63.593  1.00  0.00    -0.603 OA 
HETATM    7  H1  UNL     1     -10.580  15.793  63.358  1.00  0.00     0.000 HD 
ENDROOT
BRANCH   1   8
HETATM    8  C   UNL     1     -11.373  14.562  66.356  1.00  0.00    -0.349 C  
BRANCH   8   9
HETATM    9  C   UNL     1     -10.264  14.564  67.414  1.00  0.00    -0.240 C  
BRANCH   9  10
HETATM   10  S   UNL     1     -10.696  13.416  68.797  1.00  0.00    -0.199 S  
HETATM   11  C   UNL     1     -11.968  12.507  67.871  1.00  0.00    -0.223 C  
BRANCH  10  12
HETATM   12  C   UNL     1      -9.324  12.219  68.515  1.00  0.00    -0.099 C  
BRANCH  12  13
HETATM   13  C   UNL     1      -9.852  10.778  68.517  1.00  0.00    -0.177 C  
HETATM   14  O   UNL     1      -9.625  10.153  67.238  1.00  0.00    -0.154 OA 
HETATM   15  C   UNL     1      -9.731   8.748  67.458  1.00  0.00    -0.167 C  
HETATM   16  C   UNL     1      -9.049   8.506  68.808  1.00  0.00    -0.143 C  
HETATM   17  H   UNL     1      -9.436   9.197  71.367  1.00  0.00     0.000 HD 
HETATM   18  O   UNL     1      -9.695   7.479  69.572  1.00  0.00    -0.163 OA 
HETATM   19  C   UNL     1      -9.146   9.863  69.521  1.00  0.00    -0.223 C  
HETATM   20  O   UNL     1      -9.874   9.764  70.743  1.00  0.00    -0.218 OA 
HETATM   21  H   UNL     1      -9.272   7.329  70.409  1.00  0.00     0.000 HD 
BRANCH  15  22
HETATM   22  N   UNL     1      -9.174   8.039  66.325  1.00  0.00    -0.187 NA 
HETATM   23  C   UNL     1      -8.730   6.743  66.311  1.00  0.00    -0.146 A  
HETATM   24  C   UNL     1      -7.987   7.659  64.532  1.00  0.00    -0.130 A  
HETATM   25  N   UNL     1      -7.999   6.482  65.245  1.00  0.00    -0.113 NA 
HETATM   26  C   UNL     1      -7.341   8.045  63.345  1.00  0.00    -0.107 A  
HETATM   27  N   UNL     1      -7.589   9.278  62.846  1.00  0.00    -0.105 NA 
HETATM   28  N   UNL     1      -6.441   7.235  62.669  1.00  0.00    -0.053 NA 
HETATM   29  H2  UNL     1      -6.910   6.348  62.484  1.00  0.00     0.000 HD 
HETATM   30  C   UNL     1      -8.401  10.099  63.544  1.00  0.00    -0.169 A  
HETATM   31  H1  UNL     1      -5.972   7.515  61.807  1.00  0.00     0.000 HD 
HETATM   32  N   UNL     1      -9.005   9.880  64.732  1.00  0.00    -0.199 NA 
HETATM   33  C   UNL     1      -8.763   8.624  65.157  1.00  0.00    -0.144 A  
ENDBRANCH  15  22
ENDBRANCH  12  13
ENDBRANCH  10  12
ENDBRANCH   9  10
ENDBRANCH   8   9
ENDBRANCH   1   8
TORSDOF 6
ENDMDL
MODEL      249
REMARK 921   NORMALIZED FREE ENERGY PREDICTED BY IDOCK:   -3.93 KCAL/MOL
REMARK 922        TOTAL FREE ENERGY PREDICTED BY IDOCK:   -6.72 KCAL/MOL
REMARK 923 INTER-LIGAND FREE ENERGY PREDICTED BY IDOCK:   -6.13 KCAL/MOL
REMARK 924 INTRA-LIGAND FREE ENERGY PREDICTED BY IDOCK:   -0.59 KCAL/MOL
REMARK 927      BINDING AFFINITY PREDICTED BY RF-SCORE:    0.00 PKD
ROOT
HETATM    1  CA  UNL     1      -7.594   6.525  68.966  1.00  0.00    -0.100 C  
HETATM    2  C   UNL     1      -7.833   4.988  68.710  1.00  0.00    -0.078 C  
HETATM    3  N   UNL     1      -6.167   6.852  68.608  1.00  0.00    -0.026 NA 
HETATM    4  OXT UNL     1      -8.666   4.444  69.493  1.00  0.00    -0.078 OA 
HETATM    5  H2  UNL     1      -5.972   7.853  68.641  1.00  0.00     0.000 HD 
HETATM    6  O   UNL     1      -7.156   4.492  67.767  1.00  0.00    -0.062 OA 
HETATM    7  H1  UNL     1      -5.556   6.311  69.219  1.00  0.00     0.000 HD 
ENDROOT
BRANCH   1   8
HETATM    8  C   UNL     1      -8.509   7.336  68.052  1.00  0.00    -0.123 C  
BRANCH   8   9
HETATM    9  C   UNL     1      -8.082   8.794  67.856  1.00  0.00    -0.107 C  
BRANCH   9  10
HETATM   10  S   UNL     1      -9.553   9.846  67.471  1.00  0.00    -0.160 S  
HETATM   11  C   UNL     1      -9.914  10.271  69.201  1.00  0.00    -0.222 C  
BRANCH  10  12
HETATM   12  C   UNL     1      -8.615  11.379  67.063  1.00  0.00    -0.157 C  
BRANCH  12  13
HETATM   13  C   UNL     1      -9.534  12.607  67.112  1.00  0.00    -0.214 C  
HETATM   14  O   UNL     1      -8.760  13.814  67.254  1.00  0.00    -0.199 OA 
HETATM   15  C   UNL     1      -9.617  14.884  66.859  1.00  0.00    -0.245 C  
HETATM   16  C   UNL     1     -10.390  14.346  65.651  1.00  0.00    -0.342 C  
HETATM   17  H   UNL     1     -12.162  12.401  65.150  1.00  0.00     0.000 HD 
HETATM   18  O   UNL     1     -11.743  14.819  65.613  1.00  0.00    -0.335 OA 
HETATM   19  C   UNL     1     -10.347  12.822  65.833  1.00  0.00    -0.283 C  
HETATM   20  O   UNL     1     -11.657  12.268  65.944  1.00  0.00    -0.367 OA 
HETATM   21  H   UNL     1     -12.223  14.486  64.864  1.00  0.00     0.000 HD 
BRANCH  15  22
HETATM   22  N   UNL     1      -8.826  16.076  66.631  1.00  0.00    -0.243 NA 
HETATM   23  C   UNL     1      -7.515  16.264  66.980  1.00  0.00    -0.222 A  
HETATM   24  C   UNL     1      -8.303  18.193  66.516  1.00  0.00    -0.265 A  
HETATM   25  N   UNL     1      -7.167  17.535  66.931  1.00  0.00    -0.182 NA 
HETATM   26  C   UNL     1      -8.598  19.554  66.327  1.00  0.00    -0.361 A  
HETATM   27  N   UNL     1      -9.811  19.889  65.831  1.00  0.00    -0.403 NA 
HETATM   28  N   UNL     1      -7.717  20.577  66.648  1.00  0.00    -0.493 NA 
HETATM   29  H2  UNL     1      -6.841  20.386  66.162  1.00  0.00     0.000 HD 
HETATM   30  C   UNL     1     -10.700  18.902  65.594  1.00  0.00    -0.151 A  
HETATM   31  H1  UNL     1      -7.932  21.565  66.511  1.00  0.00     0.000 HD 
HETATM   32  N   UNL     1     -10.570  17.576  65.817  1.00  0.00    -0.491 NA 
HETATM   33  C   UNL     1      -9.330  17.296  66.265  1.00  0.00    -0.223 A  
ENDBRANCH  15  22
ENDBRANCH  12  13
ENDBRANCH  10  12
ENDBRANCH   9  10
ENDBRANCH   8   9
ENDBRANCH   1   8
TORSDOF 6
ENDMDL
MODEL      250
REMARK 921   NORMALIZED FREE ENERGY PREDICTED BY IDOCK:   -3.92 KCAL/MOL
REMARK 922        TOTAL FREE ENERGY PREDICTED BY IDOCK:   -6.72 KCAL/MOL
REMARK 923 INTER-LIGAND FREE ENERGY PREDICTED BY IDOCK:   -5.80 KCAL/MOL
REMARK 924 INTRA-LIGAND FREE ENERGY PREDICTED BY IDOCK:   -0.91 KCAL/MOL
REMARK 927      BINDING AFFINITY PREDICTED BY RF-SCORE:    0.00 PKD
ROOT
HETATM    1  CA  UNL     1      -8.921   4.526  67.625  1.00  0.00    -0.115 C  
HETATM    2  C   UNL     1      -8.982   5.727  66.606  1.00  0.00    -0.123 C  
HETATM    3  N   UNL     1      -7.526   4.448  68.189  1.00  0.00    -0.065 NA 
HETATM    4  OXT UNL     1      -9.781   5.560  65.639  1.00  0.00    -0.046 OA 
HETATM    5  H2  UNL     1      -7.442   3.764  68.941  1.00  0.00     0.000 HD 
HETATM    6  O   UNL     1      -8.220   6.696  66.876  1.00  0.00    -0.111 OA 
HETATM    7  H1  UNL     1      -6.883   4.267  67.418  1.00  0.00     0.000 HD 
ENDROOT
BRANCH   1   8
HETATM    8  C   UNL     1      -9.883   4.796  68.780  1.00  0.00    -0.218 C  
BRANCH   8   9
HETATM    9  C   UNL     1      -9.501   5.991  69.659  1.00  0.00    -0.144 C  
BRANCH   9  10
HETATM   10  S   UNL     1     -10.687   6.154  71.069  1.00  0.00    -0.273 S  
HETATM   11  C   UNL     1      -9.409   6.201  72.360  1.00  0.00    -0.145 C  
BRANCH  10  12
HETATM   12  C   UNL     1     -10.926   7.976  70.934  1.00  0.00    -0.243 C  
BRANCH  12  13
HETATM   13  C   UNL     1      -9.896   8.589  69.975  1.00  0.00    -0.179 C  
HETATM   14  O   UNL     1     -10.553   9.205  68.850  1.00  0.00    -0.222 OA 
HETATM   15  C   UNL     1      -9.601  10.095  68.271  1.00  0.00    -0.141 C  
HETATM   16  C   UNL     1      -8.882  10.735  69.463  1.00  0.00     0.153 C  
HETATM   17  H   UNL     1      -7.301   9.938  71.473  1.00  0.00     0.000 HD 
HETATM   18  O   UNL     1      -7.491  10.964  69.204  1.00  0.00    -0.114 OA 
HETATM   19  C   UNL     1      -9.067   9.716  70.598  1.00  0.00    -0.063 C  
HETATM   20  O   UNL     1      -7.815   9.239  71.086  1.00  0.00    -0.289 OA 
HETATM   21  H   UNL     1      -7.044  11.361  69.942  1.00  0.00     0.000 HD 
BRANCH  15  22
HETATM   22  N   UNL     1     -10.277  11.004  67.370  1.00  0.00    -0.189 NA 
HETATM   23  C   UNL     1     -11.361  11.789  67.664  1.00  0.00    -0.302 A  
HETATM   24  C   UNL     1     -11.182  11.772  65.537  1.00  0.00    -0.258 A  
HETATM   25  N   UNL     1     -11.938  12.262  66.577  1.00  0.00    -0.626 NA 
HETATM   26  C   UNL     1     -11.310  11.867  64.141  1.00  0.00    -0.380 A  
HETATM   27  N   UNL     1     -10.343  11.325  63.365  1.00  0.00    -0.387 NA 
HETATM   28  N   UNL     1     -12.393  12.466  63.514  1.00  0.00    -0.633 NA 
HETATM   29  H2  UNL     1     -12.478  13.410  63.890  1.00  0.00     0.000 HD 
HETATM   30  C   UNL     1      -9.329  10.671  63.969  1.00  0.00    -0.266 A  
HETATM   31  H1  UNL     1     -12.487  12.535  62.500  1.00  0.00     0.000 HD 
HETATM   32  N   UNL     1      -9.142  10.436  65.286  1.00  0.00    -0.181 NA 
HETATM   33  C   UNL     1     -10.106  11.037  66.011  1.00  0.00    -0.247 A  
ENDBRANCH  15  22
ENDBRANCH  12  13
ENDBRANCH  10  12
ENDBRANCH   9  10
ENDBRANCH   8   9
ENDBRANCH   1   8
TORSDOF 6
ENDMDL
MODEL      251
REMARK 921   NORMALIZED FREE ENERGY PREDICTED BY IDOCK:   -3.90 KCAL/MOL
REMARK 922        TOTAL FREE ENERGY PREDICTED BY IDOCK:   -6.69 KCAL/MOL
REMARK 923 INTER-LIGAND FREE ENERGY PREDICTED BY IDOCK:   -6.47 KCAL/MOL
REMARK 924 INTRA-LIGAND FREE ENERGY PREDICTED BY IDOCK:   -0.22 KCAL/MOL
REMARK 927      BINDING AFFINITY PREDICTED BY RF-SCORE:    0.00 PKD
ROOT
HETATM    1  CA  UNL     1      -9.824   7.180  69.685  1.00  0.00    -0.162 C  
HETATM    2  C   UNL     1      -9.148   6.204  70.722  1.00  0.00    -0.150 C  
HETATM    3  N   UNL     1     -11.311   6.937  69.701  1.00  0.00    -0.513 NA 
HETATM    4  OXT UNL     1      -7.981   5.824  70.409  1.00  0.00    -0.100 OA 
HETATM    5  H2  UNL     1     -11.826   7.612  69.136  1.00  0.00     0.000 HD 
HETATM    6  O   UNL     1      -9.857   5.915  71.725  1.00  0.00    -0.162 OA 
HETATM    7  H1  UNL     1     -11.476   5.973  69.412  1.00  0.00     0.000 HD 
ENDROOT
BRANCH   1   8
HETATM    8  C   UNL     1      -9.576   8.623  70.117  1.00  0.00    -0.181 C  
BRANCH   8   9
HETATM    9  C   UNL     1      -9.637   9.647  68.978  1.00  0.00    -0.168 C  
BRANCH   9  10
HETATM   10  S   UNL     1      -8.031  10.553  68.844  1.00  0.00    -0.137 S  
HETATM   11  C   UNL     1      -7.303   9.828  70.344  1.00  0.00    -0.141 C  
BRANCH  10  12
HETATM   12  C   UNL     1      -7.239   9.404  67.641  1.00  0.00    -0.083 C  
BRANCH  12  13
HETATM   13  C   UNL     1      -8.223   9.023  66.526  1.00  0.00    -0.114 C  
HETATM   14  O   UNL     1      -9.128  10.111  66.256  1.00  0.00    -0.149 OA 
HETATM   15  C   UNL     1      -9.686   9.854  64.969  1.00  0.00    -0.288 C  
HETATM   16  C   UNL     1      -8.521   9.312  64.134  1.00  0.00    -0.192 C  
HETATM   17  H   UNL     1      -6.912   7.171  64.150  1.00  0.00     0.000 HD 
HETATM   18  O   UNL     1      -8.935   8.296  63.212  1.00  0.00    -0.224 OA 
HETATM   19  C   UNL     1      -7.551   8.742  65.180  1.00  0.00    -0.096 C  
HETATM   20  O   UNL     1      -7.329   7.346  64.985  1.00  0.00    -0.070 OA 
HETATM   21  H   UNL     1      -8.213   7.959  62.695  1.00  0.00     0.000 HD 
BRANCH  15  22
HETATM   22  N   UNL     1     -10.323  11.056  64.471  1.00  0.00    -0.337 NA 
HETATM   23  C   UNL     1     -10.108  11.649  63.254  1.00  0.00    -0.423 A  
HETATM   24  C   UNL     1     -11.145  13.079  64.454  1.00  0.00    -0.370 A  
HETATM   25  N   UNL     1     -10.584  12.878  63.213  1.00  0.00     0.024 NA 
HETATM   26  C   UNL     1     -11.756  14.194  65.051  1.00  0.00    -0.376 A  
HETATM   27  N   UNL     1     -12.285  14.055  66.289  1.00  0.00    -0.455 NA 
HETATM   28  N   UNL     1     -11.824  15.441  64.448  1.00  0.00    -0.604 NA 
HETATM   29  H2  UNL     1     -12.257  15.312  63.533  1.00  0.00     0.000 HD 
HETATM   30  C   UNL     1     -12.150  12.866  66.913  1.00  0.00    -0.244 A  
HETATM   31  H1  UNL     1     -12.268  16.251  64.882  1.00  0.00     0.000 HD 
HETATM   32  N   UNL     1     -11.510  11.756  66.484  1.00  0.00    -0.456 NA 
HETATM   33  C   UNL     1     -11.047  11.935  65.231  1.00  0.00    -0.299 A  
ENDBRANCH  15  22
ENDBRANCH  12  13
ENDBRANCH  10  12
ENDBRANCH   9  10
ENDBRANCH   8   9
ENDBRANCH   1   8
TORSDOF 6
ENDMDL
MODEL      252
REMARK 921   NORMALIZED FREE ENERGY PREDICTED BY IDOCK:   -3.90 KCAL/MOL
REMARK 922        TOTAL FREE ENERGY PREDICTED BY IDOCK:   -6.69 KCAL/MOL
REMARK 923 INTER-LIGAND FREE ENERGY PREDICTED BY IDOCK:   -5.59 KCAL/MOL
REMARK 924 INTRA-LIGAND FREE ENERGY PREDICTED BY IDOCK:   -1.09 KCAL/MOL
REMARK 927      BINDING AFFINITY PREDICTED BY RF-SCORE:    0.00 PKD
ROOT
HETATM    1  CA  UNL     1     -10.518  13.045  66.173  1.00  0.00    -0.279 C  
HETATM    2  C   UNL     1     -11.444  12.376  65.087  1.00  0.00    -0.334 C  
HETATM    3  N   UNL     1     -11.057  14.419  66.480  1.00  0.00    -0.324 NA 
HETATM    4  OXT UNL     1     -10.848  11.588  64.297  1.00  0.00    -0.327 OA 
HETATM    5  H2  UNL     1     -10.573  14.867  67.258  1.00  0.00     0.000 HD 
HETATM    6  O   UNL     1     -12.658  12.721  65.135  1.00  0.00    -0.530 OA 
HETATM    7  H1  UNL     1     -11.021  14.970  65.623  1.00  0.00     0.000 HD 
ENDROOT
BRANCH   1   8
HETATM    8  C   UNL     1     -10.570  12.220  67.457  1.00  0.00    -0.242 C  
BRANCH   8   9
HETATM    9  C   UNL     1     -10.075  10.778  67.306  1.00  0.00    -0.196 C  
BRANCH   9  10
HETATM   10  S   UNL     1      -8.531  10.525  68.290  1.00  0.00    -0.128 S  
HETATM   11  C   UNL     1      -8.333   8.773  67.846  1.00  0.00    -0.118 C  
BRANCH  10  12
HETATM   12  C   UNL     1      -7.365  11.201  67.034  1.00  0.00    -0.128 C  
BRANCH  12  13
HETATM   13  C   UNL     1      -6.560  12.371  67.615  1.00  0.00    -0.131 C  
HETATM   14  O   UNL     1      -7.125  13.630  67.201  1.00  0.00    -0.067 OA 
HETATM   15  C   UNL     1      -6.616  14.610  68.103  1.00  0.00    -0.134 C  
HETATM   16  C   UNL     1      -6.627  13.930  69.475  1.00  0.00    -0.097 C  
HETATM   17  H   UNL     1      -5.425  11.846  70.653  1.00  0.00     0.000 HD 
HETATM   18  O   UNL     1      -5.510  14.315  70.287  1.00  0.00    -0.099 OA 
HETATM   19  C   UNL     1      -6.573  12.430  69.144  1.00  0.00    -0.099 C  
HETATM   20  O   UNL     1      -5.417  11.809  69.704  1.00  0.00    -0.062 OA 
HETATM   21  H   UNL     1      -5.517  13.893  71.138  1.00  0.00     0.000 HD 
BRANCH  15  22
HETATM   22  N   UNL     1      -7.397  15.825  67.987  1.00  0.00    -0.120 NA 
HETATM   23  C   UNL     1      -6.966  17.027  67.493  1.00  0.00    -0.146 A  
HETATM   24  C   UNL     1      -8.801  17.412  68.513  1.00  0.00    -0.277 A  
HETATM   25  N   UNL     1      -7.787  18.012  67.802  1.00  0.00    -0.220 NA 
HETATM   26  C   UNL     1      -9.938  17.923  69.163  1.00  0.00    -0.195 A  
HETATM   27  N   UNL     1     -10.805  17.051  69.728  1.00  0.00    -0.082 NA 
HETATM   28  N   UNL     1     -10.205  19.279  69.279  1.00  0.00    -0.543 NA 
HETATM   29  H2  UNL     1     -10.192  19.672  68.337  1.00  0.00     0.000 HD 
HETATM   30  C   UNL     1     -10.507  15.735  69.688  1.00  0.00    -0.289 A  
HETATM   31  H1  UNL     1     -11.030  19.649  69.751  1.00  0.00     0.000 HD 
HETATM   32  N   UNL     1      -9.411  15.133  69.177  1.00  0.00    -0.219 NA 
HETATM   33  C   UNL     1      -8.609  16.041  68.587  1.00  0.00    -0.206 A  
ENDBRANCH  15  22
ENDBRANCH  12  13
ENDBRANCH  10  12
ENDBRANCH   9  10
ENDBRANCH   8   9
ENDBRANCH   1   8
TORSDOF 6
ENDMDL
MODEL      253
REMARK 921   NORMALIZED FREE ENERGY PREDICTED BY IDOCK:   -3.88 KCAL/MOL
REMARK 922        TOTAL FREE ENERGY PREDICTED BY IDOCK:   -6.66 KCAL/MOL
REMARK 923 INTER-LIGAND FREE ENERGY PREDICTED BY IDOCK:   -5.81 KCAL/MOL
REMARK 924 INTRA-LIGAND FREE ENERGY PREDICTED BY IDOCK:   -0.85 KCAL/MOL
REMARK 927      BINDING AFFINITY PREDICTED BY RF-SCORE:    0.00 PKD
ROOT
HETATM    1  CA  UNL     1     -12.771  10.753  70.728  1.00  0.00    -0.360 C  
HETATM    2  C   UNL     1     -12.786  12.244  71.238  1.00  0.00    -0.239 C  
HETATM    3  N   UNL     1     -12.744  10.764  69.222  1.00  0.00    -0.590 NA 
HETATM    4  OXT UNL     1     -13.416  12.427  72.321  1.00  0.00    -0.541 OA 
HETATM    5  H2  UNL     1     -12.619   9.833  68.823  1.00  0.00     0.000 HD 
HETATM    6  O   UNL     1     -12.182  13.069  70.498  1.00  0.00    -0.357 OA 
HETATM    7  H1  UNL     1     -13.594  11.222  68.894  1.00  0.00     0.000 HD 
ENDROOT
BRANCH   1   8
HETATM    8  C   UNL     1     -11.499  10.066  71.219  1.00  0.00    -0.390 C  
BRANCH   8   9
HETATM    9  C   UNL     1     -11.432   8.565  70.924  1.00  0.00    -0.267 C  
BRANCH   9  10
HETATM   10  S   UNL     1     -10.905   7.637  72.434  1.00  0.00    -0.318 S  
HETATM   11  C   UNL     1     -12.051   6.247  72.186  1.00  0.00    -0.252 C  
BRANCH  10  12
HETATM   12  C   UNL     1      -9.426   6.835  71.684  1.00  0.00    -0.155 C  
BRANCH  12  13
HETATM   13  C   UNL     1      -9.844   5.818  70.613  1.00  0.00    -0.187 C  
HETATM   14  O   UNL     1      -9.562   6.326  69.294  1.00  0.00    -0.133 OA 
HETATM   15  C   UNL     1      -9.563   5.196  68.424  1.00  0.00    -0.139 C  
HETATM   16  C   UNL     1      -8.873   4.084  69.219  1.00  0.00    -0.094 C  
HETATM   17  H   UNL     1      -9.328   2.685  71.458  1.00  0.00     0.000 HD 
HETATM   18  O   UNL     1      -9.445   2.794  68.965  1.00  0.00    -0.161 OA 
HETATM   19  C   UNL     1      -9.077   4.495  70.685  1.00  0.00    -0.119 C  
HETATM   20  O   UNL     1      -9.803   3.506  71.413  1.00  0.00    -0.177 OA 
HETATM   21  H   UNL     1      -9.017   2.104  69.458  1.00  0.00     0.000 HD 
BRANCH  15  22
HETATM   22  N   UNL     1      -8.947   5.557  67.164  1.00  0.00    -0.113 NA 
HETATM   23  C   UNL     1      -8.427   6.780  66.831  1.00  0.00    -0.115 A  
HETATM   24  C   UNL     1      -8.621   5.685  65.009  1.00  0.00    -0.108 A  
HETATM   25  N   UNL     1      -8.227   6.895  65.533  1.00  0.00    -0.131 NA 
HETATM   26  C   UNL     1      -8.707   5.202  63.692  1.00  0.00    -0.036 A  
HETATM   27  N   UNL     1      -9.073   3.913  63.499  1.00  0.00    -0.114 NA 
HETATM   28  N   UNL     1      -8.462   5.987  62.574  1.00  0.00    -0.279 NA 
HETATM   29  H2  UNL     1      -7.534   6.394  62.688  1.00  0.00     0.000 HD 
HETATM   30  C   UNL     1      -9.390   3.170  64.579  1.00  0.00    -0.144 A  
HETATM   31  H1  UNL     1      -8.525   5.636  61.619  1.00  0.00     0.000 HD 
HETATM   32  N   UNL     1      -9.433   3.542  65.877  1.00  0.00    -0.162 NA 
HETATM   33  C   UNL     1      -9.016   4.816  66.015  1.00  0.00    -0.126 A  
ENDBRANCH  15  22
ENDBRANCH  12  13
ENDBRANCH  10  12
ENDBRANCH   9  10
ENDBRANCH   8   9
ENDBRANCH   1   8
TORSDOF 6
ENDMDL
MODEL      254
REMARK 921   NORMALIZED FREE ENERGY PREDICTED BY IDOCK:   -3.88 KCAL/MOL
REMARK 922        TOTAL FREE ENERGY PREDICTED BY IDOCK:   -6.66 KCAL/MOL
REMARK 923 INTER-LIGAND FREE ENERGY PREDICTED BY IDOCK:   -5.95 KCAL/MOL
REMARK 924 INTRA-LIGAND FREE ENERGY PREDICTED BY IDOCK:   -0.71 KCAL/MOL
REMARK 927      BINDING AFFINITY PREDICTED BY RF-SCORE:    0.00 PKD
ROOT
HETATM    1  CA  UNL     1      -7.860   7.798  70.093  1.00  0.00    -0.095 C  
HETATM    2  C   UNL     1      -8.440   6.354  70.349  1.00  0.00    -0.131 C  
HETATM    3  N   UNL     1      -6.432   7.663  69.630  1.00  0.00    -0.031 NA 
HETATM    4  OXT UNL     1      -9.299   6.286  71.276  1.00  0.00    -0.156 OA 
HETATM    5  H2  UNL     1      -6.027   8.552  69.337  1.00  0.00     0.000 HD 
HETATM    6  O   UNL     1      -7.966   5.449  69.607  1.00  0.00    -0.092 OA 
HETATM    7  H1  UNL     1      -5.899   7.214  70.375  1.00  0.00     0.000 HD 
ENDROOT
BRANCH   1   8
HETATM    8  C   UNL     1      -8.657   8.470  68.978  1.00  0.00    -0.130 C  
BRANCH   8   9
HETATM    9  C   UNL     1      -9.860   9.287  69.461  1.00  0.00    -0.181 C  
BRANCH   9  10
HETATM   10  S   UNL     1      -9.784  11.004  68.779  1.00  0.00    -0.169 S  
HETATM   11  C   UNL     1      -8.305  10.716  67.762  1.00  0.00    -0.115 C  
BRANCH  10  12
HETATM   12  C   UNL     1     -11.022  10.755  67.438  1.00  0.00    -0.300 C  
BRANCH  12  13
HETATM   13  C   UNL     1     -11.435  12.099  66.824  1.00  0.00    -0.356 C  
HETATM   14  O   UNL     1     -11.055  13.189  67.687  1.00  0.00    -0.254 OA 
HETATM   15  C   UNL     1     -11.070  14.362  66.876  1.00  0.00    -0.323 C  
HETATM   16  C   UNL     1     -10.484  13.921  65.531  1.00  0.00    -0.323 C  
HETATM   17  H   UNL     1     -11.134  12.234  63.554  1.00  0.00     0.000 HD 
HETATM   18  O   UNL     1     -11.110  14.577  64.420  1.00  0.00    -0.592 OA 
HETATM   19  C   UNL     1     -10.745  12.408  65.492  1.00  0.00    -0.280 C  
HETATM   20  O   UNL     1     -11.562  12.043  64.381  1.00  0.00    -0.345 OA 
HETATM   21  H   UNL     1     -10.747  14.304  63.586  1.00  0.00     0.000 HD 
BRANCH  15  22
HETATM   22  N   UNL     1     -10.367  15.429  67.559  1.00  0.00    -0.259 NA 
HETATM   23  C   UNL     1     -10.811  16.712  67.741  1.00  0.00    -0.292 A  
HETATM   24  C   UNL     1      -8.724  16.722  68.187  1.00  0.00    -0.219 A  
HETATM   25  N   UNL     1      -9.840  17.523  68.112  1.00  0.00    -0.291 NA 
HETATM   26  C   UNL     1      -7.374  16.995  68.468  1.00  0.00    -0.220 A  
HETATM   27  N   UNL     1      -6.506  15.959  68.539  1.00  0.00    -0.109 NA 
HETATM   28  N   UNL     1      -6.878  18.278  68.653  1.00  0.00    -0.245 NA 
HETATM   29  H2  UNL     1      -7.436  18.716  69.386  1.00  0.00     0.000 HD 
HETATM   30  C   UNL     1      -6.968  14.718  68.281  1.00  0.00    -0.119 A  
HETATM   31  H1  UNL     1      -5.899  18.476  68.857  1.00  0.00     0.000 HD 
HETATM   32  N   UNL     1      -8.212  14.340  67.913  1.00  0.00    -0.143 NA 
HETATM   33  C   UNL     1      -9.043  15.402  67.905  1.00  0.00    -0.178 A  
ENDBRANCH  15  22
ENDBRANCH  12  13
ENDBRANCH  10  12
ENDBRANCH   9  10
ENDBRANCH   8   9
ENDBRANCH   1   8
TORSDOF 6
ENDMDL
MODEL      255
REMARK 921   NORMALIZED FREE ENERGY PREDICTED BY IDOCK:   -3.85 KCAL/MOL
REMARK 922        TOTAL FREE ENERGY PREDICTED BY IDOCK:   -6.63 KCAL/MOL
REMARK 923 INTER-LIGAND FREE ENERGY PREDICTED BY IDOCK:   -5.78 KCAL/MOL
REMARK 924 INTRA-LIGAND FREE ENERGY PREDICTED BY IDOCK:   -0.84 KCAL/MOL
REMARK 927      BINDING AFFINITY PREDICTED BY RF-SCORE:    0.00 PKD
ROOT
HETATM    1  CA  UNL     1     -10.281  10.814  64.744  1.00  0.00    -0.334 C  
HETATM    2  C   UNL     1     -10.390  11.786  63.508  1.00  0.00    -0.448 C  
HETATM    3  N   UNL     1      -9.476   9.608  64.333  1.00  0.00    -0.426 NA 
HETATM    4  OXT UNL     1     -11.465  12.454  63.453  1.00  0.00    -0.457 OA 
HETATM    5  H2  UNL     1      -9.268   8.988  65.116  1.00  0.00     0.000 HD 
HETATM    6  O   UNL     1      -9.401  11.768  62.724  1.00  0.00    -0.351 OA 
HETATM    7  H1  UNL     1      -9.975   9.137  63.579  1.00  0.00     0.000 HD 
ENDROOT
BRANCH   1   8
HETATM    8  C   UNL     1      -9.534  11.519  65.874  1.00  0.00    -0.251 C  
BRANCH   8   9
HETATM    9  C   UNL     1      -8.689  10.591  66.753  1.00  0.00    -0.132 C  
BRANCH   9  10
HETATM   10  S   UNL     1      -8.943  10.994  68.540  1.00  0.00    -0.164 S  
HETATM   11  C   UNL     1      -8.975  12.796  68.303  1.00  0.00    -0.175 C  
BRANCH  10  12
HETATM   12  C   UNL     1     -10.768  10.745  68.556  1.00  0.00    -0.210 C  
BRANCH  12  13
HETATM   13  C   UNL     1     -11.150   9.591  69.492  1.00  0.00    -0.142 C  
HETATM   14  O   UNL     1     -10.120   8.583  69.501  1.00  0.00    -0.190 OA 
HETATM   15  C   UNL     1     -10.335   7.805  70.677  1.00  0.00    -0.202 C  
HETATM   16  C   UNL     1     -10.729   8.818  71.755  1.00  0.00    -0.343 C  
HETATM   17  H   UNL     1     -12.736  10.533  72.212  1.00  0.00     0.000 HD 
HETATM   18  O   UNL     1     -11.712   8.300  72.661  1.00  0.00    -0.403 OA 
HETATM   19  C   UNL     1     -11.290  10.007  70.959  1.00  0.00    -0.357 C  
HETATM   20  O   UNL     1     -12.648  10.275  71.302  1.00  0.00    -0.345 OA 
HETATM   21  H   UNL     1     -11.957   8.928  73.330  1.00  0.00     0.000 HD 
BRANCH  15  22
HETATM   22  N   UNL     1      -9.156   7.008  70.950  1.00  0.00    -0.152 NA 
HETATM   23  C   UNL     1      -8.199   7.266  71.895  1.00  0.00    -0.103 A  
HETATM   24  C   UNL     1      -7.380   5.792  70.585  1.00  0.00    -0.084 A  
HETATM   25  N   UNL     1      -7.106   6.554  71.698  1.00  0.00    -0.079 NA 
HETATM   26  C   UNL     1      -6.608   4.882  69.843  1.00  0.00    -0.036 A  
HETATM   27  N   UNL     1      -7.196   4.223  68.817  1.00  0.00    -0.055 NA 
HETATM   28  N   UNL     1      -5.264   4.642  70.090  1.00  0.00     0.000 NA 
HETATM   29  H2  UNL     1      -5.179   4.381  71.073  1.00  0.00     0.000 HD 
HETATM   30  C   UNL     1      -8.480   4.513  68.522  1.00  0.00    -0.089 A  
HETATM   31  H1  UNL     1      -4.704   3.981  69.551  1.00  0.00     0.000 HD 
HETATM   32  N   UNL     1      -9.293   5.425  69.098  1.00  0.00    -0.116 NA 
HETATM   33  C   UNL     1      -8.674   6.015  70.139  1.00  0.00    -0.139 A  
ENDBRANCH  15  22
ENDBRANCH  12  13
ENDBRANCH  10  12
ENDBRANCH   9  10
ENDBRANCH   8   9
ENDBRANCH   1   8
TORSDOF 6
ENDMDL
MODEL      256
REMARK 921   NORMALIZED FREE ENERGY PREDICTED BY IDOCK:   -3.85 KCAL/MOL
REMARK 922        TOTAL FREE ENERGY PREDICTED BY IDOCK:   -6.62 KCAL/MOL
REMARK 923 INTER-LIGAND FREE ENERGY PREDICTED BY IDOCK:   -6.78 KCAL/MOL
REMARK 924 INTRA-LIGAND FREE ENERGY PREDICTED BY IDOCK:    0.16 KCAL/MOL
REMARK 927      BINDING AFFINITY PREDICTED BY RF-SCORE:    0.00 PKD
ROOT
HETATM    1  CA  UNL     1      -9.352  17.583  67.756  1.00  0.00    -0.257 C  
HETATM    2  C   UNL     1      -9.711  18.880  66.936  1.00  0.00    -0.318 C  
HETATM    3  N   UNL     1     -10.404  17.382  68.817  1.00  0.00    -0.355 NA 
HETATM    4  OXT UNL     1      -8.712  19.521  66.495  1.00  0.00    -0.322 OA 
HETATM    5  H2  UNL     1     -10.299  16.498  69.313  1.00  0.00     0.000 HD 
HETATM    6  O   UNL     1     -10.945  19.124  66.834  1.00  0.00    -0.394 OA 
HETATM    7  H1  UNL     1     -10.383  18.189  69.439  1.00  0.00     0.000 HD 
ENDROOT
BRANCH   1   8
HETATM    8  C   UNL     1      -9.383  16.374  66.824  1.00  0.00    -0.265 C  
BRANCH   8   9
HETATM    9  C   UNL     1     -10.767  16.047  66.253  1.00  0.00    -0.234 C  
BRANCH   9  10
HETATM   10  S   UNL     1     -11.218  14.294  66.628  1.00  0.00    -0.344 S  
HETATM   11  C   UNL     1      -9.504  13.699  66.735  1.00  0.00    -0.270 C  
BRANCH  10  12
HETATM   12  C   UNL     1     -11.480  14.525  68.437  1.00  0.00    -0.302 C  
BRANCH  12  13
HETATM   13  C   UNL     1     -12.284  13.356  69.022  1.00  0.00    -0.148 C  
HETATM   14  O   UNL     1     -11.748  12.096  68.572  1.00  0.00    -0.295 OA 
HETATM   15  C   UNL     1     -12.244  11.108  69.473  1.00  0.00    -0.277 C  
HETATM   16  C   UNL     1     -12.184  11.766  70.855  1.00  0.00    -0.276 C  
HETATM   17  H   UNL     1     -13.323  13.846  72.101  1.00  0.00     0.000 HD 
HETATM   18  O   UNL     1     -13.282  11.382  71.693  1.00  0.00    -0.419 OA 
HETATM   19  C   UNL     1     -12.227  13.272  70.550  1.00  0.00    -0.340 C  
HETATM   20  O   UNL     1     -13.358  13.898  71.153  1.00  0.00    -0.281 OA 
HETATM   21  H   UNL     1     -13.245  11.790  72.550  1.00  0.00     0.000 HD 
BRANCH  15  22
HETATM   22  N   UNL     1     -11.483   9.886  69.315  1.00  0.00    -0.068 NA 
HETATM   23  C   UNL     1     -11.103   9.027  70.312  1.00  0.00    -0.235 A  
HETATM   24  C   UNL     1      -9.950   8.510  68.591  1.00  0.00    -0.184 A  
HETATM   25  N   UNL     1     -10.168   8.187  69.910  1.00  0.00    -0.200 NA 
HETATM   26  C   UNL     1      -9.045   8.026  67.631  1.00  0.00    -0.137 A  
HETATM   27  N   UNL     1      -9.124   8.507  66.368  1.00  0.00    -0.172 NA 
HETATM   28  N   UNL     1      -8.054   7.099  67.917  1.00  0.00    -0.118 NA 
HETATM   29  H2  UNL     1      -8.508   6.289  68.339  1.00  0.00     0.000 HD 
HETATM   30  C   UNL     1     -10.034   9.468  66.105  1.00  0.00    -0.272 A  
HETATM   31  H1  UNL     1      -7.396   6.748  67.220  1.00  0.00     0.000 HD 
HETATM   32  N   UNL     1     -10.891  10.074  66.955  1.00  0.00    -0.142 NA 
HETATM   33  C   UNL     1     -10.802   9.525  68.183  1.00  0.00    -0.156 A  
ENDBRANCH  15  22
ENDBRANCH  12  13
ENDBRANCH  10  12
ENDBRANCH   9  10
ENDBRANCH   8   9
ENDBRANCH   1   8
TORSDOF 6
ENDMDL
MODEL      257
REMARK 921   NORMALIZED FREE ENERGY PREDICTED BY IDOCK:   -3.83 KCAL/MOL
REMARK 922        TOTAL FREE ENERGY PREDICTED BY IDOCK:   -6.59 KCAL/MOL
REMARK 923 INTER-LIGAND FREE ENERGY PREDICTED BY IDOCK:   -6.26 KCAL/MOL
REMARK 924 INTRA-LIGAND FREE ENERGY PREDICTED BY IDOCK:   -0.33 KCAL/MOL
REMARK 927      BINDING AFFINITY PREDICTED BY RF-SCORE:    0.00 PKD
ROOT
HETATM    1  CA  UNL     1      -8.479   5.240  71.807  1.00  0.00    -0.126 C  
HETATM    2  C   UNL     1      -8.455   6.279  72.992  1.00  0.00    -0.117 C  
HETATM    3  N   UNL     1      -7.793   3.978  72.264  1.00  0.00    -0.079 NA 
HETATM    4  OXT UNL     1      -8.387   7.491  72.632  1.00  0.00    -0.107 OA 
HETATM    5  H2  UNL     1      -7.871   3.220  71.587  1.00  0.00     0.000 HD 
HETATM    6  O   UNL     1      -8.492   5.772  74.148  1.00  0.00    -0.113 OA 
HETATM    7  H1  UNL     1      -6.825   4.209  72.489  1.00  0.00     0.000 HD 
ENDROOT
BRANCH   1   8
HETATM    8  C   UNL     1      -9.928   4.895  71.470  1.00  0.00    -0.260 C  
BRANCH   8   9
HETATM    9  C   UNL     1     -10.278   5.004  69.983  1.00  0.00    -0.269 C  
BRANCH   9  10
HETATM   10  S   UNL     1      -9.977   6.725  69.378  1.00  0.00    -0.160 S  
HETATM   11  C   UNL     1     -10.997   6.560  67.883  1.00  0.00    -0.294 C  
BRANCH  10  12
HETATM   12  C   UNL     1     -11.255   7.543  70.424  1.00  0.00    -0.253 C  
BRANCH  12  13
HETATM   13  C   UNL     1     -10.967   9.045  70.556  1.00  0.00    -0.252 C  
HETATM   14  O   UNL     1     -10.326   9.545  69.366  1.00  0.00    -0.195 OA 
HETATM   15  C   UNL     1     -10.494  10.961  69.390  1.00  0.00    -0.173 C  
HETATM   16  C   UNL     1     -11.919  11.183  69.908  1.00  0.00    -0.363 C  
HETATM   17  H   UNL     1     -13.292  10.723  72.161  1.00  0.00     0.000 HD 
HETATM   18  O   UNL     1     -12.024  12.342  70.744  1.00  0.00    -0.482 OA 
HETATM   19  C   UNL     1     -12.226   9.904  70.702  1.00  0.00    -0.238 C  
HETATM   20  O   UNL     1     -12.511  10.190  72.070  1.00  0.00    -0.346 OA 
HETATM   21  H   UNL     1     -12.907  12.479  71.066  1.00  0.00     0.000 HD 
BRANCH  15  22
HETATM   22  N   UNL     1     -10.201  11.504  68.079  1.00  0.00    -0.186 NA 
HETATM   23  C   UNL     1     -10.466  12.775  67.644  1.00  0.00    -0.220 A  
HETATM   24  C   UNL     1     -10.022  11.618  65.906  1.00  0.00    -0.231 A  
HETATM   25  N   UNL     1     -10.377  12.877  66.332  1.00  0.00    -0.263 NA 
HETATM   26  C   UNL     1      -9.830  11.066  64.628  1.00  0.00    -0.285 A  
HETATM   27  N   UNL     1      -9.404   9.785  64.535  1.00  0.00    -0.263 NA 
HETATM   28  N   UNL     1     -10.081  11.759  63.452  1.00  0.00    -0.424 NA 
HETATM   29  H2  UNL     1      -9.545  12.626  63.491  1.00  0.00     0.000 HD 
HETATM   30  C   UNL     1      -9.236   9.082  65.674  1.00  0.00    -0.225 A  
HETATM   31  H1  UNL     1      -9.942  11.358  62.525  1.00  0.00     0.000 HD 
HETATM   32  N   UNL     1      -9.472   9.469  66.947  1.00  0.00    -0.151 NA 
HETATM   33  C   UNL     1      -9.847  10.762  66.983  1.00  0.00    -0.187 A  
ENDBRANCH  15  22
ENDBRANCH  12  13
ENDBRANCH  10  12
ENDBRANCH   9  10
ENDBRANCH   8   9
ENDBRANCH   1   8
TORSDOF 6
ENDMDL
MODEL      258
REMARK 921   NORMALIZED FREE ENERGY PREDICTED BY IDOCK:   -3.83 KCAL/MOL
REMARK 922        TOTAL FREE ENERGY PREDICTED BY IDOCK:   -6.59 KCAL/MOL
REMARK 923 INTER-LIGAND FREE ENERGY PREDICTED BY IDOCK:   -6.15 KCAL/MOL
REMARK 924 INTRA-LIGAND FREE ENERGY PREDICTED BY IDOCK:   -0.45 KCAL/MOL
REMARK 927      BINDING AFFINITY PREDICTED BY RF-SCORE:    0.00 PKD
ROOT
HETATM    1  CA  UNL     1     -12.660  10.678  70.654  1.00  0.00    -0.365 C  
HETATM    2  C   UNL     1     -12.660  12.216  70.999  1.00  0.00    -0.263 C  
HETATM    3  N   UNL     1     -12.445  10.521  69.171  1.00  0.00    -0.712 NA 
HETATM    4  OXT UNL     1     -13.409  12.541  71.966  1.00  0.00    -0.502 OA 
HETATM    5  H2  UNL     1     -12.320   9.548  68.891  1.00  0.00     0.000 HD 
HETATM    6  O   UNL     1     -11.926  12.930  70.260  1.00  0.00    -0.341 OA 
HETATM    7  H1  UNL     1     -13.223  10.973  68.690  1.00  0.00     0.000 HD 
ENDROOT
BRANCH   1   8
HETATM    8  C   UNL     1     -11.496  10.001  71.375  1.00  0.00    -0.329 C  
BRANCH   8   9
HETATM    9  C   UNL     1     -11.341   8.508  71.069  1.00  0.00    -0.271 C  
BRANCH   9  10
HETATM   10  S   UNL     1     -10.990   7.569  72.622  1.00  0.00    -0.365 S  
HETATM   11  C   UNL     1     -12.217   6.265  72.311  1.00  0.00    -0.153 C  
BRANCH  10  12
HETATM   12  C   UNL     1      -9.527   6.646  71.985  1.00  0.00    -0.148 C  
BRANCH  12  13
HETATM   13  C   UNL     1      -9.934   5.707  70.842  1.00  0.00    -0.194 C  
HETATM   14  O   UNL     1      -9.747   6.350  69.566  1.00  0.00    -0.149 OA 
HETATM   15  C   UNL     1      -9.722   5.307  68.594  1.00  0.00    -0.145 C  
HETATM   16  C   UNL     1      -8.929   4.173  69.251  1.00  0.00    -0.109 C  
HETATM   17  H   UNL     1      -9.190   2.549  71.365  1.00  0.00     0.000 HD 
HETATM   18  O   UNL     1      -9.433   2.878  68.901  1.00  0.00    -0.172 OA 
HETATM   19  C   UNL     1      -9.087   4.435  70.756  1.00  0.00    -0.124 C  
HETATM   20  O   UNL     1      -9.716   3.339  71.418  1.00  0.00    -0.156 OA 
HETATM   21  H   UNL     1      -8.942   2.174  69.308  1.00  0.00     0.000 HD 
BRANCH  15  22
HETATM   22  N   UNL     1      -9.190   5.820  67.349  1.00  0.00    -0.110 NA 
HETATM   23  C   UNL     1      -8.181   5.269  66.604  1.00  0.00    -0.108 A  
HETATM   24  C   UNL     1      -8.462   7.255  65.872  1.00  0.00    -0.144 A  
HETATM   25  N   UNL     1      -7.710   6.114  65.707  1.00  0.00    -0.091 NA 
HETATM   26  C   UNL     1      -8.413   8.522  65.266  1.00  0.00    -0.174 A  
HETATM   27  N   UNL     1      -9.355   9.434  65.599  1.00  0.00    -0.229 NA 
HETATM   28  N   UNL     1      -7.431   8.896  64.360  1.00  0.00    -0.102 NA 
HETATM   29  H2  UNL     1      -7.427   8.202  63.613  1.00  0.00     0.000 HD 
HETATM   30  C   UNL     1     -10.264   9.102  66.539  1.00  0.00    -0.252 A  
HETATM   31  H1  UNL     1      -7.395   9.816  63.920  1.00  0.00     0.000 HD 
HETATM   32  N   UNL     1     -10.361   7.959  67.253  1.00  0.00    -0.278 NA 
HETATM   33  C   UNL     1      -9.430   7.072  66.848  1.00  0.00    -0.160 A  
ENDBRANCH  15  22
ENDBRANCH  12  13
ENDBRANCH  10  12
ENDBRANCH   9  10
ENDBRANCH   8   9
ENDBRANCH   1   8
TORSDOF 6
ENDMDL
MODEL      259
REMARK 921   NORMALIZED FREE ENERGY PREDICTED BY IDOCK:   -3.83 KCAL/MOL
REMARK 922        TOTAL FREE ENERGY PREDICTED BY IDOCK:   -6.59 KCAL/MOL
REMARK 923 INTER-LIGAND FREE ENERGY PREDICTED BY IDOCK:   -6.10 KCAL/MOL
REMARK 924 INTRA-LIGAND FREE ENERGY PREDICTED BY IDOCK:   -0.49 KCAL/MOL
REMARK 927      BINDING AFFINITY PREDICTED BY RF-SCORE:    0.00 PKD
ROOT
HETATM    1  CA  UNL     1      -9.500   5.584  71.777  1.00  0.00    -0.149 C  
HETATM    2  C   UNL     1      -8.218   5.136  72.578  1.00  0.00    -0.117 C  
HETATM    3  N   UNL     1     -10.714   5.008  72.460  1.00  0.00    -0.215 NA 
HETATM    4  OXT UNL     1      -7.181   4.972  71.870  1.00  0.00    -0.070 OA 
HETATM    5  H2  UNL     1     -11.588   5.349  72.061  1.00  0.00     0.000 HD 
HETATM    6  O   UNL     1      -8.389   4.986  73.820  1.00  0.00    -0.105 OA 
HETATM    7  H1  UNL     1     -10.639   3.991  72.433  1.00  0.00     0.000 HD 
ENDROOT
BRANCH   1   8
HETATM    8  C   UNL     1      -9.612   7.106  71.817  1.00  0.00    -0.161 C  
BRANCH   8   9
HETATM    9  C   UNL     1      -9.856   7.761  70.454  1.00  0.00    -0.183 C  
BRANCH   9  10
HETATM   10  S   UNL     1      -8.820   6.945  69.157  1.00  0.00    -0.134 S  
HETATM   11  C   UNL     1     -10.217   6.501  68.081  1.00  0.00    -0.168 C  
BRANCH  10  12
HETATM   12  C   UNL     1      -8.343   8.486  68.267  1.00  0.00    -0.124 C  
BRANCH  12  13
HETATM   13  C   UNL     1      -9.469   8.943  67.330  1.00  0.00    -0.145 C  
HETATM   14  O   UNL     1     -10.217  10.022  67.925  1.00  0.00    -0.168 OA 
HETATM   15  C   UNL     1     -10.920  10.654  66.857  1.00  0.00    -0.161 C  
HETATM   16  C   UNL     1      -9.933  10.669  65.686  1.00  0.00    -0.268 C  
HETATM   17  H   UNL     1      -8.678   8.876  64.142  1.00  0.00     0.000 HD 
HETATM   18  O   UNL     1     -10.579  10.471  64.422  1.00  0.00    -0.332 OA 
HETATM   19  C   UNL     1      -8.972   9.511  65.998  1.00  0.00    -0.163 C  
HETATM   20  O   UNL     1      -8.986   8.524  64.968  1.00  0.00    -0.099 OA 
HETATM   21  H   UNL     1      -9.967  10.480  63.696  1.00  0.00     0.000 HD 
BRANCH  15  22
HETATM   22  N   UNL     1     -11.406  11.945  67.298  1.00  0.00    -0.315 NA 
HETATM   23  C   UNL     1     -11.364  13.118  66.591  1.00  0.00    -0.325 A  
HETATM   24  C   UNL     1     -11.798  13.643  68.614  1.00  0.00    -0.374 A  
HETATM   25  N   UNL     1     -11.587  14.167  67.359  1.00  0.00    -0.351 NA 
HETATM   26  C   UNL     1     -12.025  14.239  69.866  1.00  0.00    -0.339 A  
HETATM   27  N   UNL     1     -12.273  13.437  70.928  1.00  0.00    -0.339 NA 
HETATM   28  N   UNL     1     -11.984  15.610  70.078  1.00  0.00    -0.365 NA 
HETATM   29  H2  UNL     1     -12.631  16.038  69.416  1.00  0.00     0.000 HD 
HETATM   30  C   UNL     1     -12.234  12.101  70.743  1.00  0.00    -0.271 A  
HETATM   31  H1  UNL     1     -12.149  16.042  70.987  1.00  0.00     0.000 HD 
HETATM   32  N   UNL     1     -11.940  11.413  69.619  1.00  0.00    -0.334 NA 
HETATM   33  C   UNL     1     -11.750  12.258  68.587  1.00  0.00    -0.328 A  
ENDBRANCH  15  22
ENDBRANCH  12  13
ENDBRANCH  10  12
ENDBRANCH   9  10
ENDBRANCH   8   9
ENDBRANCH   1   8
TORSDOF 6
ENDMDL
MODEL      260
REMARK 921   NORMALIZED FREE ENERGY PREDICTED BY IDOCK:   -3.80 KCAL/MOL
REMARK 922        TOTAL FREE ENERGY PREDICTED BY IDOCK:   -6.56 KCAL/MOL
REMARK 923 INTER-LIGAND FREE ENERGY PREDICTED BY IDOCK:   -6.03 KCAL/MOL
REMARK 924 INTRA-LIGAND FREE ENERGY PREDICTED BY IDOCK:   -0.53 KCAL/MOL
REMARK 927      BINDING AFFINITY PREDICTED BY RF-SCORE:    0.00 PKD
ROOT
HETATM    1  CA  UNL     1     -12.429  14.689  72.165  1.00  0.00    -0.316 C  
HETATM    2  C   UNL     1     -13.093  15.471  70.969  1.00  0.00    -0.489 C  
HETATM    3  N   UNL     1     -13.145  15.065  73.437  1.00  0.00    -0.509 NA 
HETATM    4  OXT UNL     1     -12.299  15.775  70.030  1.00  0.00    -0.354 OA 
HETATM    5  H2  UNL     1     -12.843  14.511  74.238  1.00  0.00     0.000 HD 
HETATM    6  O   UNL     1     -14.326  15.707  71.102  1.00  0.00    -0.485 OA 
HETATM    7  H1  UNL     1     -13.024  16.067  73.583  1.00  0.00     0.000 HD 
ENDROOT
BRANCH   1   8
HETATM    8  C   UNL     1     -12.610  13.188  71.947  1.00  0.00    -0.114 C  
BRANCH   8   9
HETATM    9  C   UNL     1     -12.443  12.733  70.494  1.00  0.00    -0.202 C  
BRANCH   9  10
HETATM   10  S   UNL     1     -11.671  11.053  70.434  1.00  0.00    -0.319 S  
HETATM   11  C   UNL     1     -13.222  10.145  70.709  1.00  0.00    -0.226 C  
BRANCH  10  12
HETATM   12  C   UNL     1     -11.651  10.896  68.598  1.00  0.00    -0.303 C  
BRANCH  12  13
HETATM   13  C   UNL     1     -10.548   9.927  68.149  1.00  0.00    -0.227 C  
HETATM   14  O   UNL     1     -10.423   8.835  69.081  1.00  0.00    -0.222 OA 
HETATM   15  C   UNL     1      -9.726   7.801  68.390  1.00  0.00    -0.159 C  
HETATM   16  C   UNL     1     -10.294   7.821  66.968  1.00  0.00    -0.334 C  
HETATM   17  H   UNL     1     -10.362   9.516  64.895  1.00  0.00     0.000 HD 
HETATM   18  O   UNL     1      -9.301   7.530  65.976  1.00  0.00    -0.356 OA 
HETATM   19  C   UNL     1     -10.830   9.252  66.804  1.00  0.00     0.082 C  
HETATM   20  O   UNL     1     -10.187   9.934  65.729  1.00  0.00    -0.265 OA 
HETATM   21  H   UNL     1      -9.653   7.543  65.095  1.00  0.00     0.000 HD 
BRANCH  15  22
HETATM   22  N   UNL     1      -9.867   6.555  69.116  1.00  0.00    -0.143 NA 
HETATM   23  C   UNL     1     -10.735   6.305  70.146  1.00  0.00    -0.286 A  
HETATM   24  C   UNL     1      -9.306   4.719  70.156  1.00  0.00    -0.155 A  
HETATM   25  N   UNL     1     -10.419   5.206  70.803  1.00  0.00    -0.226 NA 
HETATM   26  C   UNL     1      -8.468   3.619  70.404  1.00  0.00    -0.057 A  
HETATM   27  N   UNL     1      -7.473   3.353  69.526  1.00  0.00    -0.048 NA 
HETATM   28  N   UNL     1      -8.590   2.803  71.520  1.00  0.00    -0.063 NA 
HETATM   29  H2  UNL     1      -9.551   2.463  71.543  1.00  0.00     0.000 HD 
HETATM   30  C   UNL     1      -7.300   4.191  68.482  1.00  0.00    -0.056 A  
HETATM   31  H1  UNL     1      -7.981   2.005  71.700  1.00  0.00     0.000 HD 
HETATM   32  N   UNL     1      -7.977   5.322  68.187  1.00  0.00    -0.091 NA 
HETATM   33  C   UNL     1      -8.982   5.511  69.065  1.00  0.00    -0.108 A  
ENDBRANCH  15  22
ENDBRANCH  12  13
ENDBRANCH  10  12
ENDBRANCH   9  10
ENDBRANCH   8   9
ENDBRANCH   1   8
TORSDOF 6
ENDMDL
MODEL      261
REMARK 921   NORMALIZED FREE ENERGY PREDICTED BY IDOCK:   -3.79 KCAL/MOL
REMARK 922        TOTAL FREE ENERGY PREDICTED BY IDOCK:   -6.54 KCAL/MOL
REMARK 923 INTER-LIGAND FREE ENERGY PREDICTED BY IDOCK:   -5.72 KCAL/MOL
REMARK 924 INTRA-LIGAND FREE ENERGY PREDICTED BY IDOCK:   -0.82 KCAL/MOL
REMARK 927      BINDING AFFINITY PREDICTED BY RF-SCORE:    0.00 PKD
ROOT
HETATM    1  CA  UNL     1      -9.904  13.159  66.912  1.00  0.00    -0.249 C  
HETATM    2  C   UNL     1     -10.818  12.234  66.021  1.00  0.00    -0.275 C  
HETATM    3  N   UNL     1     -10.578  14.500  67.055  1.00  0.00    -0.276 NA 
HETATM    4  OXT UNL     1     -10.189  11.398  65.309  1.00  0.00    -0.245 OA 
HETATM    5  H2  UNL     1     -10.098  15.114  67.713  1.00  0.00     0.000 HD 
HETATM    6  O   UNL     1     -12.058  12.452  66.120  1.00  0.00    -0.611 OA 
HETATM    7  H1  UNL     1     -10.666  14.910  66.126  1.00  0.00     0.000 HD 
ENDROOT
BRANCH   1   8
HETATM    8  C   UNL     1      -9.772  12.545  68.304  1.00  0.00    -0.220 C  
BRANCH   8   9
HETATM    9  C   UNL     1      -9.246  11.107  68.317  1.00  0.00    -0.169 C  
BRANCH   9  10
HETATM   10  S   UNL     1      -7.535  11.057  69.016  1.00  0.00    -0.123 S  
HETATM   11  C   UNL     1      -7.159   9.380  68.423  1.00  0.00    -0.072 C  
BRANCH  10  12
HETATM   12  C   UNL     1      -6.716  11.963  67.637  1.00  0.00    -0.105 C  
BRANCH  12  13
HETATM   13  C   UNL     1      -6.105  13.278  68.139  1.00  0.00    -0.108 C  
HETATM   14  O   UNL     1      -6.721  14.406  67.486  1.00  0.00    -0.185 OA 
HETATM   15  C   UNL     1      -6.428  15.543  68.295  1.00  0.00    -0.118 C  
HETATM   16  C   UNL     1      -6.562  15.047  69.738  1.00  0.00    -0.170 C  
HETATM   17  H   UNL     1      -5.345  13.275  71.336  1.00  0.00     0.000 HD 
HETATM   18  O   UNL     1      -5.604  15.652  70.616  1.00  0.00    -0.146 OA 
HETATM   19  C   UNL     1      -6.329  13.532  69.632  1.00  0.00    -0.105 C  
HETATM   20  O   UNL     1      -5.207  13.117  70.409  1.00  0.00    -0.095 OA 
HETATM   21  H   UNL     1      -5.686  15.345  71.511  1.00  0.00     0.000 HD 
BRANCH  15  22
HETATM   22  N   UNL     1      -7.293  16.641  67.915  1.00  0.00    -0.147 NA 
HETATM   23  C   UNL     1      -8.170  16.662  66.863  1.00  0.00    -0.212 A  
HETATM   24  C   UNL     1      -7.945  18.685  67.507  1.00  0.00    -0.244 A  
HETATM   25  N   UNL     1      -8.577  17.885  66.583  1.00  0.00    -0.254 NA 
HETATM   26  C   UNL     1      -7.918  20.077  67.700  1.00  0.00    -0.303 A  
HETATM   27  N   UNL     1      -7.245  20.568  68.766  1.00  0.00     0.048 NA 
HETATM   28  N   UNL     1      -8.526  20.977  66.837  1.00  0.00    -0.473 NA 
HETATM   29  H2  UNL     1      -9.504  20.702  66.751  1.00  0.00     0.000 HD 
HETATM   30  C   UNL     1      -6.585  19.701  69.562  1.00  0.00    -0.348 A  
HETATM   31  H1  UNL     1      -8.506  21.988  66.977  1.00  0.00     0.000 HD 
HETATM   32  N   UNL     1      -6.461  18.362  69.431  1.00  0.00    -0.261 NA 
HETATM   33  C   UNL     1      -7.188  17.923  68.385  1.00  0.00    -0.256 A  
ENDBRANCH  15  22
ENDBRANCH  12  13
ENDBRANCH  10  12
ENDBRANCH   9  10
ENDBRANCH   8   9
ENDBRANCH   1   8
TORSDOF 6
ENDMDL
MODEL      262
REMARK 921   NORMALIZED FREE ENERGY PREDICTED BY IDOCK:   -3.78 KCAL/MOL
REMARK 922        TOTAL FREE ENERGY PREDICTED BY IDOCK:   -6.52 KCAL/MOL
REMARK 923 INTER-LIGAND FREE ENERGY PREDICTED BY IDOCK:   -5.89 KCAL/MOL
REMARK 924 INTRA-LIGAND FREE ENERGY PREDICTED BY IDOCK:   -0.63 KCAL/MOL
REMARK 927      BINDING AFFINITY PREDICTED BY RF-SCORE:    0.00 PKD
ROOT
HETATM    1  CA  UNL     1     -12.788  14.727  70.397  1.00  0.00    -0.274 C  
HETATM    2  C   UNL     1     -12.701  14.967  71.953  1.00  0.00    -0.337 C  
HETATM    3  N   UNL     1     -12.579  16.045  69.698  1.00  0.00    -0.516 NA 
HETATM    4  OXT UNL     1     -13.432  14.203  72.648  1.00  0.00    -0.489 OA 
HETATM    5  H2  UNL     1     -12.509  15.947  68.685  1.00  0.00     0.000 HD 
HETATM    6  O   UNL     1     -11.924  15.898  72.307  1.00  0.00    -0.426 OA 
HETATM    7  H1  UNL     1     -13.327  16.676  69.983  1.00  0.00     0.000 HD 
ENDROOT
BRANCH   1   8
HETATM    8  C   UNL     1     -11.668  13.781  69.971  1.00  0.00    -0.327 C  
BRANCH   8   9
HETATM    9  C   UNL     1     -10.934  14.201  68.693  1.00  0.00    -0.258 C  
BRANCH   9  10
HETATM   10  S   UNL     1     -11.463  13.140  67.273  1.00  0.00    -0.351 S  
HETATM   11  C   UNL     1     -12.295  14.476  66.365  1.00  0.00    -0.173 C  
BRANCH  10  12
HETATM   12  C   UNL     1      -9.869  13.210  66.351  1.00  0.00    -0.279 C  
BRANCH  12  13
HETATM   13  C   UNL     1      -9.174  11.842  66.365  1.00  0.00    -0.215 C  
HETATM   14  O   UNL     1      -8.532  11.612  67.635  1.00  0.00    -0.132 OA 
HETATM   15  C   UNL     1      -8.307  10.206  67.717  1.00  0.00    -0.114 C  
HETATM   16  C   UNL     1      -9.564   9.568  67.119  1.00  0.00    -0.160 C  
HETATM   17  H   UNL     1     -10.798   9.492  64.743  1.00  0.00     0.000 HD 
HETATM   18  O   UNL     1      -9.273   8.376  66.376  1.00  0.00    -0.174 OA 
HETATM   19  C   UNL     1     -10.133  10.660  66.201  1.00  0.00    -0.249 C  
HETATM   20  O   UNL     1     -10.203  10.225  64.845  1.00  0.00    -0.327 OA 
HETATM   21  H   UNL     1     -10.053   7.980  66.005  1.00  0.00     0.000 HD 
BRANCH  15  22
HETATM   22  N   UNL     1      -7.997   9.846  69.085  1.00  0.00    -0.102 NA 
HETATM   23  C   UNL     1      -7.337  10.620  70.002  1.00  0.00     0.026 A  
HETATM   24  C   UNL     1      -7.367   8.635  70.789  1.00  0.00    -0.070 A  
HETATM   25  N   UNL     1      -6.932   9.917  71.042  1.00  0.00    -0.333 NA 
HETATM   26  C   UNL     1      -7.204   7.422  71.480  1.00  0.00    -0.071 A  
HETATM   27  N   UNL     1      -7.826   6.319  71.004  1.00  0.00    -0.108 NA 
HETATM   28  N   UNL     1      -6.414   7.290  72.613  1.00  0.00    -0.055 NA 
HETATM   29  H2  UNL     1      -6.736   7.983  73.289  1.00  0.00     0.000 HD 
HETATM   30  C   UNL     1      -8.529   6.426  69.857  1.00  0.00    -0.131 A  
HETATM   31  H1  UNL     1      -6.296   6.410  73.114  1.00  0.00     0.000 HD 
HETATM   32  N   UNL     1      -8.684   7.505  69.059  1.00  0.00    -0.136 NA 
HETATM   33  C   UNL     1      -8.085   8.582  69.605  1.00  0.00    -0.113 A  
ENDBRANCH  15  22
ENDBRANCH  12  13
ENDBRANCH  10  12
ENDBRANCH   9  10
ENDBRANCH   8   9
ENDBRANCH   1   8
TORSDOF 6
ENDMDL
MODEL      263
REMARK 921   NORMALIZED FREE ENERGY PREDICTED BY IDOCK:   -3.75 KCAL/MOL
REMARK 922        TOTAL FREE ENERGY PREDICTED BY IDOCK:   -6.49 KCAL/MOL
REMARK 923 INTER-LIGAND FREE ENERGY PREDICTED BY IDOCK:   -5.69 KCAL/MOL
REMARK 924 INTRA-LIGAND FREE ENERGY PREDICTED BY IDOCK:   -0.80 KCAL/MOL
REMARK 927      BINDING AFFINITY PREDICTED BY RF-SCORE:    0.00 PKD
ROOT
HETATM    1  CA  UNL     1     -12.234  15.137  70.561  1.00  0.00    -0.341 C  
HETATM    2  C   UNL     1     -13.532  14.881  71.417  1.00  0.00    -0.426 C  
HETATM    3  N   UNL     1     -11.067  14.482  71.255  1.00  0.00    -0.302 NA 
HETATM    4  OXT UNL     1     -14.392  15.808  71.365  1.00  0.00    -0.467 OA 
HETATM    5  H2  UNL     1     -10.212  14.510  70.699  1.00  0.00     0.000 HD 
HETATM    6  O   UNL     1     -13.545  13.791  72.055  1.00  0.00    -0.401 OA 
HETATM    7  H1  UNL     1     -10.958  14.919  72.170  1.00  0.00     0.000 HD 
ENDROOT
BRANCH   1   8
HETATM    8  C   UNL     1     -12.397  14.483  69.191  1.00  0.00    -0.152 C  
BRANCH   8   9
HETATM    9  C   UNL     1     -11.296  14.832  68.185  1.00  0.00    -0.307 C  
BRANCH   9  10
HETATM   10  S   UNL     1     -10.664  13.298  67.368  1.00  0.00    -0.260 S  
HETATM   11  C   UNL     1     -10.896  13.903  65.670  1.00  0.00    -0.292 C  
BRANCH  10  12
HETATM   12  C   UNL     1      -8.873  13.708  67.503  1.00  0.00    -0.205 C  
BRANCH  12  13
HETATM   13  C   UNL     1      -8.071  12.489  67.975  1.00  0.00    -0.164 C  
HETATM   14  O   UNL     1      -8.931  11.542  68.639  1.00  0.00    -0.170 OA 
HETATM   15  C   UNL     1      -8.227  10.302  68.646  1.00  0.00    -0.116 C  
HETATM   16  C   UNL     1      -7.550  10.223  67.274  1.00  0.00    -0.095 C  
HETATM   17  H   UNL     1      -5.675  11.575  65.920  1.00  0.00     0.000 HD 
HETATM   18  O   UNL     1      -6.259   9.602  67.336  1.00  0.00    -0.062 OA 
HETATM   19  C   UNL     1      -7.431  11.691  66.835  1.00  0.00    -0.131 C  
HETATM   20  O   UNL     1      -6.072  12.070  66.627  1.00  0.00    -0.178 OA 
HETATM   21  H   UNL     1      -5.838   9.553  66.486  1.00  0.00     0.000 HD 
BRANCH  15  22
HETATM   22  N   UNL     1      -9.145   9.228  68.966  1.00  0.00    -0.144 NA 
HETATM   23  C   UNL     1     -10.401   9.360  69.496  1.00  0.00    -0.214 A  
HETATM   24  C   UNL     1      -9.864   7.305  69.710  1.00  0.00    -0.177 A  
HETATM   25  N   UNL     1     -10.863   8.216  69.965  1.00  0.00    -0.247 NA 
HETATM   26  C   UNL     1      -9.721   5.940  70.015  1.00  0.00    -0.167 A  
HETATM   27  N   UNL     1      -8.629   5.286  69.556  1.00  0.00    -0.097 NA 
HETATM   28  N   UNL     1     -10.631   5.232  70.787  1.00  0.00    -0.225 NA 
HETATM   29  H2  UNL     1     -11.550   5.353  70.360  1.00  0.00     0.000 HD 
HETATM   30  C   UNL     1      -7.702   5.990  68.874  1.00  0.00    -0.092 A  
HETATM   31  H1  UNL     1     -10.527   4.242  71.009  1.00  0.00     0.000 HD 
HETATM   32  N   UNL     1      -7.681   7.312  68.596  1.00  0.00    -0.117 NA 
HETATM   33  C   UNL     1      -8.811   7.901  69.034  1.00  0.00    -0.145 A  
ENDBRANCH  15  22
ENDBRANCH  12  13
ENDBRANCH  10  12
ENDBRANCH   9  10
ENDBRANCH   8   9
ENDBRANCH   1   8
TORSDOF 6
ENDMDL
MODEL      264
REMARK 921   NORMALIZED FREE ENERGY PREDICTED BY IDOCK:   -3.75 KCAL/MOL
REMARK 922        TOTAL FREE ENERGY PREDICTED BY IDOCK:   -6.48 KCAL/MOL
REMARK 923 INTER-LIGAND FREE ENERGY PREDICTED BY IDOCK:   -5.98 KCAL/MOL
REMARK 924 INTRA-LIGAND FREE ENERGY PREDICTED BY IDOCK:   -0.49 KCAL/MOL
REMARK 927      BINDING AFFINITY PREDICTED BY RF-SCORE:    0.00 PKD
ROOT
HETATM    1  CA  UNL     1      -6.856  14.848  67.622  1.00  0.00    -0.181 C  
HETATM    2  C   UNL     1      -7.589  16.161  67.150  1.00  0.00    -0.202 C  
HETATM    3  N   UNL     1      -5.368  15.085  67.565  1.00  0.00    -0.341 NA 
HETATM    4  OXT UNL     1      -8.688  15.968  66.553  1.00  0.00    -0.242 OA 
HETATM    5  H2  UNL     1      -4.832  14.315  67.965  1.00  0.00     0.000 HD 
HETATM    6  O   UNL     1      -6.983  17.236  67.415  1.00  0.00    -0.151 OA 
HETATM    7  H1  UNL     1      -5.117  15.280  66.597  1.00  0.00     0.000 HD 
ENDROOT
BRANCH   1   8
HETATM    8  C   UNL     1      -7.233  14.554  69.072  1.00  0.00    -0.130 C  
BRANCH   8   9
HETATM    9  C   UNL     1      -7.732  13.128  69.323  1.00  0.00     0.445 C  
BRANCH   9  10
HETATM   10  S   UNL     1      -6.587  11.902  68.545  1.00  0.00    -0.066 S  
HETATM   11  C   UNL     1      -5.476  11.778  69.978  1.00  0.00    -0.101 C  
BRANCH  10  12
HETATM   12  C   UNL     1      -7.593  10.405  68.921  1.00  0.00    -0.103 C  
BRANCH  12  13
HETATM   13  C   UNL     1      -8.093   9.749  67.627  1.00  0.00    -0.113 C  
HETATM   14  O   UNL     1      -9.226  10.467  67.099  1.00  0.00    -0.143 OA 
HETATM   15  C   UNL     1      -9.341  10.080  65.732  1.00  0.00    -0.189 C  
HETATM   16  C   UNL     1      -7.899  10.004  65.220  1.00  0.00    -0.138 C  
HETATM   17  H   UNL     1      -5.705   8.550  65.715  1.00  0.00     0.000 HD 
HETATM   18  O   UNL     1      -7.709   8.941  64.277  1.00  0.00    -0.110 OA 
HETATM   19  C   UNL     1      -7.068   9.765  66.490  1.00  0.00    -0.090 C  
HETATM   20  O   UNL     1      -6.341   8.540  66.421  1.00  0.00    -0.056 OA 
HETATM   21  H   UNL     1      -6.815   8.893  63.959  1.00  0.00     0.000 HD 
BRANCH  15  22
HETATM   22  N   UNL     1     -10.215  11.006  65.041  1.00  0.00    -0.280 NA 
HETATM   23  C   UNL     1     -10.387  11.108  63.685  1.00  0.00    -0.389 A  
HETATM   24  C   UNL     1     -11.235  12.870  64.541  1.00  0.00    -0.336 A  
HETATM   25  N   UNL     1     -10.992  12.230  63.347  1.00  0.00    -0.441 NA 
HETATM   26  C   UNL     1     -11.795  14.122  64.852  1.00  0.00    -0.402 A  
HETATM   27  N   UNL     1     -11.970  14.446  66.154  1.00  0.00    -0.388 NA 
HETATM   28  N   UNL     1     -12.154  15.056  63.891  1.00  0.00    -0.942 NA 
HETATM   29  H2  UNL     1     -12.789  14.593  63.241  1.00  0.00     0.000 HD 
HETATM   30  C   UNL     1     -11.547  13.573  67.093  1.00  0.00    -0.357 A  
HETATM   31  H1  UNL     1     -12.560  15.964  64.117  1.00  0.00     0.000 HD 
HETATM   32  N   UNL     1     -10.918  12.390  66.923  1.00  0.00    -0.255 NA 
HETATM   33  C   UNL     1     -10.814  12.097  65.612  1.00  0.00    -0.284 A  
ENDBRANCH  15  22
ENDBRANCH  12  13
ENDBRANCH  10  12
ENDBRANCH   9  10
ENDBRANCH   8   9
ENDBRANCH   1   8
TORSDOF 6
ENDMDL
MODEL      265
REMARK 921   NORMALIZED FREE ENERGY PREDICTED BY IDOCK:   -3.74 KCAL/MOL
REMARK 922        TOTAL FREE ENERGY PREDICTED BY IDOCK:   -6.47 KCAL/MOL
REMARK 923 INTER-LIGAND FREE ENERGY PREDICTED BY IDOCK:   -5.92 KCAL/MOL
REMARK 924 INTRA-LIGAND FREE ENERGY PREDICTED BY IDOCK:   -0.56 KCAL/MOL
REMARK 927      BINDING AFFINITY PREDICTED BY RF-SCORE:    0.00 PKD
ROOT
HETATM    1  CA  UNL     1      -8.393  17.672  67.540  1.00  0.00    -0.218 C  
HETATM    2  C   UNL     1      -8.639  19.221  67.696  1.00  0.00    -0.296 C  
HETATM    3  N   UNL     1      -7.003  17.358  68.029  1.00  0.00    -0.182 NA 
HETATM    4  OXT UNL     1      -9.402  19.726  66.821  1.00  0.00    -0.333 OA 
HETATM    5  H2  UNL     1      -6.814  16.356  68.064  1.00  0.00     0.000 HD 
HETATM    6  O   UNL     1      -8.036  19.763  68.664  1.00  0.00    -0.308 OA 
HETATM    7  H1  UNL     1      -6.340  17.864  67.443  1.00  0.00     0.000 HD 
ENDROOT
BRANCH   1   8
HETATM    8  C   UNL     1      -9.386  16.914  68.418  1.00  0.00    -0.255 C  
BRANCH   8   9
HETATM    9  C   UNL     1     -10.589  16.337  67.665  1.00  0.00    -0.311 C  
BRANCH   9  10
HETATM   10  S   UNL     1     -10.423  14.503  67.499  1.00  0.00    -0.254 S  
HETATM   11  C   UNL     1      -8.998  14.361  68.618  1.00  0.00    -0.172 C  
BRANCH  10  12
HETATM   12  C   UNL     1     -11.715  14.061  68.737  1.00  0.00    -0.353 C  
BRANCH  12  13
HETATM   13  C   UNL     1     -12.011  12.556  68.697  1.00  0.00    -0.224 C  
HETATM   14  O   UNL     1     -11.173  11.899  67.725  1.00  0.00    -0.231 OA 
HETATM   15  C   UNL     1     -11.194  10.512  68.055  1.00  0.00    -0.294 C  
HETATM   16  C   UNL     1     -11.147  10.468  69.585  1.00  0.00    -0.283 C  
HETATM   17  H   UNL     1     -12.695  11.241  71.630  1.00  0.00     0.000 HD 
HETATM   18  O   UNL     1     -11.932   9.398  70.127  1.00  0.00    -0.467 OA 
HETATM   19  C   UNL     1     -11.710  11.832  70.012  1.00  0.00    -0.305 C  
HETATM   20  O   UNL     1     -12.882  11.690  70.814  1.00  0.00    -0.229 OA 
HETATM   21  H   UNL     1     -11.903   9.371  71.076  1.00  0.00     0.000 HD 
BRANCH  15  22
HETATM   22  N   UNL     1     -10.116   9.836  67.364  1.00  0.00    -0.194 NA 
HETATM   23  C   UNL     1     -10.230   8.744  66.545  1.00  0.00    -0.244 A  
HETATM   24  C   UNL     1      -8.156   8.940  67.011  1.00  0.00    -0.109 A  
HETATM   25  N   UNL     1      -9.063   8.171  66.319  1.00  0.00    -0.176 NA 
HETATM   26  C   UNL     1      -6.771   8.822  67.216  1.00  0.00    -0.063 A  
HETATM   27  N   UNL     1      -6.133   9.799  67.902  1.00  0.00    -0.051 NA 
HETATM   28  N   UNL     1      -6.024   7.739  66.774  1.00  0.00    -0.046 NA 
HETATM   29  H2  UNL     1      -6.191   7.644  65.773  1.00  0.00     0.000 HD 
HETATM   30  C   UNL     1      -6.869  10.813  68.403  1.00  0.00    -0.068 A  
HETATM   31  H1  UNL     1      -5.018   7.653  66.924  1.00  0.00     0.000 HD 
HETATM   32  N   UNL     1      -8.207  10.991  68.351  1.00  0.00    -0.130 NA 
HETATM   33  C   UNL     1      -8.782  10.017  67.619  1.00  0.00    -0.121 A  
ENDBRANCH  15  22
ENDBRANCH  12  13
ENDBRANCH  10  12
ENDBRANCH   9  10
ENDBRANCH   8   9
ENDBRANCH   1   8
TORSDOF 6
ENDMDL
MODEL      266
REMARK 921   NORMALIZED FREE ENERGY PREDICTED BY IDOCK:   -3.73 KCAL/MOL
REMARK 922        TOTAL FREE ENERGY PREDICTED BY IDOCK:   -6.46 KCAL/MOL
REMARK 923 INTER-LIGAND FREE ENERGY PREDICTED BY IDOCK:   -5.30 KCAL/MOL
REMARK 924 INTRA-LIGAND FREE ENERGY PREDICTED BY IDOCK:   -1.16 KCAL/MOL
REMARK 927      BINDING AFFINITY PREDICTED BY RF-SCORE:    0.00 PKD
ROOT
HETATM    1  CA  UNL     1      -6.844   8.792  65.474  1.00  0.00    -0.075 C  
HETATM    2  C   UNL     1      -8.217   8.296  64.880  1.00  0.00    -0.151 C  
HETATM    3  N   UNL     1      -5.734   8.321  64.569  1.00  0.00    -0.051 NA 
HETATM    4  OXT UNL     1      -9.106   8.040  65.745  1.00  0.00    -0.147 OA 
HETATM    5  H2  UNL     1      -4.825   8.701  64.831  1.00  0.00     0.000 HD 
HETATM    6  O   UNL     1      -8.253   8.206  63.621  1.00  0.00    -0.139 OA 
HETATM    7  H1  UNL     1      -5.747   7.301  64.559  1.00  0.00     0.000 HD 
ENDROOT
BRANCH   1   8
HETATM    8  C   UNL     1      -6.824  10.319  65.491  1.00  0.00    -0.134 C  
BRANCH   8   9
HETATM    9  C   UNL     1      -6.045  10.932  66.658  1.00  0.00    -0.101 C  
BRANCH   9  10
HETATM   10  S   UNL     1      -7.193  11.344  68.049  1.00  0.00    -0.089 S  
HETATM   11  C   UNL     1      -6.781  13.114  68.088  1.00  0.00    -0.111 C  
BRANCH  10  12
HETATM   12  C   UNL     1      -8.717  11.499  67.026  1.00  0.00    -0.169 C  
BRANCH  12  13
HETATM   13  C   UNL     1      -9.850  10.641  67.607  1.00  0.00    -0.167 C  
HETATM   14  O   UNL     1      -9.323   9.650  68.511  1.00  0.00    -0.136 OA 
HETATM   15  C   UNL     1     -10.422   9.216  69.309  1.00  0.00    -0.221 C  
HETATM   16  C   UNL     1     -11.226  10.486  69.602  1.00  0.00    -0.282 C  
HETATM   17  H   UNL     1     -12.620  12.302  68.211  1.00  0.00     0.000 HD 
HETATM   18  O   UNL     1     -12.639  10.246  69.629  1.00  0.00    -0.556 OA 
HETATM   19  C   UNL     1     -10.853  11.433  68.451  1.00  0.00    -0.207 C  
HETATM   20  O   UNL     1     -11.998  11.811  67.688  1.00  0.00    -0.599 OA 
HETATM   21  H   UNL     1     -13.138  11.034  69.810  1.00  0.00     0.000 HD 
BRANCH  15  22
HETATM   22  N   UNL     1      -9.925   8.496  70.463  1.00  0.00    -0.184 NA 
HETATM   23  C   UNL     1      -8.614   8.367  70.842  1.00  0.00    -0.146 A  
HETATM   24  C   UNL     1      -9.714   6.911  71.951  1.00  0.00    -0.161 A  
HETATM   25  N   UNL     1      -8.450   7.410  71.735  1.00  0.00    -0.107 NA 
HETATM   26  C   UNL     1     -10.196   5.852  72.739  1.00  0.00    -0.185 A  
HETATM   27  N   UNL     1     -11.533   5.649  72.800  1.00  0.00    -0.298 NA 
HETATM   28  N   UNL     1      -9.370   4.984  73.437  1.00  0.00    -0.136 NA 
HETATM   29  H2  UNL     1      -8.766   5.552  74.031  1.00  0.00     0.000 HD 
HETATM   30  C   UNL     1     -12.335   6.441  72.059  1.00  0.00    -0.216 A  
HETATM   31  H1  UNL     1      -9.720   4.214  74.009  1.00  0.00     0.000 HD 
HETATM   32  N   UNL     1     -11.990   7.425  71.201  1.00  0.00    -0.311 NA 
HETATM   33  C   UNL     1     -10.655   7.614  71.215  1.00  0.00    -0.219 A  
ENDBRANCH  15  22
ENDBRANCH  12  13
ENDBRANCH  10  12
ENDBRANCH   9  10
ENDBRANCH   8   9
ENDBRANCH   1   8
TORSDOF 6
ENDMDL
MODEL      267
REMARK 921   NORMALIZED FREE ENERGY PREDICTED BY IDOCK:   -3.68 KCAL/MOL
REMARK 922        TOTAL FREE ENERGY PREDICTED BY IDOCK:   -6.40 KCAL/MOL
REMARK 923 INTER-LIGAND FREE ENERGY PREDICTED BY IDOCK:   -5.68 KCAL/MOL
REMARK 924 INTRA-LIGAND FREE ENERGY PREDICTED BY IDOCK:   -0.72 KCAL/MOL
REMARK 927      BINDING AFFINITY PREDICTED BY RF-SCORE:    0.00 PKD
ROOT
HETATM    1  CA  UNL     1      -6.204  16.406  67.391  1.00  0.00    -0.168 C  
HETATM    2  C   UNL     1      -6.368  17.131  68.781  1.00  0.00    -0.175 C  
HETATM    3  N   UNL     1      -5.135  15.352  67.525  1.00  0.00    -0.327 NA 
HETATM    4  OXT UNL     1      -6.697  18.351  68.705  1.00  0.00    -0.238 OA 
HETATM    5  H2  UNL     1      -5.054  14.765  66.695  1.00  0.00     0.000 HD 
HETATM    6  O   UNL     1      -6.138  16.409  69.791  1.00  0.00    -0.199 OA 
HETATM    7  H1  UNL     1      -4.260  15.819  67.765  1.00  0.00     0.000 HD 
ENDROOT
BRANCH   1   8
HETATM    8  C   UNL     1      -7.514  15.707  67.031  1.00  0.00    -0.228 C  
BRANCH   8   9
HETATM    9  C   UNL     1      -8.560  16.615  66.379  1.00  0.00    -0.310 C  
BRANCH   9  10
HETATM   10  S   UNL     1     -10.242  16.238  67.048  1.00  0.00    -0.283 S  
HETATM   11  C   UNL     1     -10.764  15.227  65.630  1.00  0.00    -0.365 C  
BRANCH  10  12
HETATM   12  C   UNL     1      -9.730  14.840  68.134  1.00  0.00    -0.217 C  
BRANCH  12  13
HETATM   13  C   UNL     1     -10.550  13.581  67.822  1.00  0.00    -0.246 C  
HETATM   14  O   UNL     1      -9.713  12.562  67.240  1.00  0.00    -0.197 OA 
HETATM   15  C   UNL     1     -10.421  11.333  67.390  1.00  0.00    -0.212 C  
HETATM   16  C   UNL     1     -11.057  11.410  68.781  1.00  0.00    -0.235 C  
HETATM   17  H   UNL     1     -12.884  12.913  70.036  1.00  0.00     0.000 HD 
HETATM   18  O   UNL     1     -12.351  10.794  68.827  1.00  0.00    -0.812 OA 
HETATM   19  C   UNL     1     -11.157  12.917  69.060  1.00  0.00    -0.233 C  
HETATM   20  O   UNL     1     -12.508  13.326  69.267  1.00  0.00    -0.102 OA 
HETATM   21  H   UNL     1     -12.745  10.841  69.689  1.00  0.00     0.000 HD 
BRANCH  15  22
HETATM   22  N   UNL     1      -9.517  10.225  67.161  1.00  0.00    -0.156 NA 
HETATM   23  C   UNL     1      -9.743   9.142  66.353  1.00  0.00    -0.262 A  
HETATM   24  C   UNL     1      -8.069   8.646  67.582  1.00  0.00    -0.107 A  
HETATM   25  N   UNL     1      -8.890   8.163  66.589  1.00  0.00    -0.136 NA 
HETATM   26  C   UNL     1      -7.009   8.070  68.303  1.00  0.00    -0.073 A  
HETATM   27  N   UNL     1      -6.335   8.841  69.187  1.00  0.00    -0.042 NA 
HETATM   28  N   UNL     1      -6.633   6.741  68.174  1.00  0.00    -0.056 NA 
HETATM   29  H2  UNL     1      -6.454   6.571  67.184  1.00  0.00     0.000 HD 
HETATM   30  C   UNL     1      -6.748  10.112  69.374  1.00  0.00    -0.065 A  
HETATM   31  H1  UNL     1      -5.863   6.323  68.697  1.00  0.00     0.000 HD 
HETATM   32  N   UNL     1      -7.800  10.748  68.814  1.00  0.00    -0.120 NA 
HETATM   33  C   UNL     1      -8.404   9.951  67.910  1.00  0.00    -0.114 A  
ENDBRANCH  15  22
ENDBRANCH  12  13
ENDBRANCH  10  12
ENDBRANCH   9  10
ENDBRANCH   8   9
ENDBRANCH   1   8
TORSDOF 6
ENDMDL
MODEL      268
REMARK 921   NORMALIZED FREE ENERGY PREDICTED BY IDOCK:   -3.68 KCAL/MOL
REMARK 922        TOTAL FREE ENERGY PREDICTED BY IDOCK:   -6.39 KCAL/MOL
REMARK 923 INTER-LIGAND FREE ENERGY PREDICTED BY IDOCK:   -5.39 KCAL/MOL
REMARK 924 INTRA-LIGAND FREE ENERGY PREDICTED BY IDOCK:   -1.00 KCAL/MOL
REMARK 927      BINDING AFFINITY PREDICTED BY RF-SCORE:    0.00 PKD
ROOT
HETATM    1  CA  UNL     1     -11.828  14.481  66.895  1.00  0.00    -0.377 C  
HETATM    2  C   UNL     1     -11.344  15.631  67.858  1.00  0.00    -0.302 C  
HETATM    3  N   UNL     1     -11.524  14.887  65.475  1.00  0.00    -0.335 NA 
HETATM    4  OXT UNL     1     -12.035  15.766  68.910  1.00  0.00    -0.382 OA 
HETATM    5  H2  UNL     1     -11.707  14.142  64.804  1.00  0.00     0.000 HD 
HETATM    6  O   UNL     1     -10.338  16.278  67.455  1.00  0.00    -0.274 OA 
HETATM    7  H1  UNL     1     -12.048  15.739  65.272  1.00  0.00     0.000 HD 
ENDROOT
BRANCH   1   8
HETATM    8  C   UNL     1     -11.044  13.206  67.199  1.00  0.00    -0.305 C  
BRANCH   8   9
HETATM    9  C   UNL     1     -11.516  11.970  66.426  1.00  0.00    -0.353 C  
BRANCH   9  10
HETATM   10  S   UNL     1     -10.491  10.500  66.882  1.00  0.00    -0.236 S  
HETATM   11  C   UNL     1      -9.082  10.941  65.822  1.00  0.00    -0.196 C  
BRANCH  10  12
HETATM   12  C   UNL     1      -9.811  11.193  68.448  1.00  0.00    -0.185 C  
BRANCH  12  13
HETATM   13  C   UNL     1      -8.279  11.106  68.459  1.00  0.00    -0.149 C  
HETATM   14  O   UNL     1      -7.698  12.402  68.705  1.00  0.00    -0.118 OA 
HETATM   15  C   UNL     1      -6.357  12.164  69.125  1.00  0.00    -0.094 C  
HETATM   16  C   UNL     1      -6.439  10.934  70.034  1.00  0.00    -0.151 C  
HETATM   17  H   UNL     1      -7.098   8.348  69.800  1.00  0.00     0.000 HD 
HETATM   18  O   UNL     1      -5.298  10.076  69.901  1.00  0.00    -0.036 OA 
HETATM   19  C   UNL     1      -7.719  10.218  69.574  1.00  0.00    -0.165 C  
HETATM   20  O   UNL     1      -7.445   8.899  69.108  1.00  0.00    -0.070 OA 
HETATM   21  H   UNL     1      -5.349   9.313  70.464  1.00  0.00     0.000 HD 
BRANCH  15  22
HETATM   22  N   UNL     1      -5.819  13.366  69.727  1.00  0.00    -0.111 NA 
HETATM   23  C   UNL     1      -5.591  13.580  71.061  1.00  0.00    -0.206 A  
HETATM   24  C   UNL     1      -5.495  15.491  70.114  1.00  0.00    -0.138 A  
HETATM   25  N   UNL     1      -5.400  14.857  71.332  1.00  0.00    -0.120 NA 
HETATM   26  C   UNL     1      -5.445  16.845  69.741  1.00  0.00    -0.184 A  
HETATM   27  N   UNL     1      -5.499  17.155  68.425  1.00  0.00    -0.127 NA 
HETATM   28  N   UNL     1      -5.369  17.886  70.656  1.00  0.00    -0.268 NA 
HETATM   29  H2  UNL     1      -4.562  17.706  71.254  1.00  0.00     0.000 HD 
HETATM   30  C   UNL     1      -5.654  16.152  67.537  1.00  0.00    -0.136 A  
HETATM   31  H1  UNL     1      -5.332  18.868  70.385  1.00  0.00     0.000 HD 
HETATM   32  N   UNL     1      -5.804  14.830  67.774  1.00  0.00    -0.279 NA 
HETATM   33  C   UNL     1      -5.695  14.575  69.093  1.00  0.00    -0.091 A  
ENDBRANCH  15  22
ENDBRANCH  12  13
ENDBRANCH  10  12
ENDBRANCH   9  10
ENDBRANCH   8   9
ENDBRANCH   1   8
TORSDOF 6
ENDMDL
MODEL      269
REMARK 921   NORMALIZED FREE ENERGY PREDICTED BY IDOCK:   -3.68 KCAL/MOL
REMARK 922        TOTAL FREE ENERGY PREDICTED BY IDOCK:   -6.39 KCAL/MOL
REMARK 923 INTER-LIGAND FREE ENERGY PREDICTED BY IDOCK:   -5.89 KCAL/MOL
REMARK 924 INTRA-LIGAND FREE ENERGY PREDICTED BY IDOCK:   -0.49 KCAL/MOL
REMARK 927      BINDING AFFINITY PREDICTED BY RF-SCORE:    0.00 PKD
ROOT
HETATM    1  CA  UNL     1      -8.590  14.633  67.885  1.00  0.00    -0.165 C  
HETATM    2  C   UNL     1      -9.783  15.561  67.436  1.00  0.00    -0.218 C  
HETATM    3  N   UNL     1      -8.277  14.923  69.331  1.00  0.00    -0.365 NA 
HETATM    4  OXT UNL     1      -9.752  15.910  66.220  1.00  0.00    -0.262 OA 
HETATM    5  H2  UNL     1      -7.590  14.280  69.722  1.00  0.00     0.000 HD 
HETATM    6  O   UNL     1     -10.609  15.848  68.347  1.00  0.00    -0.247 OA 
HETATM    7  H1  UNL     1      -7.989  15.899  69.401  1.00  0.00     0.000 HD 
ENDROOT
BRANCH   1   8
HETATM    8  C   UNL     1      -9.021  13.172  67.778  1.00  0.00    -0.194 C  
BRANCH   8   9
HETATM    9  C   UNL     1     -10.374  12.957  67.093  1.00  0.00    -0.238 C  
BRANCH   9  10
HETATM   10  S   UNL     1     -10.317  11.452  66.021  1.00  0.00    -0.257 S  
HETATM   11  C   UNL     1     -10.482  12.356  64.453  1.00  0.00    -0.344 C  
BRANCH  10  12
HETATM   12  C   UNL     1      -8.483  11.287  65.984  1.00  0.00    -0.102 C  
BRANCH  12  13
HETATM   13  C   UNL     1      -8.053   9.895  66.469  1.00  0.00    -0.117 C  
HETATM   14  O   UNL     1      -8.130   9.813  67.906  1.00  0.00    -0.111 OA 
HETATM   15  C   UNL     1      -8.146   8.423  68.224  1.00  0.00    -0.120 C  
HETATM   16  C   UNL     1      -9.034   7.782  67.152  1.00  0.00    -0.126 C  
HETATM   17  H   UNL     1      -8.983   7.437  64.497  1.00  0.00     0.000 HD 
HETATM   18  O   UNL     1      -8.574   6.480  66.767  1.00  0.00    -0.113 OA 
HETATM   19  C   UNL     1      -8.956   8.763  65.972  1.00  0.00    -0.192 C  
HETATM   20  O   UNL     1      -8.423   8.140  64.805  1.00  0.00    -0.138 OA 
HETATM   21  H   UNL     1      -9.123   6.083  66.102  1.00  0.00     0.000 HD 
BRANCH  15  22
HETATM   22  N   UNL     1      -8.575   8.247  69.596  1.00  0.00    -0.128 NA 
HETATM   23  C   UNL     1      -8.133   7.292  70.473  1.00  0.00    -0.109 A  
HETATM   24  C   UNL     1      -9.904   8.126  71.324  1.00  0.00    -0.164 A  
HETATM   25  N   UNL     1      -8.920   7.186  71.526  1.00  0.00    -0.134 NA 
HETATM   26  C   UNL     1     -11.059   8.464  72.050  1.00  0.00    -0.327 A  
HETATM   27  N   UNL     1     -11.808   9.508  71.624  1.00  0.00    -0.387 NA 
HETATM   28  N   UNL     1     -11.488   7.766  73.170  1.00  0.00    -0.605 NA 
HETATM   29  H2  UNL     1     -10.711   7.744  73.830  1.00  0.00     0.000 HD 
HETATM   30  C   UNL     1     -11.439  10.140  70.490  1.00  0.00    -0.337 A  
HETATM   31  H1  UNL     1     -12.327   8.012  73.696  1.00  0.00     0.000 HD 
HETATM   32  N   UNL     1     -10.410   9.854  69.662  1.00  0.00    -0.224 NA 
HETATM   33  C   UNL     1      -9.674   8.840  70.158  1.00  0.00    -0.172 A  
ENDBRANCH  15  22
ENDBRANCH  12  13
ENDBRANCH  10  12
ENDBRANCH   9  10
ENDBRANCH   8   9
ENDBRANCH   1   8
TORSDOF 6
ENDMDL
MODEL      270
REMARK 921   NORMALIZED FREE ENERGY PREDICTED BY IDOCK:   -3.67 KCAL/MOL
REMARK 922        TOTAL FREE ENERGY PREDICTED BY IDOCK:   -6.38 KCAL/MOL
REMARK 923 INTER-LIGAND FREE ENERGY PREDICTED BY IDOCK:   -5.41 KCAL/MOL
REMARK 924 INTRA-LIGAND FREE ENERGY PREDICTED BY IDOCK:   -0.96 KCAL/MOL
REMARK 927      BINDING AFFINITY PREDICTED BY RF-SCORE:    0.00 PKD
ROOT
HETATM    1  CA  UNL     1     -10.917   6.340  70.449  1.00  0.00    -0.322 C  
HETATM    2  C   UNL     1     -11.843   6.682  71.678  1.00  0.00    -0.336 C  
HETATM    3  N   UNL     1     -11.747   6.408  69.193  1.00  0.00    -0.491 NA 
HETATM    4  OXT UNL     1     -11.535   6.089  72.754  1.00  0.00    -0.267 OA 
HETATM    5  H2  UNL     1     -11.188   6.309  68.346  1.00  0.00     0.000 HD 
HETATM    6  O   UNL     1     -12.781   7.491  71.432  1.00  0.00    -0.342 OA 
HETATM    7  H1  UNL     1     -12.484   5.707  69.263  1.00  0.00     0.000 HD 
ENDROOT
BRANCH   1   8
HETATM    8  C   UNL     1      -9.813   7.389  70.344  1.00  0.00    -0.183 C  
BRANCH   8   9
HETATM    9  C   UNL     1      -9.364   7.698  68.913  1.00  0.00    -0.145 C  
BRANCH   9  10
HETATM   10  S   UNL     1      -7.817   6.767  68.511  1.00  0.00    -0.119 S  
HETATM   11  C   UNL     1      -8.503   5.921  67.057  1.00  0.00    -0.107 C  
BRANCH  10  12
HETATM   12  C   UNL     1      -6.981   8.130  67.595  1.00  0.00    -0.078 C  
BRANCH  12  13
HETATM   13  C   UNL     1      -8.011   9.136  67.061  1.00  0.00    -0.102 C  
HETATM   14  O   UNL     1      -7.864  10.409  67.720  1.00  0.00    -0.100 OA 
HETATM   15  C   UNL     1      -8.523  11.364  66.891  1.00  0.00    -0.157 C  
HETATM   16  C   UNL     1      -8.175  10.951  65.457  1.00  0.00    -0.052 C  
HETATM   17  H   UNL     1      -8.618   8.860  63.844  1.00  0.00     0.000 HD 
HETATM   18  O   UNL     1      -9.259  11.169  64.546  1.00  0.00    -0.286 OA 
HETATM   19  C   UNL     1      -7.848   9.454  65.573  1.00  0.00    -0.103 C  
HETATM   20  O   UNL     1      -8.719   8.662  64.768  1.00  0.00    -0.159 OA 
HETATM   21  H   UNL     1      -9.044  10.913  63.657  1.00  0.00     0.000 HD 
BRANCH  15  22
HETATM   22  N   UNL     1      -8.126  12.700  67.284  1.00  0.00    -0.184 NA 
HETATM   23  C   UNL     1      -7.158  13.028  68.197  1.00  0.00    -0.107 A  
HETATM   24  C   UNL     1      -8.299  14.800  67.856  1.00  0.00    -0.149 A  
HETATM   25  N   UNL     1      -7.240  14.290  68.572  1.00  0.00    -0.109 NA 
HETATM   26  C   UNL     1      -8.924  16.059  67.850  1.00  0.00    -0.186 A  
HETATM   27  N   UNL     1      -9.920  16.282  66.962  1.00  0.00    -0.249 NA 
HETATM   28  N   UNL     1      -8.590  17.081  68.728  1.00  0.00    -0.257 NA 
HETATM   29  H2  UNL     1      -7.586  17.240  68.640  1.00  0.00     0.000 HD 
HETATM   30  C   UNL     1     -10.302  15.266  66.161  1.00  0.00    -0.302 A  
HETATM   31  H1  UNL     1      -9.043  17.994  68.724  1.00  0.00     0.000 HD 
HETATM   32  N   UNL     1      -9.845  13.995  66.134  1.00  0.00    -0.301 NA 
HETATM   33  C   UNL     1      -8.826  13.843  67.003  1.00  0.00    -0.218 A  
ENDBRANCH  15  22
ENDBRANCH  12  13
ENDBRANCH  10  12
ENDBRANCH   9  10
ENDBRANCH   8   9
ENDBRANCH   1   8
TORSDOF 6
ENDMDL
MODEL      271
REMARK 921   NORMALIZED FREE ENERGY PREDICTED BY IDOCK:   -3.66 KCAL/MOL
REMARK 922        TOTAL FREE ENERGY PREDICTED BY IDOCK:   -6.36 KCAL/MOL
REMARK 923 INTER-LIGAND FREE ENERGY PREDICTED BY IDOCK:   -6.10 KCAL/MOL
REMARK 924 INTRA-LIGAND FREE ENERGY PREDICTED BY IDOCK:   -0.27 KCAL/MOL
REMARK 927      BINDING AFFINITY PREDICTED BY RF-SCORE:    0.00 PKD
ROOT
HETATM    1  CA  UNL     1      -9.956   7.006  70.148  1.00  0.00    -0.182 C  
HETATM    2  C   UNL     1     -10.726   7.122  71.519  1.00  0.00    -0.223 C  
HETATM    3  N   UNL     1     -10.517   5.834  69.384  1.00  0.00    -0.260 NA 
HETATM    4  OXT UNL     1     -10.032   7.570  72.479  1.00  0.00    -0.175 OA 
HETATM    5  H2  UNL     1     -10.144   5.766  68.438  1.00  0.00     0.000 HD 
HETATM    6  O   UNL     1     -11.929   6.742  71.491  1.00  0.00    -0.314 OA 
HETATM    7  H1  UNL     1     -10.352   4.991  69.934  1.00  0.00     0.000 HD 
ENDROOT
BRANCH   1   8
HETATM    8  C   UNL     1     -10.202   8.268  69.325  1.00  0.00    -0.207 C  
BRANCH   8   9
HETATM    9  C   UNL     1      -9.884   8.126  67.834  1.00  0.00    -0.169 C  
BRANCH   9  10
HETATM   10  S   UNL     1      -8.160   8.701  67.489  1.00  0.00    -0.106 S  
HETATM   11  C   UNL     1      -7.904   7.614  66.055  1.00  0.00    -0.101 C  
BRANCH  10  12
HETATM   12  C   UNL     1      -8.626  10.208  66.537  1.00  0.00    -0.126 C  
BRANCH  12  13
HETATM   13  C   UNL     1      -9.393  11.196  67.427  1.00  0.00    -0.164 C  
HETATM   14  O   UNL     1      -8.563  12.325  67.763  1.00  0.00    -0.151 OA 
HETATM   15  C   UNL     1      -9.450  13.356  68.194  1.00  0.00    -0.218 C  
HETATM   16  C   UNL     1     -10.652  13.264  67.250  1.00  0.00    -0.247 C  
HETATM   17  H   UNL     1     -12.577  11.493  66.672  1.00  0.00     0.000 HD 
HETATM   18  O   UNL     1     -11.892  13.551  67.911  1.00  0.00    -0.339 OA 
HETATM   19  C   UNL     1     -10.621  11.811  66.750  1.00  0.00    -0.238 C  
HETATM   20  O   UNL     1     -11.815  11.111  67.092  1.00  0.00    -0.466 OA 
HETATM   21  H   UNL     1     -12.637  13.494  67.325  1.00  0.00     0.000 HD 
BRANCH  15  22
HETATM   22  N   UNL     1      -8.747  14.622  68.211  1.00  0.00    -0.167 NA 
HETATM   23  C   UNL     1      -7.553  14.884  68.830  1.00  0.00    -0.144 A  
HETATM   24  C   UNL     1      -8.415  16.776  68.344  1.00  0.00    -0.231 A  
HETATM   25  N   UNL     1      -7.326  16.179  68.937  1.00  0.00    -0.173 NA 
HETATM   26  C   UNL     1      -8.794  18.120  68.190  1.00  0.00    -0.280 A  
HETATM   27  N   UNL     1      -9.913  18.397  67.481  1.00  0.00    -0.321 NA 
HETATM   28  N   UNL     1      -8.095  19.179  68.749  1.00  0.00    -0.361 NA 
HETATM   29  H2  UNL     1      -7.126  19.101  68.439  1.00  0.00     0.000 HD 
HETATM   30  C   UNL     1     -10.640  17.366  67.003  1.00  0.00    -0.238 A  
HETATM   31  H1  UNL     1      -8.371  20.155  68.637  1.00  0.00     0.000 HD 
HETATM   32  N   UNL     1     -10.431  16.041  67.161  1.00  0.00    -0.305 NA 
HETATM   33  C   UNL     1      -9.282  15.824  67.831  1.00  0.00    -0.191 A  
ENDBRANCH  15  22
ENDBRANCH  12  13
ENDBRANCH  10  12
ENDBRANCH   9  10
ENDBRANCH   8   9
ENDBRANCH   1   8
TORSDOF 6
ENDMDL
MODEL      272
REMARK 921   NORMALIZED FREE ENERGY PREDICTED BY IDOCK:   -3.64 KCAL/MOL
REMARK 922        TOTAL FREE ENERGY PREDICTED BY IDOCK:   -6.33 KCAL/MOL
REMARK 923 INTER-LIGAND FREE ENERGY PREDICTED BY IDOCK:   -5.84 KCAL/MOL
REMARK 924 INTRA-LIGAND FREE ENERGY PREDICTED BY IDOCK:   -0.49 KCAL/MOL
REMARK 927      BINDING AFFINITY PREDICTED BY RF-SCORE:    0.00 PKD
ROOT
HETATM    1  CA  UNL     1      -7.245  13.034  67.302  1.00  0.00    -0.049 C  
HETATM    2  C   UNL     1      -7.114  12.370  68.725  1.00  0.00    -0.098 C  
HETATM    3  N   UNL     1      -7.700  11.981  66.324  1.00  0.00    -0.300 NA 
HETATM    4  OXT UNL     1      -6.206  12.862  69.457  1.00  0.00    -0.108 OA 
HETATM    5  H2  UNL     1      -7.915  12.365  65.404  1.00  0.00     0.000 HD 
HETATM    6  O   UNL     1      -7.921  11.425  68.951  1.00  0.00    -0.142 OA 
HETATM    7  H1  UNL     1      -6.987  11.252  66.290  1.00  0.00     0.000 HD 
ENDROOT
BRANCH   1   8
HETATM    8  C   UNL     1      -8.312  14.125  67.351  1.00  0.00    -0.210 C  
BRANCH   8   9
HETATM    9  C   UNL     1      -9.168  14.235  66.086  1.00  0.00    -0.086 C  
BRANCH   9  10
HETATM   10  S   UNL     1     -10.755  15.108  66.460  1.00  0.00    -0.312 S  
HETATM   11  C   UNL     1     -10.947  15.827  64.802  1.00  0.00    -0.393 C  
BRANCH  10  12
HETATM   12  C   UNL     1     -11.861  13.658  66.197  1.00  0.00    -0.392 C  
BRANCH  12  13
HETATM   13  C   UNL     1     -12.322  13.077  67.540  1.00  0.00     0.140 C  
HETATM   14  O   UNL     1     -11.952  11.688  67.645  1.00  0.00    -0.618 OA 
HETATM   15  C   UNL     1     -12.015  11.363  69.033  1.00  0.00    -0.320 C  
HETATM   16  C   UNL     1     -11.447  12.590  69.752  1.00  0.00    -0.141 C  
HETATM   17  H   UNL     1     -12.096  15.171  70.062  1.00  0.00     0.000 HD 
HETATM   18  O   UNL     1     -12.113  12.854  70.994  1.00  0.00    -0.426 OA 
HETATM   19  C   UNL     1     -11.670  13.739  68.757  1.00  0.00    -0.356 C  
HETATM   20  O   UNL     1     -12.500  14.759  69.307  1.00  0.00    -0.158 OA 
HETATM   21  H   UNL     1     -11.762  13.615  71.441  1.00  0.00     0.000 HD 
BRANCH  15  22
HETATM   22  N   UNL     1     -11.326  10.111  69.267  1.00  0.00    -0.193 NA 
HETATM   23  C   UNL     1     -10.996   9.576  70.484  1.00  0.00    -0.288 A  
HETATM   24  C   UNL     1      -9.874   8.498  69.022  1.00  0.00    -0.183 A  
HETATM   25  N   UNL     1     -10.112   8.604  70.374  1.00  0.00    -0.183 NA 
HETATM   26  C   UNL     1      -8.997   7.697  68.272  1.00  0.00    -0.127 A  
HETATM   27  N   UNL     1      -9.048   7.774  66.921  1.00  0.00    -0.137 NA 
HETATM   28  N   UNL     1      -8.061   6.847  68.844  1.00  0.00    -0.119 NA 
HETATM   29  H2  UNL     1      -8.563   6.231  69.483  1.00  0.00     0.000 HD 
HETATM   30  C   UNL     1      -9.900   8.658  66.362  1.00  0.00    -0.270 A  
HETATM   31  H1  UNL     1      -7.425   6.266  68.298  1.00  0.00     0.000 HD 
HETATM   32  N   UNL     1     -10.722   9.540  66.972  1.00  0.00    -0.199 NA 
HETATM   33  C   UNL     1     -10.665   9.386  68.310  1.00  0.00    -0.171 A  
ENDBRANCH  15  22
ENDBRANCH  12  13
ENDBRANCH  10  12
ENDBRANCH   9  10
ENDBRANCH   8   9
ENDBRANCH   1   8
TORSDOF 6
ENDMDL
MODEL      273
REMARK 921   NORMALIZED FREE ENERGY PREDICTED BY IDOCK:   -3.64 KCAL/MOL
REMARK 922        TOTAL FREE ENERGY PREDICTED BY IDOCK:   -6.33 KCAL/MOL
REMARK 923 INTER-LIGAND FREE ENERGY PREDICTED BY IDOCK:   -5.55 KCAL/MOL
REMARK 924 INTRA-LIGAND FREE ENERGY PREDICTED BY IDOCK:   -0.78 KCAL/MOL
REMARK 927      BINDING AFFINITY PREDICTED BY RF-SCORE:    0.00 PKD
ROOT
HETATM    1  CA  UNL     1      -8.251  15.011  67.015  1.00  0.00    -0.213 C  
HETATM    2  C   UNL     1      -8.095  16.577  66.923  1.00  0.00    -0.218 C  
HETATM    3  N   UNL     1      -7.512  14.528  68.236  1.00  0.00    -0.111 NA 
HETATM    4  OXT UNL     1      -8.074  17.038  65.744  1.00  0.00    -0.460 OA 
HETATM    5  H2  UNL     1      -7.664  13.537  68.423  1.00  0.00     0.000 HD 
HETATM    6  O   UNL     1      -7.997  17.171  68.033  1.00  0.00    -0.200 OA 
HETATM    7  H1  UNL     1      -6.526  14.761  68.121  1.00  0.00     0.000 HD 
ENDROOT
BRANCH   1   8
HETATM    8  C   UNL     1      -9.728  14.662  67.187  1.00  0.00    -0.235 C  
BRANCH   8   9
HETATM    9  C   UNL     1     -10.410  14.142  65.918  1.00  0.00    -0.316 C  
BRANCH   9  10
HETATM   10  S   UNL     1     -11.390  12.620  66.295  1.00  0.00    -0.349 S  
HETATM   11  C   UNL     1     -11.974  12.371  64.592  1.00  0.00    -0.394 C  
BRANCH  10  12
HETATM   12  C   UNL     1      -9.981  11.436  66.216  1.00  0.00    -0.224 C  
BRANCH  12  13
HETATM   13  C   UNL     1      -9.252  11.370  67.565  1.00  0.00    -0.160 C  
HETATM   14  O   UNL     1      -9.959  10.511  68.482  1.00  0.00    -0.158 OA 
HETATM   15  C   UNL     1      -9.026  10.166  69.503  1.00  0.00    -0.188 C  
HETATM   16  C   UNL     1      -7.700   9.944  68.770  1.00  0.00    -0.086 C  
HETATM   17  H   UNL     1      -5.975  11.400  67.328  1.00  0.00     0.000 HD 
HETATM   18  O   UNL     1      -6.571  10.390  69.533  1.00  0.00    -0.054 OA 
HETATM   19  C   UNL     1      -7.849  10.765  67.480  1.00  0.00    -0.109 C  
HETATM   20  O   UNL     1      -6.847  11.775  67.381  1.00  0.00    -0.099 OA 
HETATM   21  H   UNL     1      -5.748  10.252  69.078  1.00  0.00     0.000 HD 
BRANCH  15  22
HETATM   22  N   UNL     1      -9.533   9.040  70.260  1.00  0.00    -0.185 NA 
HETATM   23  C   UNL     1      -9.568   8.923  71.624  1.00  0.00    -0.293 A  
HETATM   24  C   UNL     1      -9.915   6.969  70.837  1.00  0.00    -0.193 A  
HETATM   25  N   UNL     1      -9.787   7.680  72.008  1.00  0.00    -0.163 NA 
HETATM   26  C   UNL     1     -10.098   5.601  70.571  1.00  0.00    -0.217 A  
HETATM   27  N   UNL     1     -10.262   5.209  69.286  1.00  0.00    -0.222 NA 
HETATM   28  N   UNL     1     -10.093   4.625  71.556  1.00  0.00    -0.196 NA 
HETATM   29  H2  UNL     1     -10.788   4.893  72.253  1.00  0.00     0.000 HD 
HETATM   30  C   UNL     1     -10.187   6.145  68.317  1.00  0.00    -0.175 A  
HETATM   31  H1  UNL     1     -10.226   3.632  71.363  1.00  0.00     0.000 HD 
HETATM   32  N   UNL     1      -9.928   7.466  68.437  1.00  0.00    -0.159 NA 
HETATM   33  C   UNL     1      -9.820   7.807  69.737  1.00  0.00    -0.178 A  
ENDBRANCH  15  22
ENDBRANCH  12  13
ENDBRANCH  10  12
ENDBRANCH   9  10
ENDBRANCH   8   9
ENDBRANCH   1   8
TORSDOF 6
ENDMDL
MODEL      274
REMARK 921   NORMALIZED FREE ENERGY PREDICTED BY IDOCK:   -3.61 KCAL/MOL
REMARK 922        TOTAL FREE ENERGY PREDICTED BY IDOCK:   -6.29 KCAL/MOL
REMARK 923 INTER-LIGAND FREE ENERGY PREDICTED BY IDOCK:   -5.95 KCAL/MOL
REMARK 924 INTRA-LIGAND FREE ENERGY PREDICTED BY IDOCK:   -0.35 KCAL/MOL
REMARK 927      BINDING AFFINITY PREDICTED BY RF-SCORE:    0.00 PKD
ROOT
HETATM    1  CA  UNL     1      -8.617   6.004  72.562  1.00  0.00    -0.119 C  
HETATM    2  C   UNL     1      -7.481   5.079  73.142  1.00  0.00    -0.088 C  
HETATM    3  N   UNL     1      -9.771   6.009  73.531  1.00  0.00    -0.156 NA 
HETATM    4  OXT UNL     1      -6.790   4.477  72.268  1.00  0.00    -0.047 OA 
HETATM    5  H2  UNL     1     -10.498   6.677  73.275  1.00  0.00     0.000 HD 
HETATM    6  O   UNL     1      -7.411   5.044  74.402  1.00  0.00    -0.084 OA 
HETATM    7  H1  UNL     1     -10.122   5.055  73.609  1.00  0.00     0.000 HD 
ENDROOT
BRANCH   1   8
HETATM    8  C   UNL     1      -8.092   7.433  72.444  1.00  0.00    -0.115 C  
BRANCH   8   9
HETATM    9  C   UNL     1      -6.779   7.566  71.667  1.00  0.00    -0.049 C  
BRANCH   9  10
HETATM   10  S   UNL     1      -6.730   9.178  70.763  1.00  0.00    -0.091 S  
HETATM   11  C   UNL     1      -5.475   8.656  69.555  1.00  0.00    -0.030 C  
BRANCH  10  12
HETATM   12  C   UNL     1      -8.199   8.868  69.696  1.00  0.00    -0.114 C  
BRANCH  12  13
HETATM   13  C   UNL     1      -9.287   9.920  69.951  1.00  0.00    -0.216 C  
HETATM   14  O   UNL     1      -9.349  10.860  68.860  1.00  0.00    -0.182 OA 
HETATM   15  C   UNL     1     -10.618  11.501  68.959  1.00  0.00    -0.173 C  
HETATM   16  C   UNL     1     -11.594  10.389  69.357  1.00  0.00    -0.202 C  
HETATM   17  H   UNL     1     -11.971   8.748  71.440  1.00  0.00     0.000 HD 
HETATM   18  O   UNL     1     -12.613  10.850  70.253  1.00  0.00    -0.312 OA 
HETATM   19  C   UNL     1     -10.701   9.339  70.036  1.00  0.00    -0.232 C  
HETATM   20  O   UNL     1     -11.094   9.109  71.387  1.00  0.00    -0.289 OA 
HETATM   21  H   UNL     1     -13.218  10.160  70.500  1.00  0.00     0.000 HD 
BRANCH  15  22
HETATM   22  N   UNL     1     -10.908  12.191  67.719  1.00  0.00    -0.216 NA 
HETATM   23  C   UNL     1     -11.624  13.350  67.578  1.00  0.00    -0.344 A  
HETATM   24  C   UNL     1     -11.463  12.495  65.629  1.00  0.00    -0.359 A  
HETATM   25  N   UNL     1     -11.985  13.560  66.327  1.00  0.00    -0.391 NA 
HETATM   26  C   UNL     1     -11.546  12.110  64.280  1.00  0.00    -0.370 A  
HETATM   27  N   UNL     1     -10.849  11.024  63.873  1.00  0.00    -0.280 NA 
HETATM   28  N   UNL     1     -12.330  12.772  63.345  1.00  0.00    -0.712 NA 
HETATM   29  H2  UNL     1     -12.058  13.755  63.363  1.00  0.00     0.000 HD 
HETATM   30  C   UNL     1     -10.150  10.331  64.796  1.00  0.00    -0.266 A  
HETATM   31  H1  UNL     1     -12.390  12.492  62.366  1.00  0.00     0.000 HD 
HETATM   32  N   UNL     1     -10.064  10.545  66.127  1.00  0.00    -0.237 NA 
HETATM   33  C   UNL     1     -10.737  11.662  66.467  1.00  0.00    -0.272 A  
ENDBRANCH  15  22
ENDBRANCH  12  13
ENDBRANCH  10  12
ENDBRANCH   9  10
ENDBRANCH   8   9
ENDBRANCH   1   8
TORSDOF 6
ENDMDL
MODEL      275
REMARK 921   NORMALIZED FREE ENERGY PREDICTED BY IDOCK:   -3.60 KCAL/MOL
REMARK 922        TOTAL FREE ENERGY PREDICTED BY IDOCK:   -6.28 KCAL/MOL
REMARK 923 INTER-LIGAND FREE ENERGY PREDICTED BY IDOCK:   -5.84 KCAL/MOL
REMARK 924 INTRA-LIGAND FREE ENERGY PREDICTED BY IDOCK:   -0.44 KCAL/MOL
REMARK 927      BINDING AFFINITY PREDICTED BY RF-SCORE:    0.00 PKD
ROOT
HETATM    1  CA  UNL     1     -10.482  13.284  64.787  1.00  0.00    -0.384 C  
HETATM    2  C   UNL     1     -11.831  12.800  64.132  1.00  0.00    -0.413 C  
HETATM    3  N   UNL     1     -10.184  14.677  64.294  1.00  0.00    -0.310 NA 
HETATM    4  OXT UNL     1     -11.896  11.554  63.915  1.00  0.00    -0.306 OA 
HETATM    5  H2  UNL     1      -9.384  15.099  64.764  1.00  0.00     0.000 HD 
HETATM    6  O   UNL     1     -12.669  13.714  63.894  1.00  0.00    -0.675 OA 
HETATM    7  H1  UNL     1     -10.070  14.636  63.281  1.00  0.00     0.000 HD 
ENDROOT
BRANCH   1   8
HETATM    8  C   UNL     1     -10.652  13.346  66.303  1.00  0.00    -0.292 C  
BRANCH   8   9
HETATM    9  C   UNL     1      -9.750  12.386  67.084  1.00  0.00    -0.207 C  
BRANCH   9  10
HETATM   10  S   UNL     1     -10.469  12.045  68.753  1.00  0.00    -0.137 S  
HETATM   11  C   UNL     1     -11.980  11.254  68.127  1.00  0.00    -0.110 C  
BRANCH  10  12
HETATM   12  C   UNL     1      -9.529  10.493  69.075  1.00  0.00    -0.201 C  
BRANCH  12  13
HETATM   13  C   UNL     1     -10.471   9.376  69.545  1.00  0.00    -0.218 C  
HETATM   14  O   UNL     1      -9.881   8.083  69.309  1.00  0.00    -0.172 OA 
HETATM   15  C   UNL     1     -10.588   7.165  70.141  1.00  0.00    -0.230 C  
HETATM   16  C   UNL     1     -10.816   7.918  71.455  1.00  0.00    -0.229 C  
HETATM   17  H   UNL     1     -12.148  10.092  72.278  1.00  0.00     0.000 HD 
HETATM   18  O   UNL     1     -12.081   7.605  72.054  1.00  0.00    -0.288 OA 
HETATM   19  C   UNL     1     -10.754   9.399  71.050  1.00  0.00    -0.337 C  
HETATM   20  O   UNL     1     -11.973  10.077  71.345  1.00  0.00    -0.365 OA 
HETATM   21  H   UNL     1     -12.222   8.072  72.869  1.00  0.00     0.000 HD 
BRANCH  15  22
HETATM   22  N   UNL     1      -9.843   5.927  70.236  1.00  0.00    -0.178 NA 
HETATM   23  C   UNL     1     -10.273   4.685  69.852  1.00  0.00    -0.085 A  
HETATM   24  C   UNL     1      -8.541   4.382  71.064  1.00  0.00    -0.089 A  
HETATM   25  N   UNL     1      -9.513   3.725  70.344  1.00  0.00    -0.170 NA 
HETATM   26  C   UNL     1      -7.480   3.925  71.865  1.00  0.00    -0.060 A  
HETATM   27  N   UNL     1      -6.633   4.837  72.396  1.00  0.00    -0.044 NA 
HETATM   28  N   UNL     1      -7.270   2.586  72.162  1.00  0.00    -0.037 NA 
HETATM   29  H2  UNL     1      -7.219   2.084  71.276  1.00  0.00     0.000 HD 
HETATM   30  C   UNL     1      -6.881   6.145  72.176  1.00  0.00    -0.073 A  
HETATM   31  H1  UNL     1      -6.500   2.256  72.743  1.00  0.00     0.000 HD 
HETATM   32  N   UNL     1      -7.910   6.708  71.505  1.00  0.00    -0.098 NA 
HETATM   33  C   UNL     1      -8.692   5.756  70.960  1.00  0.00    -0.134 A  
ENDBRANCH  15  22
ENDBRANCH  12  13
ENDBRANCH  10  12
ENDBRANCH   9  10
ENDBRANCH   8   9
ENDBRANCH   1   8
TORSDOF 6
ENDMDL
MODEL      276
REMARK 921   NORMALIZED FREE ENERGY PREDICTED BY IDOCK:   -3.58 KCAL/MOL
REMARK 922        TOTAL FREE ENERGY PREDICTED BY IDOCK:   -6.25 KCAL/MOL
REMARK 923 INTER-LIGAND FREE ENERGY PREDICTED BY IDOCK:   -5.31 KCAL/MOL
REMARK 924 INTRA-LIGAND FREE ENERGY PREDICTED BY IDOCK:   -0.94 KCAL/MOL
REMARK 927      BINDING AFFINITY PREDICTED BY RF-SCORE:    0.00 PKD
ROOT
HETATM    1  CA  UNL     1     -10.677  11.423  67.893  1.00  0.00    -0.200 C  
HETATM    2  C   UNL     1      -9.872  12.756  68.137  1.00  0.00    -0.226 C  
HETATM    3  N   UNL     1     -12.110  11.649  68.304  1.00  0.00    -0.539 NA 
HETATM    4  OXT UNL     1      -8.657  12.590  68.453  1.00  0.00    -0.172 OA 
HETATM    5  H2  UNL     1     -12.716  10.864  68.067  1.00  0.00     0.000 HD 
HETATM    6  O   UNL     1     -10.540  13.818  68.000  1.00  0.00    -0.242 OA 
HETATM    7  H1  UNL     1     -12.121  11.871  69.299  1.00  0.00     0.000 HD 
ENDROOT
BRANCH   1   8
HETATM    8  C   UNL     1     -10.660  11.091  66.402  1.00  0.00    -0.308 C  
BRANCH   8   9
HETATM    9  C   UNL     1      -9.262  10.861  65.819  1.00  0.00    -0.201 C  
BRANCH   9  10
HETATM   10  S   UNL     1      -8.987   9.059  65.506  1.00  0.00    -0.194 S  
HETATM   11  C   UNL     1      -8.596   9.252  63.741  1.00  0.00    -0.192 C  
BRANCH  10  12
HETATM   12  C   UNL     1      -7.247   9.003  66.109  1.00  0.00    -0.090 C  
BRANCH  12  13
HETATM   13  C   UNL     1      -7.197   8.590  67.586  1.00  0.00    -0.084 C  
HETATM   14  O   UNL     1      -8.529   8.419  68.110  1.00  0.00    -0.129 OA 
HETATM   15  C   UNL     1      -8.393   7.640  69.296  1.00  0.00    -0.134 C  
HETATM   16  C   UNL     1      -7.325   6.594  68.962  1.00  0.00    -0.094 C  
HETATM   17  H   UNL     1      -4.721   6.564  68.335  1.00  0.00     0.000 HD 
HETATM   18  O   UNL     1      -6.484   6.293  70.083  1.00  0.00    -0.037 OA 
HETATM   19  C   UNL     1      -6.516   7.241  67.827  1.00  0.00    -0.052 C  
HETATM   20  O   UNL     1      -5.144   7.401  68.185  1.00  0.00    -0.022 OA 
HETATM   21  H   UNL     1      -5.821   5.645  69.876  1.00  0.00     0.000 HD 
BRANCH  15  22
HETATM   22  N   UNL     1      -9.690   7.125  69.686  1.00  0.00    -0.158 NA 
HETATM   23  C   UNL     1     -10.680   6.686  68.847  1.00  0.00    -0.264 A  
HETATM   24  C   UNL     1     -11.580   6.949  70.765  1.00  0.00    -0.349 A  
HETATM   25  N   UNL     1     -11.840   6.578  69.466  1.00  0.00    -0.123 NA 
HETATM   26  C   UNL     1     -12.404   7.100  71.894  1.00  0.00    -0.317 A  
HETATM   27  N   UNL     1     -11.828   7.416  73.076  1.00  0.00     0.031 NA 
HETATM   28  N   UNL     1     -13.784   6.966  71.853  1.00  0.00    -0.495 NA 
HETATM   29  H2  UNL     1     -13.989   6.052  71.448  1.00  0.00     0.000 HD 
HETATM   30  C   UNL     1     -10.496   7.626  73.104  1.00  0.00    -0.374 A  
HETATM   31  H1  UNL     1     -14.382   7.075  72.672  1.00  0.00     0.000 HD 
HETATM   32  N   UNL     1      -9.616   7.601  72.079  1.00  0.00    -0.153 NA 
HETATM   33  C   UNL     1     -10.234   7.235  70.938  1.00  0.00    -0.196 A  
ENDBRANCH  15  22
ENDBRANCH  12  13
ENDBRANCH  10  12
ENDBRANCH   9  10
ENDBRANCH   8   9
ENDBRANCH   1   8
TORSDOF 6
ENDMDL
MODEL      277
REMARK 921   NORMALIZED FREE ENERGY PREDICTED BY IDOCK:   -3.57 KCAL/MOL
REMARK 922        TOTAL FREE ENERGY PREDICTED BY IDOCK:   -6.24 KCAL/MOL
REMARK 923 INTER-LIGAND FREE ENERGY PREDICTED BY IDOCK:   -6.03 KCAL/MOL
REMARK 924 INTRA-LIGAND FREE ENERGY PREDICTED BY IDOCK:   -0.22 KCAL/MOL
REMARK 927      BINDING AFFINITY PREDICTED BY RF-SCORE:    0.00 PKD
ROOT
HETATM    1  CA  UNL     1     -12.820  14.424  72.320  1.00  0.00    -0.346 C  
HETATM    2  C   UNL     1     -13.239  15.095  70.956  1.00  0.00    -0.450 C  
HETATM    3  N   UNL     1     -13.509  15.154  73.443  1.00  0.00    -0.606 NA 
HETATM    4  OXT UNL     1     -12.349  15.064  70.056  1.00  0.00    -0.323 OA 
HETATM    5  H2  UNL     1     -13.374  14.703  74.348  1.00  0.00     0.000 HD 
HETATM    6  O   UNL     1     -14.401  15.588  70.938  1.00  0.00    -0.392 OA 
HETATM    7  H1  UNL     1     -13.190  16.122  73.433  1.00  0.00     0.000 HD 
ENDROOT
BRANCH   1   8
HETATM    8  C   UNL     1     -13.298  12.974  72.334  1.00  0.00    -0.563 C  
BRANCH   8   9
HETATM    9  C   UNL     1     -12.878  12.154  71.111  1.00  0.00    -0.217 C  
BRANCH   9  10
HETATM   10  S   UNL     1     -12.290  10.480  71.631  1.00  0.00    -0.177 S  
HETATM   11  C   UNL     1     -13.791   9.602  71.103  1.00  0.00    -0.007 C  
BRANCH  10  12
HETATM   12  C   UNL     1     -11.291  10.128  70.124  1.00  0.00    -0.303 C  
BRANCH  12  13
HETATM   13  C   UNL     1     -10.529   8.804  70.275  1.00  0.00    -0.208 C  
HETATM   14  O   UNL     1     -10.726   7.971  69.115  1.00  0.00    -0.199 OA 
HETATM   15  C   UNL     1      -9.677   7.004  69.137  1.00  0.00    -0.156 C  
HETATM   16  C   UNL     1      -8.437   7.777  69.596  1.00  0.00    -0.133 C  
HETATM   17  H   UNL     1      -7.626   9.086  71.787  1.00  0.00     0.000 HD 
HETATM   18  O   UNL     1      -7.579   6.989  70.431  1.00  0.00    -0.087 OA 
HETATM   19  C   UNL     1      -9.011   8.972  70.371  1.00  0.00    -0.205 C  
HETATM   20  O   UNL     1      -8.568   8.981  71.727  1.00  0.00    -0.353 OA 
HETATM   21  H   UNL     1      -6.809   7.468  70.716  1.00  0.00     0.000 HD 
BRANCH  15  22
HETATM   22  N   UNL     1      -9.587   6.361  67.843  1.00  0.00    -0.122 NA 
HETATM   23  C   UNL     1      -9.778   5.031  67.578  1.00  0.00    -0.157 A  
HETATM   24  C   UNL     1      -8.836   5.866  65.853  1.00  0.00    -0.149 A  
HETATM   25  N   UNL     1      -9.326   4.695  66.385  1.00  0.00    -0.138 NA 
HETATM   26  C   UNL     1      -8.177   6.159  64.647  1.00  0.00    -0.094 A  
HETATM   27  N   UNL     1      -7.877   7.450  64.373  1.00  0.00    -0.127 NA 
HETATM   28  N   UNL     1      -7.792   5.189  63.733  1.00  0.00    -0.085 NA 
HETATM   29  H2  UNL     1      -8.623   4.647  63.499  1.00  0.00     0.000 HD 
HETATM   30  C   UNL     1      -8.176   8.387  65.296  1.00  0.00    -0.151 A  
HETATM   31  H1  UNL     1      -7.313   5.403  62.858  1.00  0.00     0.000 HD 
HETATM   32  N   UNL     1      -8.724   8.221  66.520  1.00  0.00    -0.134 NA 
HETATM   33  C   UNL     1      -9.044   6.928  66.720  1.00  0.00    -0.145 A  
ENDBRANCH  15  22
ENDBRANCH  12  13
ENDBRANCH  10  12
ENDBRANCH   9  10
ENDBRANCH   8   9
ENDBRANCH   1   8
TORSDOF 6
ENDMDL
MODEL      278
REMARK 921   NORMALIZED FREE ENERGY PREDICTED BY IDOCK:   -3.57 KCAL/MOL
REMARK 922        TOTAL FREE ENERGY PREDICTED BY IDOCK:   -6.24 KCAL/MOL
REMARK 923 INTER-LIGAND FREE ENERGY PREDICTED BY IDOCK:   -5.92 KCAL/MOL
REMARK 924 INTRA-LIGAND FREE ENERGY PREDICTED BY IDOCK:   -0.32 KCAL/MOL
REMARK 927      BINDING AFFINITY PREDICTED BY RF-SCORE:    0.00 PKD
ROOT
HETATM    1  CA  UNL     1     -10.005   5.949  66.805  1.00  0.00    -0.175 C  
HETATM    2  C   UNL     1      -8.883   5.325  65.891  1.00  0.00    -0.145 C  
HETATM    3  N   UNL     1     -10.008   5.219  68.123  1.00  0.00    -0.154 NA 
HETATM    4  OXT UNL     1      -9.139   5.344  64.651  1.00  0.00    -0.008 OA 
HETATM    5  H2  UNL     1     -10.633   5.644  68.808  1.00  0.00     0.000 HD 
HETATM    6  O   UNL     1      -7.878   4.874  66.509  1.00  0.00    -0.098 OA 
HETATM    7  H1  UNL     1     -10.229   4.240  67.941  1.00  0.00     0.000 HD 
ENDROOT
BRANCH   1   8
HETATM    8  C   UNL     1      -9.674   7.415  67.077  1.00  0.00    -0.248 C  
BRANCH   8   9
HETATM    9  C   UNL     1     -10.620   8.107  68.064  1.00  0.00    -0.126 C  
BRANCH   9  10
HETATM   10  S   UNL     1     -10.127   9.875  68.291  1.00  0.00    -0.169 S  
HETATM   11  C   UNL     1      -8.384   9.517  68.664  1.00  0.00    -0.117 C  
BRANCH  10  12
HETATM   12  C   UNL     1      -9.892  10.261  66.505  1.00  0.00    -0.212 C  
BRANCH  12  13
HETATM   13  C   UNL     1     -10.735  11.477  66.098  1.00  0.00    -0.274 C  
HETATM   14  O   UNL     1     -10.561  12.553  67.041  1.00  0.00    -0.229 OA 
HETATM   15  C   UNL     1     -11.003  13.737  66.379  1.00  0.00    -0.298 C  
HETATM   16  C   UNL     1     -10.497  13.598  64.940  1.00  0.00    -0.409 C  
HETATM   17  H   UNL     1     -10.906  11.970  62.853  1.00  0.00     0.000 HD 
HETATM   18  O   UNL     1     -11.416  14.139  63.982  1.00  0.00    -0.612 OA 
HETATM   19  C   UNL     1     -10.334  12.082  64.750  1.00  0.00    -0.280 C  
HETATM   20  O   UNL     1     -11.154  11.594  63.690  1.00  0.00    -0.395 OA 
HETATM   21  H   UNL     1     -11.102  14.053  63.090  1.00  0.00     0.000 HD 
BRANCH  15  22
HETATM   22  N   UNL     1     -10.539  14.898  67.110  1.00  0.00    -0.279 NA 
HETATM   23  C   UNL     1     -11.103  16.147  67.099  1.00  0.00    -0.053 A  
HETATM   24  C   UNL     1      -9.163  16.363  67.963  1.00  0.00    -0.204 A  
HETATM   25  N   UNL     1     -10.292  17.060  67.599  1.00  0.00    -0.321 NA 
HETATM   26  C   UNL     1      -7.927  16.768  68.496  1.00  0.00    -0.235 A  
HETATM   27  N   UNL     1      -7.021  15.816  68.822  1.00  0.00    -0.118 NA 
HETATM   28  N   UNL     1      -7.575  18.097  68.681  1.00  0.00    -0.294 NA 
HETATM   29  H2  UNL     1      -8.305  18.528  69.249  1.00  0.00     0.000 HD 
HETATM   30  C   UNL     1      -7.328  14.527  68.569  1.00  0.00    -0.120 A  
HETATM   31  H1  UNL     1      -6.677  18.390  69.068  1.00  0.00     0.000 HD 
HETATM   32  N   UNL     1      -8.436  14.022  67.982  1.00  0.00    -0.160 NA 
HETATM   33  C   UNL     1      -9.319  15.006  67.723  1.00  0.00    -0.186 A  
ENDBRANCH  15  22
ENDBRANCH  12  13
ENDBRANCH  10  12
ENDBRANCH   9  10
ENDBRANCH   8   9
ENDBRANCH   1   8
TORSDOF 6
ENDMDL
MODEL      279
REMARK 921   NORMALIZED FREE ENERGY PREDICTED BY IDOCK:   -3.54 KCAL/MOL
REMARK 922        TOTAL FREE ENERGY PREDICTED BY IDOCK:   -6.20 KCAL/MOL
REMARK 923 INTER-LIGAND FREE ENERGY PREDICTED BY IDOCK:   -5.52 KCAL/MOL
REMARK 924 INTRA-LIGAND FREE ENERGY PREDICTED BY IDOCK:   -0.68 KCAL/MOL
REMARK 927      BINDING AFFINITY PREDICTED BY RF-SCORE:    0.00 PKD
ROOT
HETATM    1  CA  UNL     1     -10.388  13.452  64.725  1.00  0.00    -0.379 C  
HETATM    2  C   UNL     1     -11.639  12.967  63.898  1.00  0.00    -0.449 C  
HETATM    3  N   UNL     1     -10.139  14.904  64.406  1.00  0.00    -0.290 NA 
HETATM    4  OXT UNL     1     -11.604  11.750  63.550  1.00  0.00    -0.434 OA 
HETATM    5  H2  UNL     1      -9.413  15.317  64.991  1.00  0.00     0.000 HD 
HETATM    6  O   UNL     1     -12.510  13.854  63.677  1.00  0.00    -0.768 OA 
HETATM    7  H1  UNL     1      -9.933  14.978  63.410  1.00  0.00     0.000 HD 
ENDROOT
BRANCH   1   8
HETATM    8  C   UNL     1     -10.696  13.341  66.216  1.00  0.00    -0.293 C  
BRANCH   8   9
HETATM    9  C   UNL     1      -9.659  12.553  67.023  1.00  0.00    -0.216 C  
BRANCH   9  10
HETATM   10  S   UNL     1     -10.411  11.923  68.591  1.00  0.00    -0.172 S  
HETATM   11  C   UNL     1     -11.595  10.811  67.775  1.00  0.00    -0.069 C  
BRANCH  10  12
HETATM   12  C   UNL     1      -9.126  10.651  68.945  1.00  0.00    -0.176 C  
BRANCH  12  13
HETATM   13  C   UNL     1      -9.771   9.362  69.472  1.00  0.00    -0.183 C  
HETATM   14  O   UNL     1      -8.887   8.239  69.281  1.00  0.00    -0.141 OA 
HETATM   15  C   UNL     1      -9.351   7.215  70.159  1.00  0.00    -0.158 C  
HETATM   16  C   UNL     1      -9.749   7.946  71.444  1.00  0.00    -0.164 C  
HETATM   17  H   UNL     1     -11.563   9.769  72.196  1.00  0.00     0.000 HD 
HETATM   18  O   UNL     1     -10.899   7.364  72.071  1.00  0.00    -0.219 OA 
HETATM   19  C   UNL     1     -10.046   9.380  70.978  1.00  0.00    -0.283 C  
HETATM   20  O   UNL     1     -11.392   9.757  71.261  1.00  0.00    -0.361 OA 
HETATM   21  H   UNL     1     -11.147   7.817  72.868  1.00  0.00     0.000 HD 
BRANCH  15  22
HETATM   22  N   UNL     1      -8.329   6.197  70.294  1.00  0.00    -0.123 NA 
HETATM   23  C   UNL     1      -6.976   6.403  70.361  1.00  0.00    -0.063 A  
HETATM   24  C   UNL     1      -7.256   4.321  69.981  1.00  0.00    -0.046 A  
HETATM   25  N   UNL     1      -6.296   5.290  70.166  1.00  0.00    -0.029 NA 
HETATM   26  C   UNL     1      -7.178   2.952  69.675  1.00  0.00    -0.044 A  
HETATM   27  N   UNL     1      -8.324   2.234  69.627  1.00  0.00    -0.044 NA 
HETATM   28  N   UNL     1      -5.986   2.301  69.392  1.00  0.00    -0.023 NA 
HETATM   29  H2  UNL     1      -5.354   2.473  70.174  1.00  0.00     0.000 HD 
HETATM   30  C   UNL     1      -9.492   2.881  69.822  1.00  0.00    -0.097 A  
HETATM   31  H1  UNL     1      -5.930   1.306  69.170  1.00  0.00     0.000 HD 
HETATM   32  N   UNL     1      -9.703   4.198  70.033  1.00  0.00    -0.211 NA 
HETATM   33  C   UNL     1      -8.529   4.854  70.118  1.00  0.00    -0.087 A  
ENDBRANCH  15  22
ENDBRANCH  12  13
ENDBRANCH  10  12
ENDBRANCH   9  10
ENDBRANCH   8   9
ENDBRANCH   1   8
TORSDOF 6
ENDMDL
MODEL      280
REMARK 921   NORMALIZED FREE ENERGY PREDICTED BY IDOCK:   -3.54 KCAL/MOL
REMARK 922        TOTAL FREE ENERGY PREDICTED BY IDOCK:   -6.20 KCAL/MOL
REMARK 923 INTER-LIGAND FREE ENERGY PREDICTED BY IDOCK:   -4.96 KCAL/MOL
REMARK 924 INTRA-LIGAND FREE ENERGY PREDICTED BY IDOCK:   -1.24 KCAL/MOL
REMARK 927      BINDING AFFINITY PREDICTED BY RF-SCORE:    0.00 PKD
ROOT
HETATM    1  CA  UNL     1      -7.324   9.798  65.112  1.00  0.00    -0.122 C  
HETATM    2  C   UNL     1      -8.780   9.332  64.730  1.00  0.00    -0.188 C  
HETATM    3  N   UNL     1      -6.762  10.597  63.964  1.00  0.00    -0.351 NA 
HETATM    4  OXT UNL     1      -9.124   8.217  65.221  1.00  0.00     0.002 OA 
HETATM    5  H2  UNL     1      -5.864  11.028  64.186  1.00  0.00     0.000 HD 
HETATM    6  O   UNL     1      -9.414  10.121  63.975  1.00  0.00    -0.271 OA 
HETATM    7  H1  UNL     1      -6.716   9.988  63.148  1.00  0.00     0.000 HD 
ENDROOT
BRANCH   1   8
HETATM    8  C   UNL     1      -7.392  10.710  66.335  1.00  0.00    -0.138 C  
BRANCH   8   9
HETATM    9  C   UNL     1      -6.458  10.308  67.481  1.00  0.00    -0.066 C  
BRANCH   9  10
HETATM   10  S   UNL     1      -7.442   9.807  68.964  1.00  0.00    -0.085 S  
HETATM   11  C   UNL     1      -6.808  11.127  70.041  1.00  0.00     0.017 C  
BRANCH  10  12
HETATM   12  C   UNL     1      -9.004  10.656  68.478  1.00  0.00    -0.156 C  
BRANCH  12  13
HETATM   13  C   UNL     1     -10.220   9.772  68.788  1.00  0.00    -0.194 C  
HETATM   14  O   UNL     1      -9.934   8.392  68.487  1.00  0.00    -0.176 OA 
HETATM   15  C   UNL     1     -10.907   7.622  69.190  1.00  0.00    -0.068 C  
HETATM   16  C   UNL     1     -11.064   8.322  70.543  1.00  0.00    -0.249 C  
HETATM   17  H   UNL     1     -11.912  10.696  71.449  1.00  0.00     0.000 HD 
HETATM   18  O   UNL     1     -12.414   8.287  71.024  1.00  0.00    -0.470 OA 
HETATM   19  C   UNL     1     -10.619   9.767  70.266  1.00  0.00    -0.292 C  
HETATM   20  O   UNL     1     -11.664  10.700  70.532  1.00  0.00    -0.308 OA 
HETATM   21  H   UNL     1     -12.512   8.721  71.863  1.00  0.00     0.000 HD 
BRANCH  15  22
HETATM   22  N   UNL     1     -10.486   6.237  69.233  1.00  0.00    -0.218 NA 
HETATM   23  C   UNL     1      -9.935   5.585  70.304  1.00  0.00    -0.216 A  
HETATM   24  C   UNL     1      -9.587   4.352  68.597  1.00  0.00    -0.149 A  
HETATM   25  N   UNL     1      -9.373   4.444  69.953  1.00  0.00    -0.137 NA 
HETATM   26  C   UNL     1      -9.188   3.409  67.634  1.00  0.00    -0.190 A  
HETATM   27  N   UNL     1      -9.626   3.559  66.362  1.00  0.00    -0.145 NA 
HETATM   28  N   UNL     1      -8.343   2.344  67.913  1.00  0.00    -0.063 NA 
HETATM   29  H2  UNL     1      -8.755   1.827  68.691  1.00  0.00     0.000 HD 
HETATM   30  C   UNL     1     -10.381   4.638  66.069  1.00  0.00    -0.284 A  
HETATM   31  H1  UNL     1      -8.053   1.660  67.214  1.00  0.00     0.000 HD 
HETATM   32  N   UNL     1     -10.754   5.653  66.879  1.00  0.00    -0.294 NA 
HETATM   33  C   UNL     1     -10.331   5.428  68.139  1.00  0.00    -0.145 A  
ENDBRANCH  15  22
ENDBRANCH  12  13
ENDBRANCH  10  12
ENDBRANCH   9  10
ENDBRANCH   8   9
ENDBRANCH   1   8
TORSDOF 6
ENDMDL
MODEL      281
REMARK 921   NORMALIZED FREE ENERGY PREDICTED BY IDOCK:   -3.52 KCAL/MOL
REMARK 922        TOTAL FREE ENERGY PREDICTED BY IDOCK:   -6.17 KCAL/MOL
REMARK 923 INTER-LIGAND FREE ENERGY PREDICTED BY IDOCK:   -5.27 KCAL/MOL
REMARK 924 INTRA-LIGAND FREE ENERGY PREDICTED BY IDOCK:   -0.90 KCAL/MOL
REMARK 927      BINDING AFFINITY PREDICTED BY RF-SCORE:    0.00 PKD
ROOT
HETATM    1  CA  UNL     1      -9.200  10.669  68.928  1.00  0.00    -0.183 C  
HETATM    2  C   UNL     1     -10.726  10.274  68.949  1.00  0.00    -0.227 C  
HETATM    3  N   UNL     1      -8.450   9.722  69.828  1.00  0.00    -0.178 NA 
HETATM    4  OXT UNL     1     -11.526  11.246  68.808  1.00  0.00    -0.239 OA 
HETATM    5  H2  UNL     1      -7.439   9.846  69.776  1.00  0.00     0.000 HD 
HETATM    6  O   UNL     1     -10.958   9.045  69.116  1.00  0.00    -0.140 OA 
HETATM    7  H1  UNL     1      -8.812   9.832  70.775  1.00  0.00     0.000 HD 
ENDROOT
BRANCH   1   8
HETATM    8  C   UNL     1      -8.658  10.505  67.510  1.00  0.00    -0.121 C  
BRANCH   8   9
HETATM    9  C   UNL     1      -9.643  10.893  66.403  1.00  0.00    -0.197 C  
BRANCH   9  10
HETATM   10  S   UNL     1      -9.539  12.708  66.062  1.00  0.00    -0.132 S  
HETATM   11  C   UNL     1      -9.194  12.525  64.287  1.00  0.00     0.842 C  
BRANCH  10  12
HETATM   12  C   UNL     1     -11.352  12.997  65.902  1.00  0.00    -0.313 C  
BRANCH  12  13
HETATM   13  C   UNL     1     -11.736  14.367  66.478  1.00  0.00    -0.391 C  
HETATM   14  O   UNL     1     -11.833  14.303  67.914  1.00  0.00    -0.342 OA 
HETATM   15  C   UNL     1     -11.754  15.650  68.378  1.00  0.00    -0.290 C  
HETATM   16  C   UNL     1     -10.696  16.313  67.491  1.00  0.00    -0.300 C  
HETATM   17  H   UNL     1     -10.390  16.915  64.899  1.00  0.00     0.000 HD 
HETATM   18  O   UNL     1     -11.009  17.680  67.194  1.00  0.00    -0.174 OA 
HETATM   19  C   UNL     1     -10.698  15.461  66.213  1.00  0.00    -0.312 C  
HETATM   20  O   UNL     1     -11.034  16.236  65.064  1.00  0.00    -0.479 OA 
HETATM   21  H   UNL     1     -10.353  18.092  66.644  1.00  0.00     0.000 HD 
BRANCH  15  22
HETATM   22  N   UNL     1     -11.488  15.655  69.801  1.00  0.00    -0.314 NA 
HETATM   23  C   UNL     1     -10.273  15.465  70.405  1.00  0.00    -0.010 A  
HETATM   24  C   UNL     1     -11.750  15.260  71.933  1.00  0.00    -0.433 A  
HETATM   25  N   UNL     1     -10.396  15.213  71.694  1.00  0.00     0.883 NA 
HETATM   26  C   UNL     1     -12.521  15.022  73.084  1.00  0.00    -0.435 A  
HETATM   27  N   UNL     1     -13.858  15.222  73.018  1.00  0.00    -0.426 NA 
HETATM   28  N   UNL     1     -11.985  14.566  74.279  1.00  0.00    -0.347 NA 
HETATM   29  H2  UNL     1     -11.239  15.209  74.542  1.00  0.00     0.000 HD 
HETATM   30  C   UNL     1     -14.393  15.588  71.835  1.00  0.00    -0.472 A  
HETATM   31  H1  UNL     1     -12.545  14.393  75.114  1.00  0.00     0.000 HD 
HETATM   32  N   UNL     1     -13.775  15.759  70.646  1.00  0.00    -0.108 NA 
HETATM   33  C   UNL     1     -12.444  15.594  70.780  1.00  0.00    -0.435 A  
ENDBRANCH  15  22
ENDBRANCH  12  13
ENDBRANCH  10  12
ENDBRANCH   9  10
ENDBRANCH   8   9
ENDBRANCH   1   8
TORSDOF 6
ENDMDL
MODEL      282
REMARK 921   NORMALIZED FREE ENERGY PREDICTED BY IDOCK:   -3.51 KCAL/MOL
REMARK 922        TOTAL FREE ENERGY PREDICTED BY IDOCK:   -6.17 KCAL/MOL
REMARK 923 INTER-LIGAND FREE ENERGY PREDICTED BY IDOCK:   -5.54 KCAL/MOL
REMARK 924 INTRA-LIGAND FREE ENERGY PREDICTED BY IDOCK:   -0.63 KCAL/MOL
REMARK 927      BINDING AFFINITY PREDICTED BY RF-SCORE:    0.00 PKD
ROOT
HETATM    1  CA  UNL     1      -7.620  13.673  67.892  1.00  0.00    -0.156 C  
HETATM    2  C   UNL     1      -6.739  14.932  68.243  1.00  0.00    -0.112 C  
HETATM    3  N   UNL     1      -7.405  12.628  68.958  1.00  0.00    -0.292 NA 
HETATM    4  OXT UNL     1      -6.310  15.573  67.239  1.00  0.00    -0.298 OA 
HETATM    5  H2  UNL     1      -8.030  11.829  68.857  1.00  0.00     0.000 HD 
HETATM    6  O   UNL     1      -6.561  15.133  69.476  1.00  0.00    -0.137 OA 
HETATM    7  H1  UNL     1      -6.420  12.363  68.945  1.00  0.00     0.000 HD 
ENDROOT
BRANCH   1   8
HETATM    8  C   UNL     1      -9.094  14.070  67.910  1.00  0.00    -0.188 C  
BRANCH   8   9
HETATM    9  C   UNL     1      -9.780  14.027  66.541  1.00  0.00    -0.295 C  
BRANCH   9  10
HETATM   10  S   UNL     1     -11.293  12.966  66.615  1.00  0.00    -0.334 S  
HETATM   11  C   UNL     1     -11.406  12.709  64.819  1.00  0.00    -0.312 C  
BRANCH  10  12
HETATM   12  C   UNL     1     -10.425  11.388  67.005  1.00  0.00    -0.236 C  
BRANCH  12  13
HETATM   13  C   UNL     1     -11.150  10.634  68.129  1.00  0.00    -0.285 C  
HETATM   14  O   UNL     1     -10.811   9.234  68.101  1.00  0.00    -0.188 OA 
HETATM   15  C   UNL     1     -11.154   8.716  69.384  1.00  0.00     0.086 C  
HETATM   16  C   UNL     1     -10.743   9.809  70.375  1.00  0.00    -0.308 C  
HETATM   17  H   UNL     1     -11.438  12.337  70.924  1.00  0.00     0.000 HD 
HETATM   18  O   UNL     1     -11.647   9.912  71.483  1.00  0.00    -0.373 OA 
HETATM   19  C   UNL     1     -10.757  11.095  69.535  1.00  0.00    -0.143 C  
HETATM   20  O   UNL     1     -11.681  12.051  70.051  1.00  0.00    -0.312 OA 
HETATM   21  H   UNL     1     -11.392  10.590  72.098  1.00  0.00     0.000 HD 
BRANCH  15  22
HETATM   22  N   UNL     1     -10.528   7.422  69.566  1.00  0.00    -0.228 NA 
HETATM   23  C   UNL     1     -11.160   6.207  69.594  1.00  0.00    -0.419 A  
HETATM   24  C   UNL     1      -9.196   5.889  70.366  1.00  0.00    -0.158 A  
HETATM   25  N   UNL     1     -10.386   5.258  70.082  1.00  0.00    -0.281 NA 
HETATM   26  C   UNL     1      -8.000   5.442  70.955  1.00  0.00    -0.104 A  
HETATM   27  N   UNL     1      -6.959   6.303  71.034  1.00  0.00    -0.066 NA 
HETATM   28  N   UNL     1      -7.839   4.170  71.484  1.00  0.00    -0.074 NA 
HETATM   29  H2  UNL     1      -8.083   3.504  70.751  1.00  0.00     0.000 HD 
HETATM   30  C   UNL     1      -7.137   7.566  70.594  1.00  0.00    -0.059 A  
HETATM   31  H1  UNL     1      -6.971   3.846  71.911  1.00  0.00     0.000 HD 
HETATM   32  N   UNL     1      -8.256   8.136  70.095  1.00  0.00    -0.117 NA 
HETATM   33  C   UNL     1      -9.243   7.224  69.995  1.00  0.00    -0.148 A  
ENDBRANCH  15  22
ENDBRANCH  12  13
ENDBRANCH  10  12
ENDBRANCH   9  10
ENDBRANCH   8   9
ENDBRANCH   1   8
TORSDOF 6
ENDMDL
MODEL      283
REMARK 921   NORMALIZED FREE ENERGY PREDICTED BY IDOCK:   -3.48 KCAL/MOL
REMARK 922        TOTAL FREE ENERGY PREDICTED BY IDOCK:   -6.12 KCAL/MOL
REMARK 923 INTER-LIGAND FREE ENERGY PREDICTED BY IDOCK:   -5.61 KCAL/MOL
REMARK 924 INTRA-LIGAND FREE ENERGY PREDICTED BY IDOCK:   -0.51 KCAL/MOL
REMARK 927      BINDING AFFINITY PREDICTED BY RF-SCORE:    0.00 PKD
ROOT
HETATM    1  CA  UNL     1     -10.249   7.844  72.499  1.00  0.00    -0.278 C  
HETATM    2  C   UNL     1     -11.522   6.962  72.207  1.00  0.00    -0.275 C  
HETATM    3  N   UNL     1      -9.916   7.732  73.965  1.00  0.00    -0.194 NA 
HETATM    4  OXT UNL     1     -12.272   7.403  71.287  1.00  0.00    -0.316 OA 
HETATM    5  H2  UNL     1      -9.036   8.187  74.205  1.00  0.00     0.000 HD 
HETATM    6  O   UNL     1     -11.641   5.937  72.934  1.00  0.00    -0.227 OA 
HETATM    7  H1  UNL     1     -10.707   8.096  74.497  1.00  0.00     0.000 HD 
ENDROOT
BRANCH   1   8
HETATM    8  C   UNL     1      -9.066   7.299  71.703  1.00  0.00    -0.143 C  
BRANCH   8   9
HETATM    9  C   UNL     1      -9.340   5.975  70.982  1.00  0.00    -0.161 C  
BRANCH   9  10
HETATM   10  S   UNL     1      -8.320   5.860  69.444  1.00  0.00    -0.114 S  
HETATM   11  C   UNL     1      -7.813   4.134  69.708  1.00  0.00    -0.052 C  
BRANCH  10  12
HETATM   12  C   UNL     1      -9.713   5.502  68.292  1.00  0.00    -0.132 C  
BRANCH  12  13
HETATM   13  C   UNL     1      -9.509   6.224  66.954  1.00  0.00    -0.138 C  
HETATM   14  O   UNL     1     -10.152   7.514  66.970  1.00  0.00    -0.210 OA 
HETATM   15  C   UNL     1      -9.564   8.265  65.911  1.00  0.00     0.008 C  
HETATM   16  C   UNL     1      -8.075   7.907  65.950  1.00  0.00    -0.119 C  
HETATM   17  H   UNL     1      -6.561   5.726  65.592  1.00  0.00     0.000 HD 
HETATM   18  O   UNL     1      -7.493   7.840  64.642  1.00  0.00    -0.082 OA 
HETATM   19  C   UNL     1      -8.044   6.532  66.635  1.00  0.00    -0.110 C  
HETATM   20  O   UNL     1      -7.470   5.536  65.790  1.00  0.00    -0.079 OA 
HETATM   21  H   UNL     1      -6.570   7.618  64.667  1.00  0.00     0.000 HD 
BRANCH  15  22
HETATM   22  N   UNL     1      -9.887   9.667  66.076  1.00  0.00    -0.260 NA 
HETATM   23  C   UNL     1     -10.294  10.280  67.232  1.00  0.00    -0.232 A  
HETATM   24  C   UNL     1     -10.715  11.641  65.642  1.00  0.00    -0.278 A  
HETATM   25  N   UNL     1     -10.809  11.472  67.005  1.00  0.00    -0.259 NA 
HETATM   26  C   UNL     1     -11.138  12.666  64.779  1.00  0.00    -0.300 A  
HETATM   27  N   UNL     1     -10.829  12.574  63.465  1.00  0.00    -0.439 NA 
HETATM   28  N   UNL     1     -11.881  13.759  65.201  1.00  0.00    -0.336 NA 
HETATM   29  H2  UNL     1     -11.368  14.199  65.965  1.00  0.00     0.000 HD 
HETATM   30  C   UNL     1     -10.176  11.473  63.037  1.00  0.00    -0.265 A  
HETATM   31  H1  UNL     1     -12.189  14.503  64.575  1.00  0.00     0.000 HD 
HETATM   32  N   UNL     1      -9.798  10.387  63.746  1.00  0.00    -0.296 NA 
HETATM   33  C   UNL     1     -10.088  10.554  65.052  1.00  0.00    -0.321 A  
ENDBRANCH  15  22
ENDBRANCH  12  13
ENDBRANCH  10  12
ENDBRANCH   9  10
ENDBRANCH   8   9
ENDBRANCH   1   8
TORSDOF 6
ENDMDL
MODEL      284
REMARK 921   NORMALIZED FREE ENERGY PREDICTED BY IDOCK:   -3.48 KCAL/MOL
REMARK 922        TOTAL FREE ENERGY PREDICTED BY IDOCK:   -6.12 KCAL/MOL
REMARK 923 INTER-LIGAND FREE ENERGY PREDICTED BY IDOCK:   -5.88 KCAL/MOL
REMARK 924 INTRA-LIGAND FREE ENERGY PREDICTED BY IDOCK:   -0.24 KCAL/MOL
REMARK 927      BINDING AFFINITY PREDICTED BY RF-SCORE:    0.00 PKD
ROOT
HETATM    1  CA  UNL     1     -12.078  14.211  65.296  1.00  0.00    -0.405 C  
HETATM    2  C   UNL     1     -11.841  15.466  64.372  1.00  0.00    -0.256 C  
HETATM    3  N   UNL     1     -13.533  14.176  65.688  1.00  0.00    -0.600 NA 
HETATM    4  OXT UNL     1     -10.693  15.990  64.476  1.00  0.00    -0.542 OA 
HETATM    5  H2  UNL     1     -13.784  13.327  66.195  1.00  0.00     0.000 HD 
HETATM    6  O   UNL     1     -12.826  15.796  63.655  1.00  0.00    -0.362 OA 
HETATM    7  H1  UNL     1     -13.739  15.025  66.214  1.00  0.00     0.000 HD 
ENDROOT
BRANCH   1   8
HETATM    8  C   UNL     1     -11.769  12.940  64.509  1.00  0.00    -0.416 C  
BRANCH   8   9
HETATM    9  C   UNL     1     -10.276  12.644  64.340  1.00  0.00    -0.318 C  
BRANCH   9  10
HETATM   10  S   UNL     1     -10.003  10.829  64.120  1.00  0.00    -0.355 S  
HETATM   11  C   UNL     1      -9.688  10.921  62.333  1.00  0.00    -0.025 C  
BRANCH  10  12
HETATM   12  C   UNL     1      -8.238  10.814  64.651  1.00  0.00     0.069 C  
BRANCH  12  13
HETATM   13  C   UNL     1      -8.132  10.848  66.182  1.00  0.00    -0.160 C  
HETATM   14  O   UNL     1      -7.317  11.958  66.608  1.00  0.00    -0.065 OA 
HETATM   15  C   UNL     1      -7.625  12.171  67.984  1.00  0.00    -0.123 C  
HETATM   16  C   UNL     1      -9.139  11.964  68.089  1.00  0.00    -0.190 C  
HETATM   17  H   UNL     1     -10.885   9.962  67.742  1.00  0.00     0.000 HD 
HETATM   18  O   UNL     1      -9.523  11.338  69.320  1.00  0.00    -0.406 OA 
HETATM   19  C   UNL     1      -9.473  11.064  66.889  1.00  0.00    -0.177 C  
HETATM   20  O   UNL     1     -10.053   9.829  67.303  1.00  0.00    -0.183 OA 
HETATM   21  H   UNL     1     -10.461  11.209  69.385  1.00  0.00     0.000 HD 
BRANCH  15  22
HETATM   22  N   UNL     1      -7.129  13.468  68.394  1.00  0.00    -0.097 NA 
HETATM   23  C   UNL     1      -6.497  13.765  69.573  1.00  0.00    -0.105 A  
HETATM   24  C   UNL     1      -7.061  15.630  68.699  1.00  0.00    -0.127 A  
HETATM   25  N   UNL     1      -6.447  15.065  69.794  1.00  0.00    -0.152 NA 
HETATM   26  C   UNL     1      -7.374  16.958  68.366  1.00  0.00    -0.202 A  
HETATM   27  N   UNL     1      -7.928  17.208  67.157  1.00  0.00    -0.183 NA 
HETATM   28  N   UNL     1      -7.169  18.029  69.225  1.00  0.00    -0.141 NA 
HETATM   29  H2  UNL     1      -6.188  18.010  69.504  1.00  0.00     0.000 HD 
HETATM   30  C   UNL     1      -8.204  16.161  66.352  1.00  0.00    -0.301 A  
HETATM   31  H1  UNL     1      -7.396  18.993  68.983  1.00  0.00     0.000 HD 
HETATM   32  N   UNL     1      -8.035  14.842  66.593  1.00  0.00     0.106 NA 
HETATM   33  C   UNL     1      -7.438  14.657  67.787  1.00  0.00    -0.166 A  
ENDBRANCH  15  22
ENDBRANCH  12  13
ENDBRANCH  10  12
ENDBRANCH   9  10
ENDBRANCH   8   9
ENDBRANCH   1   8
TORSDOF 6
ENDMDL
MODEL      285
REMARK 921   NORMALIZED FREE ENERGY PREDICTED BY IDOCK:   -3.47 KCAL/MOL
REMARK 922        TOTAL FREE ENERGY PREDICTED BY IDOCK:   -6.10 KCAL/MOL
REMARK 923 INTER-LIGAND FREE ENERGY PREDICTED BY IDOCK:   -5.50 KCAL/MOL
REMARK 924 INTRA-LIGAND FREE ENERGY PREDICTED BY IDOCK:   -0.60 KCAL/MOL
REMARK 927      BINDING AFFINITY PREDICTED BY RF-SCORE:    0.00 PKD
ROOT
HETATM    1  CA  UNL     1      -9.395   5.471  71.954  1.00  0.00    -0.144 C  
HETATM    2  C   UNL     1      -8.140   4.617  72.382  1.00  0.00    -0.106 C  
HETATM    3  N   UNL     1     -10.639   4.753  72.412  1.00  0.00    -0.202 NA 
HETATM    4  OXT UNL     1      -7.152   4.698  71.595  1.00  0.00    -0.057 OA 
HETATM    5  H2  UNL     1     -11.486   5.303  72.269  1.00  0.00     0.000 HD 
HETATM    6  O   UNL     1      -8.283   3.953  73.446  1.00  0.00    -0.087 OA 
HETATM    7  H1  UNL     1     -10.672   3.848  71.943  1.00  0.00     0.000 HD 
ENDROOT
BRANCH   1   8
HETATM    8  C   UNL     1      -9.345   6.826  72.656  1.00  0.00    -0.152 C  
BRANCH   8   9
HETATM    9  C   UNL     1      -9.490   8.031  71.722  1.00  0.00    -0.169 C  
BRANCH   9  10
HETATM   10  S   UNL     1      -9.359   7.494  69.958  1.00  0.00    -0.153 S  
HETATM   11  C   UNL     1     -11.145   7.566  69.627  1.00  0.00    -0.085 C  
BRANCH  10  12
HETATM   12  C   UNL     1      -8.943   9.149  69.263  1.00  0.00    -0.145 C  
BRANCH  12  13
HETATM   13  C   UNL     1      -9.770   9.431  68.001  1.00  0.00    -0.145 C  
HETATM   14  O   UNL     1     -10.243  10.792  67.998  1.00  0.00    -0.169 OA 
HETATM   15  C   UNL     1     -10.601  11.086  66.649  1.00  0.00    -0.262 C  
HETATM   16  C   UNL     1      -9.518  10.418  65.797  1.00  0.00    -0.198 C  
HETATM   17  H   UNL     1      -8.652   7.933  65.298  1.00  0.00     0.000 HD 
HETATM   18  O   UNL     1     -10.036   9.882  64.573  1.00  0.00    -0.388 OA 
HETATM   19  C   UNL     1      -8.974   9.300  66.699  1.00  0.00    -0.140 C  
HETATM   20  O   UNL     1      -9.146   8.014  66.106  1.00  0.00    -0.176 OA 
HETATM   21  H   UNL     1      -9.364   9.468  64.045  1.00  0.00     0.000 HD 
BRANCH  15  22
HETATM   22  N   UNL     1     -10.747  12.518  66.490  1.00  0.00    -0.237 NA 
HETATM   23  C   UNL     1     -11.777  13.168  65.864  1.00  0.00    -0.384 A  
HETATM   24  C   UNL     1     -10.208  14.597  66.098  1.00  0.00    -0.301 A  
HETATM   25  N   UNL     1     -11.481  14.427  65.603  1.00  0.00    -0.331 NA 
HETATM   26  C   UNL     1      -9.319  15.685  66.080  1.00  0.00    -0.349 A  
HETATM   27  N   UNL     1      -8.138  15.565  66.729  1.00  0.00    -0.238 NA 
HETATM   28  N   UNL     1      -9.578  16.871  65.407  1.00  0.00    -0.254 NA 
HETATM   29  H2  UNL     1     -10.476  17.219  65.741  1.00  0.00     0.000 HD 
HETATM   30  C   UNL     1      -7.848  14.386  67.317  1.00  0.00    -0.163 A  
HETATM   31  H1  UNL     1      -8.932  17.660  65.393  1.00  0.00     0.000 HD 
HETATM   32  N   UNL     1      -8.574  13.247  67.327  1.00  0.00    -0.204 NA 
HETATM   33  C   UNL     1      -9.756  13.438  66.709  1.00  0.00    -0.262 A  
ENDBRANCH  15  22
ENDBRANCH  12  13
ENDBRANCH  10  12
ENDBRANCH   9  10
ENDBRANCH   8   9
ENDBRANCH   1   8
TORSDOF 6
ENDMDL
MODEL      286
REMARK 921   NORMALIZED FREE ENERGY PREDICTED BY IDOCK:   -3.47 KCAL/MOL
REMARK 922        TOTAL FREE ENERGY PREDICTED BY IDOCK:   -6.10 KCAL/MOL
REMARK 923 INTER-LIGAND FREE ENERGY PREDICTED BY IDOCK:   -5.20 KCAL/MOL
REMARK 924 INTRA-LIGAND FREE ENERGY PREDICTED BY IDOCK:   -0.91 KCAL/MOL
REMARK 927      BINDING AFFINITY PREDICTED BY RF-SCORE:    0.00 PKD
ROOT
HETATM    1  CA  UNL     1      -7.769  16.884  68.058  1.00  0.00    -0.177 C  
HETATM    2  C   UNL     1      -6.686  17.657  68.903  1.00  0.00    -0.236 C  
HETATM    3  N   UNL     1      -7.450  15.412  68.105  1.00  0.00    -0.110 NA 
HETATM    4  OXT UNL     1      -6.417  18.820  68.481  1.00  0.00    -0.213 OA 
HETATM    5  H2  UNL     1      -8.175  14.838  67.674  1.00  0.00     0.000 HD 
HETATM    6  O   UNL     1      -6.214  17.016  69.882  1.00  0.00    -0.230 OA 
HETATM    7  H1  UNL     1      -6.533  15.274  67.682  1.00  0.00     0.000 HD 
ENDROOT
BRANCH   1   8
HETATM    8  C   UNL     1      -9.143  17.091  68.691  1.00  0.00    -0.271 C  
BRANCH   8   9
HETATM    9  C   UNL     1      -9.825  15.804  69.164  1.00  0.00    -0.247 C  
BRANCH   9  10
HETATM   10  S   UNL     1     -11.515  15.665  68.426  1.00  0.00    -0.348 S  
HETATM   11  C   UNL     1     -10.934  15.416  66.722  1.00  0.00    -0.282 C  
BRANCH  10  12
HETATM   12  C   UNL     1     -11.777  13.886  68.828  1.00  0.00    -0.357 C  
BRANCH  12  13
HETATM   13  C   UNL     1     -10.957  12.991  67.889  1.00  0.00    -0.241 C  
HETATM   14  O   UNL     1      -9.940  12.282  68.625  1.00  0.00    -0.200 OA 
HETATM   15  C   UNL     1      -9.540  11.191  67.798  1.00  0.00    -0.172 C  
HETATM   16  C   UNL     1     -10.836  10.677  67.165  1.00  0.00    -0.270 C  
HETATM   17  H   UNL     1     -12.712  11.595  65.488  1.00  0.00     0.000 HD 
HETATM   18  O   UNL     1     -10.647  10.229  65.816  1.00  0.00    -0.135 OA 
HETATM   19  C   UNL     1     -11.778  11.890  67.213  1.00  0.00    -0.247 C  
HETATM   20  O   UNL     1     -12.203  12.278  65.908  1.00  0.00    -0.634 OA 
HETATM   21  H   UNL     1     -11.451   9.910  65.424  1.00  0.00     0.000 HD 
BRANCH  15  22
HETATM   22  N   UNL     1      -8.793  10.235  68.589  1.00  0.00    -0.130 NA 
HETATM   23  C   UNL     1      -8.249  10.450  69.828  1.00  0.00    -0.018 A  
HETATM   24  C   UNL     1      -7.368   8.655  69.079  1.00  0.00    -0.077 A  
HETATM   25  N   UNL     1      -7.375   9.517  70.152  1.00  0.00    -0.106 NA 
HETATM   26  C   UNL     1      -6.613   7.506  68.788  1.00  0.00    -0.049 A  
HETATM   27  N   UNL     1      -6.894   6.818  67.657  1.00  0.00    -0.077 NA 
HETATM   28  N   UNL     1      -5.575   7.052  69.589  1.00  0.00    -0.015 NA 
HETATM   29  H2  UNL     1      -5.946   6.940  70.532  1.00  0.00     0.000 HD 
HETATM   30  C   UNL     1      -7.849   7.301  66.835  1.00  0.00    -0.111 A  
HETATM   31  H1  UNL     1      -5.027   6.218  69.377  1.00  0.00     0.000 HD 
HETATM   32  N   UNL     1      -8.575   8.434  66.958  1.00  0.00    -0.121 NA 
HETATM   33  C   UNL     1      -8.288   9.051  68.121  1.00  0.00    -0.121 A  
ENDBRANCH  15  22
ENDBRANCH  12  13
ENDBRANCH  10  12
ENDBRANCH   9  10
ENDBRANCH   8   9
ENDBRANCH   1   8
TORSDOF 6
ENDMDL
MODEL      287
REMARK 921   NORMALIZED FREE ENERGY PREDICTED BY IDOCK:   -3.46 KCAL/MOL
REMARK 922        TOTAL FREE ENERGY PREDICTED BY IDOCK:   -6.10 KCAL/MOL
REMARK 923 INTER-LIGAND FREE ENERGY PREDICTED BY IDOCK:   -5.70 KCAL/MOL
REMARK 924 INTRA-LIGAND FREE ENERGY PREDICTED BY IDOCK:   -0.40 KCAL/MOL
REMARK 927      BINDING AFFINITY PREDICTED BY RF-SCORE:    0.00 PKD
ROOT
HETATM    1  CA  UNL     1      -7.756  14.251  68.492  1.00  0.00    -0.137 C  
HETATM    2  C   UNL     1      -6.237  14.662  68.590  1.00  0.00    -0.086 C  
HETATM    3  N   UNL     1      -8.526  15.019  69.536  1.00  0.00    -0.424 NA 
HETATM    4  OXT UNL     1      -5.420  13.742  68.291  1.00  0.00    -0.092 OA 
HETATM    5  H2  UNL     1      -9.535  14.889  69.456  1.00  0.00     0.000 HD 
HETATM    6  O   UNL     1      -6.027  15.849  68.966  1.00  0.00    -0.111 OA 
HETATM    7  H1  UNL     1      -8.165  14.755  70.452  1.00  0.00     0.000 HD 
ENDROOT
BRANCH   1   8
HETATM    8  C   UNL     1      -8.297  14.646  67.120  1.00  0.00    -0.236 C  
BRANCH   8   9
HETATM    9  C   UNL     1      -9.318  15.787  67.143  1.00  0.00    -0.213 C  
BRANCH   9  10
HETATM   10  S   UNL     1     -10.979  15.171  66.612  1.00  0.00    -0.297 S  
HETATM   11  C   UNL     1     -10.867  15.824  64.920  1.00  0.00    -0.413 C  
BRANCH  10  12
HETATM   12  C   UNL     1     -10.450  13.451  66.217  1.00  0.00    -0.289 C  
BRANCH  12  13
HETATM   13  C   UNL     1     -11.234  12.435  67.060  1.00  0.00    -0.303 C  
HETATM   14  O   UNL     1     -10.690  11.111  66.892  1.00  0.00    -0.249 OA 
HETATM   15  C   UNL     1     -11.164  10.344  67.998  1.00  0.00    -0.272 C  
HETATM   16  C   UNL     1     -11.092  11.293  69.198  1.00  0.00    -0.253 C  
HETATM   17  H   UNL     1     -12.235  13.589  69.969  1.00  0.00     0.000 HD 
HETATM   18  O   UNL     1     -12.173  11.097  70.117  1.00  0.00    -0.308 OA 
HETATM   19  C   UNL     1     -11.155  12.693  68.567  1.00  0.00    -0.266 C  
HETATM   20  O   UNL     1     -12.284  13.429  69.034  1.00  0.00    -0.295 OA 
HETATM   21  H   UNL     1     -12.129  11.685  70.862  1.00  0.00     0.000 HD 
BRANCH  15  22
HETATM   22  N   UNL     1     -10.393   9.123  68.103  1.00  0.00    -0.207 NA 
HETATM   23  C   UNL     1     -10.719   7.904  67.570  1.00  0.00    -0.181 A  
HETATM   24  C   UNL     1      -9.160   7.551  68.986  1.00  0.00    -0.140 A  
HETATM   25  N   UNL     1      -9.999   6.928  68.090  1.00  0.00    -0.150 NA 
HETATM   26  C   UNL     1      -8.203   7.061  69.890  1.00  0.00    -0.130 A  
HETATM   27  N   UNL     1      -7.471   7.950  70.601  1.00  0.00    -0.068 NA 
HETATM   28  N   UNL     1      -7.986   5.709  70.112  1.00  0.00    -0.097 NA 
HETATM   29  H2  UNL     1      -7.795   5.280  69.207  1.00  0.00     0.000 HD 
HETATM   30  C   UNL     1      -7.735   9.264  70.447  1.00  0.00    -0.143 A  
HETATM   31  H1  UNL     1      -7.290   5.353  70.769  1.00  0.00     0.000 HD 
HETATM   32  N   UNL     1      -8.682   9.851  69.683  1.00  0.00    -0.192 NA 
HETATM   33  C   UNL     1      -9.347   8.925  68.965  1.00  0.00    -0.144 A  
ENDBRANCH  15  22
ENDBRANCH  12  13
ENDBRANCH  10  12
ENDBRANCH   9  10
ENDBRANCH   8   9
ENDBRANCH   1   8
TORSDOF 6
ENDMDL
MODEL      288
REMARK 921   NORMALIZED FREE ENERGY PREDICTED BY IDOCK:   -3.45 KCAL/MOL
REMARK 922        TOTAL FREE ENERGY PREDICTED BY IDOCK:   -6.08 KCAL/MOL
REMARK 923 INTER-LIGAND FREE ENERGY PREDICTED BY IDOCK:   -5.61 KCAL/MOL
REMARK 924 INTRA-LIGAND FREE ENERGY PREDICTED BY IDOCK:   -0.47 KCAL/MOL
REMARK 927      BINDING AFFINITY PREDICTED BY RF-SCORE:    0.00 PKD
ROOT
HETATM    1  CA  UNL     1      -8.372   4.043  68.820  1.00  0.00    -0.078 C  
HETATM    2  C   UNL     1      -8.270   5.218  67.773  1.00  0.00    -0.099 C  
HETATM    3  N   UNL     1      -7.239   4.182  69.804  1.00  0.00    -0.048 NA 
HETATM    4  OXT UNL     1      -8.679   4.927  66.611  1.00  0.00    -0.110 OA 
HETATM    5  H2  UNL     1      -7.306   3.521  70.578  1.00  0.00     0.000 HD 
HETATM    6  O   UNL     1      -7.784   6.293  68.222  1.00  0.00    -0.100 OA 
HETATM    7  H1  UNL     1      -6.362   4.099  69.290  1.00  0.00     0.000 HD 
ENDROOT
BRANCH   1   8
HETATM    8  C   UNL     1      -9.685   4.167  69.590  1.00  0.00    -0.269 C  
BRANCH   8   9
HETATM    9  C   UNL     1      -9.757   5.371  70.533  1.00  0.00    -0.185 C  
BRANCH   9  10
HETATM   10  S   UNL     1     -11.491   5.618  71.125  1.00  0.00     0.352 S  
HETATM   11  C   UNL     1     -11.022   6.267  72.757  1.00  0.00    -0.260 C  
BRANCH  10  12
HETATM   12  C   UNL     1     -11.763   7.249  70.313  1.00  0.00    -0.126 C  
BRANCH  12  13
HETATM   13  C   UNL     1     -10.426   7.872  69.887  1.00  0.00    -0.229 C  
HETATM   14  O   UNL     1     -10.405   8.105  68.465  1.00  0.00    -0.205 OA 
HETATM   15  C   UNL     1      -9.363   9.049  68.232  1.00  0.00    -0.139 C  
HETATM   16  C   UNL     1      -9.464  10.045  69.391  1.00  0.00    -0.223 C  
HETATM   17  H   UNL     1      -9.185  10.007  72.054  1.00  0.00     0.000 HD 
HETATM   18  O   UNL     1      -8.180  10.513  69.825  1.00  0.00    -0.361 OA 
HETATM   19  C   UNL     1     -10.162   9.248  70.503  1.00  0.00    -0.251 C  
HETATM   20  O   UNL     1      -9.350   9.153  71.672  1.00  0.00    -0.302 OA 
HETATM   21  H   UNL     1      -8.243  11.131  70.543  1.00  0.00     0.000 HD 
BRANCH  15  22
HETATM   22  N   UNL     1      -9.502   9.603  66.900  1.00  0.00    -0.148 NA 
HETATM   23  C   UNL     1      -8.737   9.298  65.806  1.00  0.00    -0.156 A  
HETATM   24  C   UNL     1      -9.810  11.078  65.321  1.00  0.00    -0.259 A  
HETATM   25  N   UNL     1      -8.891  10.176  64.834  1.00  0.00    -0.175 NA 
HETATM   26  C   UNL     1     -10.345  12.267  64.795  1.00  0.00    -0.291 A  
HETATM   27  N   UNL     1     -11.306  12.909  65.499  1.00  0.00    -0.299 NA 
HETATM   28  N   UNL     1      -9.920  12.832  63.601  1.00  0.00    -0.715 NA 
HETATM   29  H2  UNL     1     -10.006  12.116  62.880  1.00  0.00     0.000 HD 
HETATM   30  C   UNL     1     -11.665  12.406  66.698  1.00  0.00    -0.372 A  
HETATM   31  H1  UNL     1     -10.309  13.695  63.220  1.00  0.00     0.000 HD 
HETATM   32  N   UNL     1     -11.165  11.331  67.347  1.00  0.00    -0.336 NA 
HETATM   33  C   UNL     1     -10.249  10.706  66.582  1.00  0.00    -0.231 A  
ENDBRANCH  15  22
ENDBRANCH  12  13
ENDBRANCH  10  12
ENDBRANCH   9  10
ENDBRANCH   8   9
ENDBRANCH   1   8
TORSDOF 6
ENDMDL
MODEL      289
REMARK 921   NORMALIZED FREE ENERGY PREDICTED BY IDOCK:   -3.44 KCAL/MOL
REMARK 922        TOTAL FREE ENERGY PREDICTED BY IDOCK:   -6.07 KCAL/MOL
REMARK 923 INTER-LIGAND FREE ENERGY PREDICTED BY IDOCK:   -5.36 KCAL/MOL
REMARK 924 INTRA-LIGAND FREE ENERGY PREDICTED BY IDOCK:   -0.71 KCAL/MOL
REMARK 927      BINDING AFFINITY PREDICTED BY RF-SCORE:    0.00 PKD
ROOT
HETATM    1  CA  UNL     1      -9.926   6.308  70.610  1.00  0.00    -0.186 C  
HETATM    2  C   UNL     1      -9.497   5.553  69.294  1.00  0.00    -0.129 C  
HETATM    3  N   UNL     1      -8.852   7.307  70.958  1.00  0.00    -0.143 NA 
HETATM    4  OXT UNL     1      -9.890   4.352  69.222  1.00  0.00    -0.194 OA 
HETATM    5  H2  UNL     1      -9.114   7.912  71.736  1.00  0.00     0.000 HD 
HETATM    6  O   UNL     1      -8.807   6.235  68.487  1.00  0.00    -0.116 OA 
HETATM    7  H1  UNL     1      -7.988   6.794  71.132  1.00  0.00     0.000 HD 
ENDROOT
BRANCH   1   8
HETATM    8  C   UNL     1     -11.220   7.076  70.351  1.00  0.00    -0.339 C  
BRANCH   8   9
HETATM    9  C   UNL     1     -11.328   8.409  71.097  1.00  0.00    -0.268 C  
BRANCH   9  10
HETATM   10  S   UNL     1     -11.729   9.774  69.916  1.00  0.00     0.068 S  
HETATM   11  C   UNL     1     -12.276  10.946  71.193  1.00  0.00    -0.336 C  
BRANCH  10  12
HETATM   12  C   UNL     1     -10.012  10.421  69.750  1.00  0.00    -0.124 C  
BRANCH  12  13
HETATM   13  C   UNL     1      -9.713  10.797  68.292  1.00  0.00    -0.164 C  
HETATM   14  O   UNL     1      -9.495  12.216  68.169  1.00  0.00    -0.194 OA 
HETATM   15  C   UNL     1      -8.815  12.409  66.930  1.00  0.00    -0.205 C  
HETATM   16  C   UNL     1      -7.819  11.249  66.841  1.00  0.00    -0.156 C  
HETATM   17  H   UNL     1      -7.912   8.577  66.672  1.00  0.00     0.000 HD 
HETATM   18  O   UNL     1      -7.656  10.768  65.501  1.00  0.00    -0.294 OA 
HETATM   19  C   UNL     1      -8.431  10.165  67.742  1.00  0.00    -0.114 C  
HETATM   20  O   UNL     1      -8.706   8.970  67.014  1.00  0.00    -0.115 OA 
HETATM   21  H   UNL     1      -7.038  10.049  65.445  1.00  0.00     0.000 HD 
BRANCH  15  22
HETATM   22  N   UNL     1      -8.248  13.741  66.893  1.00  0.00    -0.030 NA 
HETATM   23  C   UNL     1      -7.153  14.181  67.588  1.00  0.00    -0.183 A  
HETATM   24  C   UNL     1      -8.151  15.922  66.859  1.00  0.00    -0.250 A  
HETATM   25  N   UNL     1      -7.069  15.498  67.596  1.00  0.00    -0.157 NA 
HETATM   26  C   UNL     1      -8.648  17.200  66.550  1.00  0.00    -0.271 A  
HETATM   27  N   UNL     1      -9.715  17.295  65.723  1.00  0.00    -0.544 NA 
HETATM   28  N   UNL     1      -8.116  18.371  67.069  1.00  0.00    -0.226 NA 
HETATM   29  H2  UNL     1      -7.119  18.374  66.854  1.00  0.00     0.000 HD 
HETATM   30  C   UNL     1     -10.285  16.155  65.280  1.00  0.00    -0.170 A  
HETATM   31  H1  UNL     1      -8.478  19.298  66.845  1.00  0.00     0.000 HD 
HETATM   32  N   UNL     1      -9.958  14.878  65.575  1.00  0.00    -0.359 NA 
HETATM   33  C   UNL     1      -8.864  14.843  66.361  1.00  0.00    -0.161 A  
ENDBRANCH  15  22
ENDBRANCH  12  13
ENDBRANCH  10  12
ENDBRANCH   9  10
ENDBRANCH   8   9
ENDBRANCH   1   8
TORSDOF 6
ENDMDL
MODEL      290
REMARK 921   NORMALIZED FREE ENERGY PREDICTED BY IDOCK:   -3.42 KCAL/MOL
REMARK 922        TOTAL FREE ENERGY PREDICTED BY IDOCK:   -6.04 KCAL/MOL
REMARK 923 INTER-LIGAND FREE ENERGY PREDICTED BY IDOCK:   -5.46 KCAL/MOL
REMARK 924 INTRA-LIGAND FREE ENERGY PREDICTED BY IDOCK:   -0.58 KCAL/MOL
REMARK 927      BINDING AFFINITY PREDICTED BY RF-SCORE:    0.00 PKD
ROOT
HETATM    1  CA  UNL     1     -10.112  13.403  66.538  1.00  0.00    -0.280 C  
HETATM    2  C   UNL     1     -11.230  12.292  66.519  1.00  0.00    -0.324 C  
HETATM    3  N   UNL     1     -10.742  14.708  66.952  1.00  0.00    -0.289 NA 
HETATM    4  OXT UNL     1     -11.062  11.387  65.650  1.00  0.00    -0.243 OA 
HETATM    5  H2  UNL     1     -10.055  15.449  67.096  1.00  0.00     0.000 HD 
HETATM    6  O   UNL     1     -12.156  12.452  67.362  1.00  0.00    -0.505 OA 
HETATM    7  H1  UNL     1     -11.446  14.953  66.257  1.00  0.00     0.000 HD 
ENDROOT
BRANCH   1   8
HETATM    8  C   UNL     1      -9.056  13.036  67.578  1.00  0.00    -0.191 C  
BRANCH   8   9
HETATM    9  C   UNL     1      -8.098  11.921  67.146  1.00  0.00    -0.172 C  
BRANCH   9  10
HETATM   10  S   UNL     1      -6.351  12.395  67.523  1.00  0.00    -0.157 S  
HETATM   11  C   UNL     1      -6.646  14.188  67.462  1.00  0.00    -0.076 C  
BRANCH  10  12
HETATM   12  C   UNL     1      -6.474  12.218  69.353  1.00  0.00    -0.105 C  
BRANCH  12  13
HETATM   13  C   UNL     1      -6.662  10.746  69.744  1.00  0.00    -0.139 C  
HETATM   14  O   UNL     1      -7.990  10.524  70.259  1.00  0.00     0.034 OA 
HETATM   15  C   UNL     1      -8.217   9.118  70.180  1.00  0.00    -0.155 C  
HETATM   16  C   UNL     1      -7.593   8.690  68.848  1.00  0.00    -0.092 C  
HETATM   17  H   UNL     1      -5.153   8.619  67.745  1.00  0.00     0.000 HD 
HETATM   18  O   UNL     1      -6.985   7.394  68.919  1.00  0.00    -0.072 OA 
HETATM   19  C   UNL     1      -6.541   9.774  68.567  1.00  0.00    -0.051 C  
HETATM   20  O   UNL     1      -5.228   9.222  68.476  1.00  0.00    -0.034 OA 
HETATM   21  H   UNL     1      -6.598   7.128  68.093  1.00  0.00     0.000 HD 
BRANCH  15  22
HETATM   22  N   UNL     1      -9.631   8.848  70.338  1.00  0.00    -0.181 NA 
HETATM   23  C   UNL     1     -10.642   9.772  70.340  1.00  0.00    -0.304 A  
HETATM   24  C   UNL     1     -11.470   7.962  71.112  1.00  0.00    -0.273 A  
HETATM   25  N   UNL     1     -11.768   9.272  70.812  1.00  0.00    -0.280 NA 
HETATM   26  C   UNL     1     -12.220   6.927  71.695  1.00  0.00    -0.361 A  
HETATM   27  N   UNL     1     -11.659   5.699  71.794  1.00  0.00    -0.070 NA 
HETATM   28  N   UNL     1     -13.500   7.103  72.200  1.00  0.00    -0.535 NA 
HETATM   29  H2  UNL     1     -14.068   7.505  71.454  1.00  0.00     0.000 HD 
HETATM   30  C   UNL     1     -10.385   5.543  71.378  1.00  0.00    -0.229 A  
HETATM   31  H1  UNL     1     -14.045   6.351  72.624  1.00  0.00     0.000 HD 
HETATM   32  N   UNL     1      -9.537   6.473  70.887  1.00  0.00    -0.175 NA 
HETATM   33  C   UNL     1     -10.162   7.661  70.767  1.00  0.00    -0.201 A  
ENDBRANCH  15  22
ENDBRANCH  12  13
ENDBRANCH  10  12
ENDBRANCH   9  10
ENDBRANCH   8   9
ENDBRANCH   1   8
TORSDOF 6
ENDMDL
MODEL      291
REMARK 921   NORMALIZED FREE ENERGY PREDICTED BY IDOCK:   -3.41 KCAL/MOL
REMARK 922        TOTAL FREE ENERGY PREDICTED BY IDOCK:   -6.03 KCAL/MOL
REMARK 923 INTER-LIGAND FREE ENERGY PREDICTED BY IDOCK:   -4.78 KCAL/MOL
REMARK 924 INTRA-LIGAND FREE ENERGY PREDICTED BY IDOCK:   -1.25 KCAL/MOL
REMARK 927      BINDING AFFINITY PREDICTED BY RF-SCORE:    0.00 PKD
ROOT
HETATM    1  CA  UNL     1     -11.884   6.973  70.940  1.00  0.00    -0.356 C  
HETATM    2  C   UNL     1     -12.908   7.927  71.664  1.00  0.00    -0.334 C  
HETATM    3  N   UNL     1     -10.637   7.760  70.627  1.00  0.00    -0.218 NA 
HETATM    4  OXT UNL     1     -14.126   7.671  71.432  1.00  0.00    -0.399 OA 
HETATM    5  H2  UNL     1      -9.886   7.177  70.259  1.00  0.00     0.000 HD 
HETATM    6  O   UNL     1     -12.386   8.833  72.373  1.00  0.00    -0.378 OA 
HETATM    7  H1  UNL     1     -10.894   8.519  69.996  1.00  0.00     0.000 HD 
ENDROOT
BRANCH   1   8
HETATM    8  C   UNL     1     -11.501   5.836  71.884  1.00  0.00    -0.231 C  
BRANCH   8   9
HETATM    9  C   UNL     1     -10.182   6.050  72.634  1.00  0.00    -0.183 C  
BRANCH   9  10
HETATM   10  S   UNL     1      -9.044   4.621  72.348  1.00  0.00    -0.126 S  
HETATM   11  C   UNL     1      -9.971   3.455  73.389  1.00  0.00    -0.116 C  
BRANCH  10  12
HETATM   12  C   UNL     1      -9.766   4.094  70.737  1.00  0.00    -0.196 C  
BRANCH  12  13
HETATM   13  C   UNL     1      -8.869   4.533  69.571  1.00  0.00    -0.088 C  
HETATM   14  O   UNL     1      -9.502   5.581  68.811  1.00  0.00    -0.121 OA 
HETATM   15  C   UNL     1      -8.465   6.209  68.060  1.00  0.00    -0.116 C  
HETATM   16  C   UNL     1      -7.267   6.270  69.012  1.00  0.00    -0.083 C  
HETATM   17  H   UNL     1      -5.658   4.537  70.271  1.00  0.00     0.000 HD 
HETATM   18  O   UNL     1      -6.019   6.073  68.335  1.00  0.00    -0.018 OA 
HETATM   19  C   UNL     1      -7.532   5.135  70.013  1.00  0.00    -0.063 C  
HETATM   20  O   UNL     1      -6.488   4.164  69.997  1.00  0.00    -0.030 OA 
HETATM   21  H   UNL     1      -5.276   6.110  68.925  1.00  0.00     0.000 HD 
BRANCH  15  22
HETATM   22  N   UNL     1      -8.940   7.479  67.551  1.00  0.00    -0.126 NA 
HETATM   23  C   UNL     1     -10.235   7.800  67.238  1.00  0.00    -0.273 A  
HETATM   24  C   UNL     1      -9.006   9.313  66.366  1.00  0.00    -0.154 A  
HETATM   25  N   UNL     1     -10.311   8.899  66.513  1.00  0.00    -0.250 NA 
HETATM   26  C   UNL     1      -8.420  10.376  65.658  1.00  0.00    -0.165 A  
HETATM   27  N   UNL     1      -7.085  10.567  65.769  1.00  0.00    -0.135 NA 
HETATM   28  N   UNL     1      -9.136  11.225  64.828  1.00  0.00    -0.382 NA 
HETATM   29  H2  UNL     1      -9.901  11.614  65.379  1.00  0.00     0.000 HD 
HETATM   30  C   UNL     1      -6.373   9.694  66.511  1.00  0.00    -0.066 A  
HETATM   31  H1  UNL     1      -8.710  11.997  64.314  1.00  0.00     0.000 HD 
HETATM   32  N   UNL     1      -6.803   8.591  67.161  1.00  0.00    -0.066 NA 
HETATM   33  C   UNL     1      -8.142   8.476  67.056  1.00  0.00    -0.103 A  
ENDBRANCH  15  22
ENDBRANCH  12  13
ENDBRANCH  10  12
ENDBRANCH   9  10
ENDBRANCH   8   9
ENDBRANCH   1   8
TORSDOF 6
ENDMDL
MODEL      292
REMARK 921   NORMALIZED FREE ENERGY PREDICTED BY IDOCK:   -3.41 KCAL/MOL
REMARK 922        TOTAL FREE ENERGY PREDICTED BY IDOCK:   -6.02 KCAL/MOL
REMARK 923 INTER-LIGAND FREE ENERGY PREDICTED BY IDOCK:   -5.63 KCAL/MOL
REMARK 924 INTRA-LIGAND FREE ENERGY PREDICTED BY IDOCK:   -0.40 KCAL/MOL
REMARK 927      BINDING AFFINITY PREDICTED BY RF-SCORE:    0.00 PKD
ROOT
HETATM    1  CA  UNL     1      -6.032   5.231  69.440  1.00  0.00    -0.021 C  
HETATM    2  C   UNL     1      -6.651   3.980  70.171  1.00  0.00    -0.033 C  
HETATM    3  N   UNL     1      -6.118   5.005  67.952  1.00  0.00    -0.026 NA 
HETATM    4  OXT UNL     1      -6.125   3.706  71.290  1.00  0.00    -0.013 OA 
HETATM    5  H2  UNL     1      -5.838   5.824  67.412  1.00  0.00     0.000 HD 
HETATM    6  O   UNL     1      -7.584   3.402  69.546  1.00  0.00    -0.048 OA 
HETATM    7  H1  UNL     1      -5.567   4.177  67.726  1.00  0.00     0.000 HD 
ENDROOT
BRANCH   1   8
HETATM    8  C   UNL     1      -6.855   6.471  69.778  1.00  0.00    -0.058 C  
BRANCH   8   9
HETATM    9  C   UNL     1      -6.036   7.655  70.300  1.00  0.00    -0.026 C  
BRANCH   9  10
HETATM   10  S   UNL     1      -7.158   8.978  70.941  1.00  0.00    -0.104 S  
HETATM   11  C   UNL     1      -6.292  10.347  70.117  1.00  0.00    -0.123 C  
BRANCH  10  12
HETATM   12  C   UNL     1      -8.481   8.765  69.676  1.00  0.00    -0.129 C  
BRANCH  12  13
HETATM   13  C   UNL     1      -9.655   9.713  69.955  1.00  0.00    -0.243 C  
HETATM   14  O   UNL     1      -9.711  10.757  68.963  1.00  0.00    -0.197 OA 
HETATM   15  C   UNL     1     -11.027  11.301  69.032  1.00  0.00    -0.236 C  
HETATM   16  C   UNL     1     -11.945  10.092  69.242  1.00  0.00     0.167 C  
HETATM   17  H   UNL     1     -12.343   8.219  71.115  1.00  0.00     0.000 HD 
HETATM   18  O   UNL     1     -13.053  10.389  70.102  1.00  0.00    -0.518 OA 
HETATM   19  C   UNL     1     -11.027   9.036  69.875  1.00  0.00    -0.193 C  
HETATM   20  O   UNL     1     -11.492   8.639  71.164  1.00  0.00    -0.262 OA 
HETATM   21  H   UNL     1     -13.622   9.640  70.232  1.00  0.00     0.000 HD 
BRANCH  15  22
HETATM   22  N   UNL     1     -11.282  12.098  67.850  1.00  0.00    -0.252 NA 
HETATM   23  C   UNL     1     -12.130  13.170  67.756  1.00  0.00    -0.215 A  
HETATM   24  C   UNL     1     -11.661  12.588  65.756  1.00  0.00    -0.426 A  
HETATM   25  N   UNL     1     -12.388  13.487  66.502  1.00  0.00    -0.369 NA 
HETATM   26  C   UNL     1     -11.557  12.366  64.372  1.00  0.00    -0.354 A  
HETATM   27  N   UNL     1     -10.683  11.431  63.932  1.00  0.00    -0.375 NA 
HETATM   28  N   UNL     1     -12.325  13.037  63.432  1.00  0.00    -0.731 NA 
HETATM   29  H2  UNL     1     -12.192  14.036  63.589  1.00  0.00     0.000 HD 
HETATM   30  C   UNL     1      -9.993  10.719  64.847  1.00  0.00    -0.312 A  
HETATM   31  H1  UNL     1     -12.249  12.875  62.428  1.00  0.00     0.000 HD 
HETATM   32  N   UNL     1     -10.070  10.777  66.195  1.00  0.00    -0.234 NA 
HETATM   33  C   UNL     1     -10.917  11.753  66.575  1.00  0.00    -0.295 A  
ENDBRANCH  15  22
ENDBRANCH  12  13
ENDBRANCH  10  12
ENDBRANCH   9  10
ENDBRANCH   8   9
ENDBRANCH   1   8
TORSDOF 6
ENDMDL
MODEL      293
REMARK 921   NORMALIZED FREE ENERGY PREDICTED BY IDOCK:   -3.40 KCAL/MOL
REMARK 922        TOTAL FREE ENERGY PREDICTED BY IDOCK:   -6.02 KCAL/MOL
REMARK 923 INTER-LIGAND FREE ENERGY PREDICTED BY IDOCK:   -5.24 KCAL/MOL
REMARK 924 INTRA-LIGAND FREE ENERGY PREDICTED BY IDOCK:   -0.78 KCAL/MOL
REMARK 927      BINDING AFFINITY PREDICTED BY RF-SCORE:    0.00 PKD
ROOT
HETATM    1  CA  UNL     1     -12.270   8.698  71.391  1.00  0.00    -0.304 C  
HETATM    2  C   UNL     1     -12.409  10.264  71.287  1.00  0.00    -0.403 C  
HETATM    3  N   UNL     1     -11.643   8.189  70.119  1.00  0.00    -0.468 NA 
HETATM    4  OXT UNL     1     -13.408  10.748  71.896  1.00  0.00    -0.427 OA 
HETATM    5  H2  UNL     1     -11.418   7.195  70.160  1.00  0.00     0.000 HD 
HETATM    6  O   UNL     1     -11.516  10.836  70.602  1.00  0.00    -0.325 OA 
HETATM    7  H1  UNL     1     -12.266   8.420  69.345  1.00  0.00     0.000 HD 
ENDROOT
BRANCH   1   8
HETATM    8  C   UNL     1     -11.338   8.351  72.550  1.00  0.00    -0.416 C  
BRANCH   8   9
HETATM    9  C   UNL     1     -10.780   6.925  72.511  1.00  0.00    -0.232 C  
BRANCH   9  10
HETATM   10  S   UNL     1      -9.511   6.697  73.837  1.00  0.00    -0.212 S  
HETATM   11  C   UNL     1      -9.013   5.030  73.309  1.00  0.00    -0.119 C  
BRANCH  10  12
HETATM   12  C   UNL     1      -8.153   7.608  72.989  1.00  0.00    -0.117 C  
BRANCH  12  13
HETATM   13  C   UNL     1      -8.339   7.565  71.467  1.00  0.00    -0.107 C  
HETATM   14  O   UNL     1      -8.529   8.894  70.942  1.00  0.00    -0.152 OA 
HETATM   15  C   UNL     1      -8.258   8.812  69.544  1.00  0.00    -0.111 C  
HETATM   16  C   UNL     1      -7.054   7.872  69.429  1.00  0.00    -0.064 C  
HETATM   17  H   UNL     1      -6.501   5.303  69.949  1.00  0.00     0.000 HD 
HETATM   18  O   UNL     1      -7.119   7.040  68.264  1.00  0.00    -0.077 OA 
HETATM   19  C   UNL     1      -7.121   7.027  70.711  1.00  0.00    -0.067 C  
HETATM   20  O   UNL     1      -7.257   5.638  70.418  1.00  0.00    -0.066 OA 
HETATM   21  H   UNL     1      -6.373   6.456  68.192  1.00  0.00     0.000 HD 
BRANCH  15  22
HETATM   22  N   UNL     1      -8.079  10.146  69.009  1.00  0.00    -0.115 NA 
HETATM   23  C   UNL     1      -8.638  10.648  67.864  1.00  0.00    -0.124 A  
HETATM   24  C   UNL     1      -7.081  11.997  68.421  1.00  0.00    -0.084 A  
HETATM   25  N   UNL     1      -8.052  11.763  67.474  1.00  0.00    -0.143 NA 
HETATM   26  C   UNL     1      -6.089  12.986  68.540  1.00  0.00    -0.076 A  
HETATM   27  N   UNL     1      -5.313  12.991  69.649  1.00  0.00    -0.083 NA 
HETATM   28  N   UNL     1      -5.846  13.944  67.567  1.00  0.00    -0.353 NA 
HETATM   29  H2  UNL     1      -6.728  14.421  67.384  1.00  0.00     0.000 HD 
HETATM   30  C   UNL     1      -5.492  12.013  70.560  1.00  0.00    -0.156 A  
HETATM   31  H1  UNL     1      -5.126  14.661  67.654  1.00  0.00     0.000 HD 
HETATM   32  N   UNL     1      -6.343  10.964  70.517  1.00  0.00    -0.314 NA 
HETATM   33  C   UNL     1      -7.121  11.036  69.419  1.00  0.00    -0.128 A  
ENDBRANCH  15  22
ENDBRANCH  12  13
ENDBRANCH  10  12
ENDBRANCH   9  10
ENDBRANCH   8   9
ENDBRANCH   1   8
TORSDOF 6
ENDMDL
MODEL      294
REMARK 921   NORMALIZED FREE ENERGY PREDICTED BY IDOCK:   -3.40 KCAL/MOL
REMARK 922        TOTAL FREE ENERGY PREDICTED BY IDOCK:   -6.01 KCAL/MOL
REMARK 923 INTER-LIGAND FREE ENERGY PREDICTED BY IDOCK:   -5.95 KCAL/MOL
REMARK 924 INTRA-LIGAND FREE ENERGY PREDICTED BY IDOCK:   -0.06 KCAL/MOL
REMARK 927      BINDING AFFINITY PREDICTED BY RF-SCORE:    0.00 PKD
ROOT
HETATM    1  CA  UNL     1     -10.281   7.864  72.510  1.00  0.00    -0.278 C  
HETATM    2  C   UNL     1     -11.581   7.023  72.216  1.00  0.00    -0.269 C  
HETATM    3  N   UNL     1      -9.840   7.582  73.924  1.00  0.00    -0.389 NA 
HETATM    4  OXT UNL     1     -12.394   7.568  71.413  1.00  0.00    -0.320 OA 
HETATM    5  H2  UNL     1      -8.940   8.006  74.147  1.00  0.00     0.000 HD 
HETATM    6  O   UNL     1     -11.654   5.920  72.826  1.00  0.00    -0.266 OA 
HETATM    7  H1  UNL     1     -10.585   7.883  74.552  1.00  0.00     0.000 HD 
ENDROOT
BRANCH   1   8
HETATM    8  C   UNL     1      -9.167   7.414  71.568  1.00  0.00    -0.149 C  
BRANCH   8   9
HETATM    9  C   UNL     1      -9.535   6.231  70.668  1.00  0.00    -0.168 C  
BRANCH   9  10
HETATM   10  S   UNL     1      -8.724   6.407  69.015  1.00  0.00    -0.123 S  
HETATM   11  C   UNL     1      -8.246   4.659  68.875  1.00  0.00    -0.081 C  
BRANCH  10  12
HETATM   12  C   UNL     1     -10.264   6.293  68.010  1.00  0.00    -0.172 C  
BRANCH  12  13
HETATM   13  C   UNL     1     -10.248   7.324  66.873  1.00  0.00    -0.269 C  
HETATM   14  O   UNL     1     -10.890   8.546  67.288  1.00  0.00    -0.216 OA 
HETATM   15  C   UNL     1     -10.455   9.553  66.377  1.00  0.00    -0.098 C  
HETATM   16  C   UNL     1      -8.973   9.253  66.134  1.00  0.00    -0.165 C  
HETATM   17  H   UNL     1      -7.508   7.284  65.060  1.00  0.00     0.000 HD 
HETATM   18  O   UNL     1      -8.572   9.527  64.785  1.00  0.00    -0.153 OA 
HETATM   19  C   UNL     1      -8.841   7.756  66.452  1.00  0.00    -0.155 C  
HETATM   20  O   UNL     1      -8.381   7.016  65.322  1.00  0.00    -0.136 OA 
HETATM   21  H   UNL     1      -7.653   9.341  64.633  1.00  0.00     0.000 HD 
BRANCH  15  22
HETATM   22  N   UNL     1     -10.761  10.860  66.920  1.00  0.00    -0.265 NA 
HETATM   23  C   UNL     1     -10.355  12.068  66.417  1.00  0.00    -0.216 A  
HETATM   24  C   UNL     1     -11.071  12.441  68.394  1.00  0.00    -0.250 A  
HETATM   25  N   UNL     1     -10.519  13.046  67.287  1.00  0.00    -0.238 NA 
HETATM   26  C   UNL     1     -11.422  12.926  69.665  1.00  0.00    -0.181 A  
HETATM   27  N   UNL     1     -12.024  12.081  70.534  1.00  0.00    -0.319 NA 
HETATM   28  N   UNL     1     -11.160  14.221  70.087  1.00  0.00    -0.471 NA 
HETATM   29  H2  UNL     1     -11.570  14.853  69.398  1.00  0.00     0.000 HD 
HETATM   30  C   UNL     1     -12.207  10.799  70.158  1.00  0.00    -0.346 A  
HETATM   31  H1  UNL     1     -11.416  14.573  71.010  1.00  0.00     0.000 HD 
HETATM   32  N   UNL     1     -11.835  10.195  69.008  1.00  0.00     0.046 NA 
HETATM   33  C   UNL     1     -11.286  11.091  68.164  1.00  0.00    -0.302 A  
ENDBRANCH  15  22
ENDBRANCH  12  13
ENDBRANCH  10  12
ENDBRANCH   9  10
ENDBRANCH   8   9
ENDBRANCH   1   8
TORSDOF 6
ENDMDL
MODEL      295
REMARK 921   NORMALIZED FREE ENERGY PREDICTED BY IDOCK:   -3.37 KCAL/MOL
REMARK 922        TOTAL FREE ENERGY PREDICTED BY IDOCK:   -5.97 KCAL/MOL
REMARK 923 INTER-LIGAND FREE ENERGY PREDICTED BY IDOCK:   -5.12 KCAL/MOL
REMARK 924 INTRA-LIGAND FREE ENERGY PREDICTED BY IDOCK:   -0.85 KCAL/MOL
REMARK 927      BINDING AFFINITY PREDICTED BY RF-SCORE:    0.00 PKD
ROOT
HETATM    1  CA  UNL     1     -12.309   8.668  71.488  1.00  0.00    -0.324 C  
HETATM    2  C   UNL     1     -12.192  10.239  71.438  1.00  0.00    -0.383 C  
HETATM    3  N   UNL     1     -11.785   8.108  70.191  1.00  0.00    -0.458 NA 
HETATM    4  OXT UNL     1     -13.094  10.857  72.077  1.00  0.00    -0.491 OA 
HETATM    5  H2  UNL     1     -11.724   7.090  70.197  1.00  0.00     0.000 HD 
HETATM    6  O   UNL     1     -11.225  10.682  70.759  1.00  0.00    -0.246 OA 
HETATM    7  H1  UNL     1     -12.369   8.465  69.435  1.00  0.00     0.000 HD 
ENDROOT
BRANCH   1   8
HETATM    8  C   UNL     1     -11.435   8.134  72.621  1.00  0.00    -0.454 C  
BRANCH   8   9
HETATM    9  C   UNL     1     -11.245   6.614  72.616  1.00  0.00    -0.249 C  
BRANCH   9  10
HETATM   10  S   UNL     1      -9.886   6.133  73.773  1.00  0.00    -0.215 S  
HETATM   11  C   UNL     1     -10.165   4.343  73.627  1.00  0.00    -0.166 C  
BRANCH  10  12
HETATM   12  C   UNL     1      -8.515   6.240  72.546  1.00  0.00    -0.120 C  
BRANCH  12  13
HETATM   13  C   UNL     1      -9.026   5.923  71.134  1.00  0.00    -0.139 C  
HETATM   14  O   UNL     1      -8.980   7.100  70.303  1.00  0.00    -0.150 OA 
HETATM   15  C   UNL     1      -9.042   6.637  68.955  1.00  0.00    -0.133 C  
HETATM   16  C   UNL     1      -8.170   5.378  68.929  1.00  0.00    -0.100 C  
HETATM   17  H   UNL     1      -8.188   2.941  70.039  1.00  0.00     0.000 HD 
HETATM   18  O   UNL     1      -8.690   4.370  68.053  1.00  0.00    -0.101 OA 
HETATM   19  C   UNL     1      -8.174   4.894  70.386  1.00  0.00    -0.088 C  
HETATM   20  O   UNL     1      -8.717   3.580  70.503  1.00  0.00    -0.067 OA 
HETATM   21  H   UNL     1      -8.149   3.589  68.036  1.00  0.00     0.000 HD 
BRANCH  15  22
HETATM   22  N   UNL     1      -8.649   7.705  68.060  1.00  0.00    -0.123 NA 
HETATM   23  C   UNL     1      -8.857   9.046  68.249  1.00  0.00    -0.134 A  
HETATM   24  C   UNL     1      -8.321   8.797  66.197  1.00  0.00    -0.123 A  
HETATM   25  N   UNL     1      -8.677   9.736  67.139  1.00  0.00    -0.132 NA 
HETATM   26  C   UNL     1      -8.055   8.885  64.820  1.00  0.00    -0.144 A  
HETATM   27  N   UNL     1      -7.651   7.771  64.167  1.00  0.00    -0.106 NA 
HETATM   28  N   UNL     1      -8.211  10.053  64.087  1.00  0.00    -0.152 NA 
HETATM   29  H2  UNL     1      -7.660  10.777  64.549  1.00  0.00     0.000 HD 
HETATM   30  C   UNL     1      -7.576   6.615  64.860  1.00  0.00    -0.101 A  
HETATM   31  H1  UNL     1      -8.018  10.116  63.087  1.00  0.00     0.000 HD 
HETATM   32  N   UNL     1      -7.889   6.385  66.154  1.00  0.00    -0.099 NA 
HETATM   33  C   UNL     1      -8.238   7.534  66.764  1.00  0.00    -0.124 A  
ENDBRANCH  15  22
ENDBRANCH  12  13
ENDBRANCH  10  12
ENDBRANCH   9  10
ENDBRANCH   8   9
ENDBRANCH   1   8
TORSDOF 6
ENDMDL
MODEL      296
REMARK 921   NORMALIZED FREE ENERGY PREDICTED BY IDOCK:   -3.36 KCAL/MOL
REMARK 922        TOTAL FREE ENERGY PREDICTED BY IDOCK:   -5.95 KCAL/MOL
REMARK 923 INTER-LIGAND FREE ENERGY PREDICTED BY IDOCK:   -5.46 KCAL/MOL
REMARK 924 INTRA-LIGAND FREE ENERGY PREDICTED BY IDOCK:   -0.49 KCAL/MOL
REMARK 927      BINDING AFFINITY PREDICTED BY RF-SCORE:    0.00 PKD
ROOT
HETATM    1  CA  UNL     1      -7.748   8.012  65.741  1.00  0.00    -0.093 C  
HETATM    2  C   UNL     1      -7.705   9.581  65.588  1.00  0.00    -0.101 C  
HETATM    3  N   UNL     1      -6.336   7.508  65.892  1.00  0.00    -0.041 NA 
HETATM    4  OXT UNL     1      -8.620  10.067  64.861  1.00  0.00    -0.152 OA 
HETATM    5  H2  UNL     1      -6.294   6.513  66.109  1.00  0.00     0.000 HD 
HETATM    6  O   UNL     1      -6.758  10.151  66.198  1.00  0.00    -0.093 OA 
HETATM    7  H1  UNL     1      -5.822   7.749  65.044  1.00  0.00     0.000 HD 
ENDROOT
BRANCH   1   8
HETATM    8  C   UNL     1      -8.517   7.651  67.010  1.00  0.00    -0.125 C  
BRANCH   8   9
HETATM    9  C   UNL     1      -7.667   6.996  68.103  1.00  0.00    -0.113 C  
BRANCH   9  10
HETATM   10  S   UNL     1      -8.636   5.677  68.964  1.00  0.00    -0.104 S  
HETATM   11  C   UNL     1      -7.425   4.356  68.665  1.00  0.00    -0.060 C  
BRANCH  10  12
HETATM   12  C   UNL     1      -8.087   6.092  70.673  1.00  0.00    -0.116 C  
BRANCH  12  13
HETATM   13  C   UNL     1      -9.238   6.714  71.476  1.00  0.00    -0.146 C  
HETATM   14  O   UNL     1      -9.502   8.058  71.026  1.00  0.00    -0.154 OA 
HETATM   15  C   UNL     1     -10.810   8.383  71.492  1.00  0.00    -0.258 C  
HETATM   16  C   UNL     1     -11.628   7.102  71.302  1.00  0.00    -0.294 C  
HETATM   17  H   UNL     1     -11.628   4.601  72.261  1.00  0.00     0.000 HD 
HETATM   18  O   UNL     1     -12.588   6.905  72.348  1.00  0.00    -0.513 OA 
HETATM   19  C   UNL     1     -10.573   5.985  71.309  1.00  0.00    -0.246 C  
HETATM   20  O   UNL     1     -10.799   5.054  72.365  1.00  0.00    -0.213 OA 
HETATM   21  H   UNL     1     -13.095   6.111  72.231  1.00  0.00     0.000 HD 
BRANCH  15  22
HETATM   22  N   UNL     1     -11.292   9.557  70.794  1.00  0.00    -0.296 NA 
HETATM   23  C   UNL     1     -12.581  10.022  70.774  1.00  0.00    -0.285 A  
HETATM   24  C   UNL     1     -11.545  11.031  69.203  1.00  0.00    -0.319 A  
HETATM   25  N   UNL     1     -12.771  10.909  69.816  1.00  0.00    -0.163 NA 
HETATM   26  C   UNL     1     -11.109  11.768  68.089  1.00  0.00    -0.243 A  
HETATM   27  N   UNL     1      -9.795  11.735  67.767  1.00  0.00    -0.178 NA 
HETATM   28  N   UNL     1     -11.962  12.508  67.282  1.00  0.00    -0.505 NA 
HETATM   29  H2  UNL     1     -12.472  13.150  67.889  1.00  0.00     0.000 HD 
HETATM   30  C   UNL     1      -8.976  10.953  68.500  1.00  0.00    -0.157 A  
HETATM   31  H1  UNL     1     -11.645  13.042  66.473  1.00  0.00     0.000 HD 
HETATM   32  N   UNL     1      -9.287  10.135  69.529  1.00  0.00    -0.219 NA 
HETATM   33  C   UNL     1     -10.595  10.244  69.835  1.00  0.00    -0.276 A  
ENDBRANCH  15  22
ENDBRANCH  12  13
ENDBRANCH  10  12
ENDBRANCH   9  10
ENDBRANCH   8   9
ENDBRANCH   1   8
TORSDOF 6
ENDMDL
MODEL      297
REMARK 921   NORMALIZED FREE ENERGY PREDICTED BY IDOCK:   -3.31 KCAL/MOL
REMARK 922        TOTAL FREE ENERGY PREDICTED BY IDOCK:   -5.89 KCAL/MOL
REMARK 923 INTER-LIGAND FREE ENERGY PREDICTED BY IDOCK:   -5.17 KCAL/MOL
REMARK 924 INTRA-LIGAND FREE ENERGY PREDICTED BY IDOCK:   -0.73 KCAL/MOL
REMARK 927      BINDING AFFINITY PREDICTED BY RF-SCORE:    0.00 PKD
ROOT
HETATM    1  CA  UNL     1      -8.874   7.791  72.957  1.00  0.00    -0.192 C  
HETATM    2  C   UNL     1      -8.474   6.272  73.094  1.00  0.00    -0.116 C  
HETATM    3  N   UNL     1      -7.612   8.610  72.860  1.00  0.00    -0.367 NA 
HETATM    4  OXT UNL     1      -9.274   5.574  73.784  1.00  0.00    -0.127 OA 
HETATM    5  H2  UNL     1      -7.795   9.592  72.656  1.00  0.00     0.000 HD 
HETATM    6  O   UNL     1      -7.403   5.946  72.510  1.00  0.00    -0.091 OA 
HETATM    7  H1  UNL     1      -7.083   8.477  73.722  1.00  0.00     0.000 HD 
ENDROOT
BRANCH   1   8
HETATM    8  C   UNL     1      -9.667   7.988  71.668  1.00  0.00    -0.222 C  
BRANCH   8   9
HETATM    9  C   UNL     1      -9.581   9.400  71.079  1.00  0.00    -0.202 C  
BRANCH   9  10
HETATM   10  S   UNL     1     -10.795   9.593  69.698  1.00  0.00    -0.238 S  
HETATM   11  C   UNL     1     -12.124  10.273  70.735  1.00  0.00    -0.353 C  
BRANCH  10  12
HETATM   12  C   UNL     1     -10.157  11.207  69.079  1.00  0.00    -0.155 C  
BRANCH  12  13
HETATM   13  C   UNL     1      -9.588  11.058  67.662  1.00  0.00    -0.168 C  
HETATM   14  O   UNL     1      -8.861   9.819  67.535  1.00  0.00    -0.125 OA 
HETATM   15  C   UNL     1      -8.755   9.562  66.136  1.00  0.00    -0.145 C  
HETATM   16  C   UNL     1     -10.111   9.971  65.554  1.00  0.00    -0.255 C  
HETATM   17  H   UNL     1     -11.550  12.215  65.294  1.00  0.00     0.000 HD 
HETATM   18  O   UNL     1      -9.993  10.562  64.254  1.00  0.00    -0.321 OA 
HETATM   19  C   UNL     1     -10.659  10.985  66.570  1.00  0.00    -0.254 C  
HETATM   20  O   UNL     1     -10.886  12.260  65.971  1.00  0.00    -0.258 OA 
HETATM   21  H   UNL     1     -10.834  10.816  63.893  1.00  0.00     0.000 HD 
BRANCH  15  22
HETATM   22  N   UNL     1      -8.361   8.184  65.929  1.00  0.00    -0.124 NA 
HETATM   23  C   UNL     1      -7.256   7.745  65.248  1.00  0.00    -0.068 A  
HETATM   24  C   UNL     1      -8.531   6.051  65.493  1.00  0.00    -0.151 A  
HETATM   25  N   UNL     1      -7.330   6.460  64.959  1.00  0.00    -0.074 NA 
HETATM   26  C   UNL     1      -9.210   4.821  65.472  1.00  0.00    -0.154 A  
HETATM   27  N   UNL     1     -10.367   4.710  66.166  1.00  0.00    -0.286 NA 
HETATM   28  N   UNL     1      -8.769   3.718  64.755  1.00  0.00    -0.112 NA 
HETATM   29  H2  UNL     1      -7.810   3.530  65.048  1.00  0.00     0.000 HD 
HETATM   30  C   UNL     1     -10.841   5.803  66.798  1.00  0.00    -0.248 A  
HETATM   31  H1  UNL     1      -9.262   2.825  64.740  1.00  0.00     0.000 HD 
HETATM   32  N   UNL     1     -10.332   7.054  66.818  1.00  0.00    -0.242 NA 
HETATM   33  C   UNL     1      -9.160   7.095  66.154  1.00  0.00    -0.119 A  
ENDBRANCH  15  22
ENDBRANCH  12  13
ENDBRANCH  10  12
ENDBRANCH   9  10
ENDBRANCH   8   9
ENDBRANCH   1   8
TORSDOF 6
ENDMDL
MODEL      298
REMARK 921   NORMALIZED FREE ENERGY PREDICTED BY IDOCK:   -3.30 KCAL/MOL
REMARK 922        TOTAL FREE ENERGY PREDICTED BY IDOCK:   -5.88 KCAL/MOL
REMARK 923 INTER-LIGAND FREE ENERGY PREDICTED BY IDOCK:   -5.70 KCAL/MOL
REMARK 924 INTRA-LIGAND FREE ENERGY PREDICTED BY IDOCK:   -0.18 KCAL/MOL
REMARK 927      BINDING AFFINITY PREDICTED BY RF-SCORE:    0.00 PKD
ROOT
HETATM    1  CA  UNL     1      -7.741   5.587  67.586  1.00  0.00    -0.093 C  
HETATM    2  C   UNL     1      -8.242   4.986  66.218  1.00  0.00    -0.108 C  
HETATM    3  N   UNL     1      -6.374   5.026  67.883  1.00  0.00    -0.039 NA 
HETATM    4  OXT UNL     1      -9.495   4.826  66.138  1.00  0.00    -0.140 OA 
HETATM    5  H2  UNL     1      -5.939   5.459  68.698  1.00  0.00     0.000 HD 
HETATM    6  O   UNL     1      -7.331   4.728  65.382  1.00  0.00    -0.070 OA 
HETATM    7  H1  UNL     1      -6.461   4.014  67.973  1.00  0.00     0.000 HD 
ENDROOT
BRANCH   1   8
HETATM    8  C   UNL     1      -7.611   7.103  67.452  1.00  0.00    -0.109 C  
BRANCH   8   9
HETATM    9  C   UNL     1      -7.524   7.608  66.009  1.00  0.00    -0.082 C  
BRANCH   9  10
HETATM   10  S   UNL     1      -7.797   9.436  65.952  1.00  0.00    -0.100 S  
HETATM   11  C   UNL     1      -7.282   9.629  64.219  1.00  0.00    -0.122 C  
BRANCH  10  12
HETATM   12  C   UNL     1      -9.611   9.370  65.633  1.00  0.00    -0.274 C  
BRANCH  12  13
HETATM   13  C   UNL     1     -10.357  10.357  66.540  1.00  0.00    -0.224 C  
HETATM   14  O   UNL     1     -11.024   9.659  67.610  1.00  0.00    -0.268 OA 
HETATM   15  C   UNL     1     -11.304  10.637  68.609  1.00  0.00    -0.281 C  
HETATM   16  C   UNL     1     -10.063  11.535  68.643  1.00  0.00    -0.207 C  
HETATM   17  H   UNL     1      -8.800  13.217  66.984  1.00  0.00     0.000 HD 
HETATM   18  O   UNL     1     -10.389  12.909  68.887  1.00  0.00    -0.400 OA 
HETATM   19  C   UNL     1      -9.441  11.358  67.249  1.00  0.00    -0.167 C  
HETATM   20  O   UNL     1      -9.369  12.596  66.544  1.00  0.00    -0.237 OA 
HETATM   21  H   UNL     1      -9.620  13.467  68.908  1.00  0.00     0.000 HD 
BRANCH  15  22
HETATM   22  N   UNL     1     -11.645   9.973  69.851  1.00  0.00    -0.212 NA 
HETATM   23  C   UNL     1     -12.196  10.555  70.962  1.00  0.00    -0.400 A  
HETATM   24  C   UNL     1     -11.473   8.641  71.572  1.00  0.00    -0.295 A  
HETATM   25  N   UNL     1     -12.101   9.780  72.025  1.00  0.00    -0.250 NA 
HETATM   26  C   UNL     1     -11.035   7.475  72.223  1.00  0.00    -0.262 A  
HETATM   27  N   UNL     1     -10.505   6.479  71.476  1.00  0.00    -0.212 NA 
HETATM   28  N   UNL     1     -11.094   7.301  73.598  1.00  0.00    -0.554 NA 
HETATM   29  H2  UNL     1     -12.060   7.462  73.883  1.00  0.00     0.000 HD 
HETATM   30  C   UNL     1     -10.371   6.676  70.148  1.00  0.00    -0.203 A  
HETATM   31  H1  UNL     1     -10.775   6.455  74.070  1.00  0.00     0.000 HD 
HETATM   32  N   UNL     1     -10.669   7.778  69.424  1.00  0.00    -0.208 NA 
HETATM   33  C   UNL     1     -11.236   8.716  70.209  1.00  0.00    -0.184 A  
ENDBRANCH  15  22
ENDBRANCH  12  13
ENDBRANCH  10  12
ENDBRANCH   9  10
ENDBRANCH   8   9
ENDBRANCH   1   8
TORSDOF 6
ENDMDL
MODEL      299
REMARK 921   NORMALIZED FREE ENERGY PREDICTED BY IDOCK:   -3.30 KCAL/MOL
REMARK 922        TOTAL FREE ENERGY PREDICTED BY IDOCK:   -5.88 KCAL/MOL
REMARK 923 INTER-LIGAND FREE ENERGY PREDICTED BY IDOCK:   -4.94 KCAL/MOL
REMARK 924 INTRA-LIGAND FREE ENERGY PREDICTED BY IDOCK:   -0.93 KCAL/MOL
REMARK 927      BINDING AFFINITY PREDICTED BY RF-SCORE:    0.00 PKD
ROOT
HETATM    1  CA  UNL     1      -8.916  11.204  65.539  1.00  0.00    -0.166 C  
HETATM    2  C   UNL     1      -7.831  10.060  65.575  1.00  0.00    -0.134 C  
HETATM    3  N   UNL     1     -10.281  10.566  65.539  1.00  0.00    -0.272 NA 
HETATM    4  OXT UNL     1      -6.753  10.334  64.971  1.00  0.00    -0.125 OA 
HETATM    5  H2  UNL     1     -11.034  11.248  65.630  1.00  0.00     0.000 HD 
HETATM    6  O   UNL     1      -8.178   9.013  66.190  1.00  0.00    -0.111 OA 
HETATM    7  H1  UNL     1     -10.364   9.997  64.696  1.00  0.00     0.000 HD 
ENDROOT
BRANCH   1   8
HETATM    8  C   UNL     1      -8.792  12.055  66.800  1.00  0.00    -0.198 C  
BRANCH   8   9
HETATM    9  C   UNL     1      -9.568  13.375  66.755  1.00  0.00    -0.262 C  
BRANCH   9  10
HETATM   10  S   UNL     1     -10.499  13.626  68.333  1.00  0.00    -0.248 S  
HETATM   11  C   UNL     1     -11.072  15.302  67.925  1.00  0.00    -0.321 C  
BRANCH  10  12
HETATM   12  C   UNL     1     -12.031  12.742  67.818  1.00  0.00    -0.260 C  
BRANCH  12  13
HETATM   13  C   UNL     1     -12.279  11.520  68.713  1.00  0.00    -0.006 C  
HETATM   14  O   UNL     1     -11.586  10.365  68.198  1.00  0.00    -0.355 OA 
HETATM   15  C   UNL     1     -11.507   9.436  69.277  1.00  0.00     0.273 C  
HETATM   16  C   UNL     1     -11.213  10.290  70.514  1.00  0.00    -0.330 C  
HETATM   17  H   UNL     1     -12.437  12.212  71.921  1.00  0.00     0.000 HD 
HETATM   18  O   UNL     1     -11.864   9.793  71.690  1.00  0.00    -0.389 OA 
HETATM   19  C   UNL     1     -11.746  11.681  70.139  1.00  0.00    -0.296 C  
HETATM   20  O   UNL     1     -12.768  12.112  71.036  1.00  0.00    -0.328 OA 
HETATM   21  H   UNL     1     -11.682  10.322  72.458  1.00  0.00     0.000 HD 
BRANCH  15  22
HETATM   22  N   UNL     1     -10.531   8.413  68.961  1.00  0.00    -0.220 NA 
HETATM   23  C   UNL     1     -10.533   7.596  67.862  1.00  0.00    -0.207 A  
HETATM   24  C   UNL     1      -9.147   6.749  69.247  1.00  0.00    -0.139 A  
HETATM   25  N   UNL     1      -9.714   6.572  68.005  1.00  0.00    -0.118 NA 
HETATM   26  C   UNL     1      -8.246   5.976  69.999  1.00  0.00    -0.122 A  
HETATM   27  N   UNL     1      -7.810   6.463  71.184  1.00  0.00    -0.112 NA 
HETATM   28  N   UNL     1      -7.798   4.724  69.602  1.00  0.00    -0.065 NA 
HETATM   29  H2  UNL     1      -7.403   4.826  68.667  1.00  0.00     0.000 HD 
HETATM   30  C   UNL     1      -8.305   7.643  71.612  1.00  0.00    -0.108 A  
HETATM   31  H1  UNL     1      -7.144   4.163  70.148  1.00  0.00     0.000 HD 
HETATM   32  N   UNL     1      -9.235   8.430  71.028  1.00  0.00    -0.157 NA 
HETATM   33  C   UNL     1      -9.597   7.922  69.833  1.00  0.00    -0.168 A  
ENDBRANCH  15  22
ENDBRANCH  12  13
ENDBRANCH  10  12
ENDBRANCH   9  10
ENDBRANCH   8   9
ENDBRANCH   1   8
TORSDOF 6
ENDMDL
MODEL      300
REMARK 921   NORMALIZED FREE ENERGY PREDICTED BY IDOCK:   -3.30 KCAL/MOL
REMARK 922        TOTAL FREE ENERGY PREDICTED BY IDOCK:   -5.88 KCAL/MOL
REMARK 923 INTER-LIGAND FREE ENERGY PREDICTED BY IDOCK:   -5.25 KCAL/MOL
REMARK 924 INTRA-LIGAND FREE ENERGY PREDICTED BY IDOCK:   -0.62 KCAL/MOL
REMARK 927      BINDING AFFINITY PREDICTED BY RF-SCORE:    0.00 PKD
ROOT
HETATM    1  CA  UNL     1      -7.375  13.665  68.022  1.00  0.00    -0.131 C  
HETATM    2  C   UNL     1      -6.742  15.106  68.099  1.00  0.00    -0.132 C  
HETATM    3  N   UNL     1      -6.962  12.896  69.251  1.00  0.00    -0.292 NA 
HETATM    4  OXT UNL     1      -6.446  15.615  66.978  1.00  0.00    -0.295 OA 
HETATM    5  H2  UNL     1      -7.428  11.991  69.324  1.00  0.00     0.000 HD 
HETATM    6  O   UNL     1      -6.597  15.565  69.266  1.00  0.00    -0.127 OA 
HETATM    7  H1  UNL     1      -5.946  12.816  69.247  1.00  0.00     0.000 HD 
ENDROOT
BRANCH   1   8
HETATM    8  C   UNL     1      -8.897  13.783  68.027  1.00  0.00    -0.182 C  
BRANCH   8   9
HETATM    9  C   UNL     1      -9.512  14.129  66.667  1.00  0.00    -0.289 C  
BRANCH   9  10
HETATM   10  S   UNL     1     -10.877  12.949  66.262  1.00  0.00    -0.279 S  
HETATM   11  C   UNL     1     -10.763  13.172  64.462  1.00  0.00    -0.398 C  
BRANCH  10  12
HETATM   12  C   UNL     1      -9.863  11.413  66.354  1.00  0.00    -0.211 C  
BRANCH  12  13
HETATM   13  C   UNL     1     -10.652  10.282  67.028  1.00  0.00    -0.239 C  
HETATM   14  O   UNL     1     -10.264   9.003  66.490  1.00  0.00    -0.278 OA 
HETATM   15  C   UNL     1     -10.693   8.026  67.436  1.00  0.00    -0.190 C  
HETATM   16  C   UNL     1     -10.402   8.647  68.805  1.00  0.00    -0.208 C  
HETATM   17  H   UNL     1     -11.225  10.762  70.228  1.00  0.00     0.000 HD 
HETATM   18  O   UNL     1     -11.397   8.311  69.781  1.00  0.00    -0.454 OA 
HETATM   19  C   UNL     1     -10.391  10.159  68.532  1.00  0.00    -0.180 C  
HETATM   20  O   UNL     1     -11.386  10.839  69.294  1.00  0.00    -0.242 OA 
HETATM   21  H   UNL     1     -11.217   8.696  70.631  1.00  0.00     0.000 HD 
BRANCH  15  22
HETATM   22  N   UNL     1     -10.041   6.764  67.156  1.00  0.00    -0.171 NA 
HETATM   23  C   UNL     1     -10.634   5.529  67.126  1.00  0.00    -0.240 A  
HETATM   24  C   UNL     1      -8.527   5.191  67.192  1.00  0.00    -0.106 A  
HETATM   25  N   UNL     1      -9.746   4.554  67.157  1.00  0.00    -0.189 NA 
HETATM   26  C   UNL     1      -7.208   4.716  67.293  1.00  0.00    -0.073 A  
HETATM   27  N   UNL     1      -6.193   5.609  67.229  1.00  0.00    -0.029 NA 
HETATM   28  N   UNL     1      -6.892   3.378  67.481  1.00  0.00    -0.049 NA 
HETATM   29  H2  UNL     1      -7.348   2.851  66.736  1.00  0.00     0.000 HD 
HETATM   30  C   UNL     1      -6.498   6.919  67.128  1.00  0.00    -0.049 A  
HETATM   31  H1  UNL     1      -5.934   3.033  67.554  1.00  0.00     0.000 HD 
HETATM   32  N   UNL     1      -7.716   7.503  67.113  1.00  0.00    -0.110 NA 
HETATM   33  C   UNL     1      -8.686   6.567  67.131  1.00  0.00    -0.111 A  
ENDBRANCH  15  22
ENDBRANCH  12  13
ENDBRANCH  10  12
ENDBRANCH   9  10
ENDBRANCH   8   9
ENDBRANCH   1   8
TORSDOF 6
ENDMDL
MODEL      301
REMARK 921   NORMALIZED FREE ENERGY PREDICTED BY IDOCK:   -3.28 KCAL/MOL
REMARK 922        TOTAL FREE ENERGY PREDICTED BY IDOCK:   -5.84 KCAL/MOL
REMARK 923 INTER-LIGAND FREE ENERGY PREDICTED BY IDOCK:   -5.21 KCAL/MOL
REMARK 924 INTRA-LIGAND FREE ENERGY PREDICTED BY IDOCK:   -0.63 KCAL/MOL
REMARK 927      BINDING AFFINITY PREDICTED BY RF-SCORE:    0.00 PKD
ROOT
HETATM    1  CA  UNL     1     -10.675  10.570  69.000  1.00  0.00    -0.225 C  
HETATM    2  C   UNL     1     -11.705  10.577  70.193  1.00  0.00    -0.326 C  
HETATM    3  N   UNL     1      -9.287  10.729  69.566  1.00  0.00    -0.414 NA 
HETATM    4  OXT UNL     1     -12.835  11.075  69.913  1.00  0.00    -0.141 OA 
HETATM    5  H2  UNL     1      -8.559  10.619  68.860  1.00  0.00     0.000 HD 
HETATM    6  O   UNL     1     -11.270  10.100  71.278  1.00  0.00    -0.290 OA 
HETATM    7  H1  UNL     1      -9.242  11.629  70.042  1.00  0.00     0.000 HD 
ENDROOT
BRANCH   1   8
HETATM    8  C   UNL     1     -10.742   9.222  68.285  1.00  0.00    -0.195 C  
BRANCH   8   9
HETATM    9  C   UNL     1      -9.378   8.606  67.959  1.00  0.00    -0.136 C  
BRANCH   9  10
HETATM   10  S   UNL     1      -9.446   7.721  66.337  1.00  0.00    -0.145 S  
HETATM   11  C   UNL     1      -8.913   9.148  65.344  1.00  0.00    -0.207 C  
BRANCH  10  12
HETATM   12  C   UNL     1      -7.793   6.917  66.465  1.00  0.00    -0.106 C  
BRANCH  12  13
HETATM   13  C   UNL     1      -7.938   5.438  66.850  1.00  0.00    -0.101 C  
HETATM   14  O   UNL     1      -7.988   5.290  68.283  1.00  0.00    -0.087 OA 
HETATM   15  C   UNL     1      -8.547   4.002  68.530  1.00  0.00    -0.094 C  
HETATM   16  C   UNL     1      -9.655   3.844  67.484  1.00  0.00    -0.163 C  
HETATM   17  H   UNL     1      -9.844   3.699  64.816  1.00  0.00     0.000 HD 
HETATM   18  O   UNL     1      -9.768   2.498  67.005  1.00  0.00    -0.396 OA 
HETATM   19  C   UNL     1      -9.235   4.795  66.353  1.00  0.00    -0.135 C  
HETATM   20  O   UNL     1      -9.039   4.098  65.125  1.00  0.00    -0.127 OA 
HETATM   21  H   UNL     1     -10.455   2.399  66.356  1.00  0.00     0.000 HD 
BRANCH  15  22
HETATM   22  N   UNL     1      -8.960   3.913  69.915  1.00  0.00    -0.087 NA 
HETATM   23  C   UNL     1      -9.191   2.764  70.625  1.00  0.00    -0.136 A  
HETATM   24  C   UNL     1     -10.033   4.363  71.763  1.00  0.00    -0.186 A  
HETATM   25  N   UNL     1      -9.848   2.999  71.745  1.00  0.00    -0.170 NA 
HETATM   26  C   UNL     1     -10.707   5.218  72.651  1.00  0.00    -0.239 A  
HETATM   27  N   UNL     1     -10.649   6.553  72.431  1.00  0.00    -0.209 NA 
HETATM   28  N   UNL     1     -11.452   4.765  73.730  1.00  0.00    -0.377 NA 
HETATM   29  H2  UNL     1     -10.844   4.167  74.289  1.00  0.00     0.000 HD 
HETATM   30  C   UNL     1      -9.993   6.993  71.338  1.00  0.00    -0.184 A  
HETATM   31  H1  UNL     1     -11.941   5.387  74.374  1.00  0.00     0.000 HD 
HETATM   32  N   UNL     1      -9.387   6.272  70.369  1.00  0.00    -0.161 NA 
HETATM   33  C   UNL     1      -9.435   4.958  70.663  1.00  0.00    -0.173 A  
ENDBRANCH  15  22
ENDBRANCH  12  13
ENDBRANCH  10  12
ENDBRANCH   9  10
ENDBRANCH   8   9
ENDBRANCH   1   8
TORSDOF 6
ENDMDL
MODEL      302
REMARK 921   NORMALIZED FREE ENERGY PREDICTED BY IDOCK:   -3.27 KCAL/MOL
REMARK 922        TOTAL FREE ENERGY PREDICTED BY IDOCK:   -5.83 KCAL/MOL
REMARK 923 INTER-LIGAND FREE ENERGY PREDICTED BY IDOCK:   -5.42 KCAL/MOL
REMARK 924 INTRA-LIGAND FREE ENERGY PREDICTED BY IDOCK:   -0.42 KCAL/MOL
REMARK 927      BINDING AFFINITY PREDICTED BY RF-SCORE:    0.00 PKD
ROOT
HETATM    1  CA  UNL     1     -12.081  14.623  69.676  1.00  0.00    -0.311 C  
HETATM    2  C   UNL     1     -12.583  14.674  71.169  1.00  0.00    -0.334 C  
HETATM    3  N   UNL     1     -12.474  15.909  68.995  1.00  0.00    -0.368 NA 
HETATM    4  OXT UNL     1     -12.908  13.552  71.658  1.00  0.00    -0.348 OA 
HETATM    5  H2  UNL     1     -12.083  15.993  68.058  1.00  0.00     0.000 HD 
HETATM    6  O   UNL     1     -12.610  15.827  71.685  1.00  0.00    -0.418 OA 
HETATM    7  H1  UNL     1     -13.492  15.973  69.006  1.00  0.00     0.000 HD 
ENDROOT
BRANCH   1   8
HETATM    8  C   UNL     1     -10.557  14.526  69.661  1.00  0.00    -0.075 C  
BRANCH   8   9
HETATM    9  C   UNL     1      -9.971  13.931  68.377  1.00  0.00    -0.233 C  
BRANCH   9  10
HETATM   10  S   UNL     1      -9.329  12.226  68.695  1.00  0.00     0.077 S  
HETATM   11  C   UNL     1     -10.967  11.461  68.881  1.00  0.00    -0.226 C  
BRANCH  10  12
HETATM   12  C   UNL     1      -9.072  11.763  66.931  1.00  0.00    -0.192 C  
BRANCH  12  13
HETATM   13  C   UNL     1      -8.638  10.296  66.813  1.00  0.00    -0.127 C  
HETATM   14  O   UNL     1      -8.930   9.581  68.030  1.00  0.00    -0.124 OA 
HETATM   15  C   UNL     1      -8.910   8.196  67.691  1.00  0.00    -0.136 C  
HETATM   16  C   UNL     1      -9.581   8.114  66.317  1.00  0.00    -0.178 C  
HETATM   17  H   UNL     1      -9.100   8.992  63.832  1.00  0.00     0.000 HD 
HETATM   18  O   UNL     1      -8.988   7.116  65.477  1.00  0.00    -0.366 OA 
HETATM   19  C   UNL     1      -9.382   9.518  65.724  1.00  0.00    -0.233 C  
HETATM   20  O   UNL     1      -8.639   9.475  64.508  1.00  0.00    -0.163 OA 
HETATM   21  H   UNL     1      -9.403   7.065  64.624  1.00  0.00     0.000 HD 
BRANCH  15  22
HETATM   22  N   UNL     1      -9.534   7.432  68.752  1.00  0.00    -0.144 NA 
HETATM   23  C   UNL     1     -10.038   7.927  69.926  1.00  0.00    -0.197 A  
HETATM   24  C   UNL     1      -9.880   5.812  70.175  1.00  0.00    -0.184 A  
HETATM   25  N   UNL     1     -10.249   6.974  70.814  1.00  0.00    -0.195 NA 
HETATM   26  C   UNL     1      -9.815   4.474  70.599  1.00  0.00    -0.222 A  
HETATM   27  N   UNL     1      -9.473   3.526  69.696  1.00  0.00    -0.174 NA 
HETATM   28  N   UNL     1     -10.059   4.075  71.905  1.00  0.00    -0.172 NA 
HETATM   29  H2  UNL     1     -10.980   4.430  72.164  1.00  0.00     0.000 HD 
HETATM   30  C   UNL     1      -9.156   3.919  68.445  1.00  0.00    -0.138 A  
HETATM   31  H1  UNL     1     -10.012   3.103  72.213  1.00  0.00     0.000 HD 
HETATM   32  N   UNL     1      -9.093   5.172  67.944  1.00  0.00    -0.110 NA 
HETATM   33  C   UNL     1      -9.489   6.068  68.870  1.00  0.00    -0.126 A  
ENDBRANCH  15  22
ENDBRANCH  12  13
ENDBRANCH  10  12
ENDBRANCH   9  10
ENDBRANCH   8   9
ENDBRANCH   1   8
TORSDOF 6
ENDMDL
MODEL      303
REMARK 921   NORMALIZED FREE ENERGY PREDICTED BY IDOCK:   -3.24 KCAL/MOL
REMARK 922        TOTAL FREE ENERGY PREDICTED BY IDOCK:   -5.79 KCAL/MOL
REMARK 923 INTER-LIGAND FREE ENERGY PREDICTED BY IDOCK:   -4.96 KCAL/MOL
REMARK 924 INTRA-LIGAND FREE ENERGY PREDICTED BY IDOCK:   -0.83 KCAL/MOL
REMARK 927      BINDING AFFINITY PREDICTED BY RF-SCORE:    0.00 PKD
ROOT
HETATM    1  CA  UNL     1      -8.075  14.271  67.829  1.00  0.00    -0.170 C  
HETATM    2  C   UNL     1      -7.885  15.835  67.785  1.00  0.00    -0.141 C  
HETATM    3  N   UNL     1      -7.624  13.774  69.179  1.00  0.00    -0.324 NA 
HETATM    4  OXT UNL     1      -7.604  16.302  66.642  1.00  0.00    -0.238 OA 
HETATM    5  H2  UNL     1      -7.823  12.784  69.321  1.00  0.00     0.000 HD 
HETATM    6  O   UNL     1      -8.025  16.422  68.894  1.00  0.00    -0.214 OA 
HETATM    7  H1  UNL     1      -6.634  13.995  69.282  1.00  0.00     0.000 HD 
ENDROOT
BRANCH   1   8
HETATM    8  C   UNL     1      -9.557  13.939  67.674  1.00  0.00    -0.215 C  
BRANCH   8   9
HETATM    9  C   UNL     1      -9.998  13.659  66.234  1.00  0.00    -0.300 C  
BRANCH   9  10
HETATM   10  S   UNL     1     -10.861  12.026  66.135  1.00  0.00    -0.298 S  
HETATM   11  C   UNL     1     -11.230  12.139  64.359  1.00  0.00    -0.341 C  
BRANCH  10  12
HETATM   12  C   UNL     1      -9.344  10.994  65.976  1.00  0.00    -0.201 C  
BRANCH  12  13
HETATM   13  C   UNL     1      -8.986  10.345  67.320  1.00  0.00    -0.135 C  
HETATM   14  O   UNL     1      -9.747   9.137  67.518  1.00  0.00    -0.148 OA 
HETATM   15  C   UNL     1      -9.062   8.397  68.527  1.00  0.00    -0.136 C  
HETATM   16  C   UNL     1      -7.575   8.584  68.215  1.00  0.00    -0.097 C  
HETATM   17  H   UNL     1      -5.813  10.600  68.135  1.00  0.00     0.000 HD 
HETATM   18  O   UNL     1      -6.773   8.672  69.400  1.00  0.00    -0.047 OA 
HETATM   19  C   UNL     1      -7.525   9.897  67.420  1.00  0.00    -0.091 C  
HETATM   20  O   UNL     1      -6.720  10.877  68.072  1.00  0.00    -0.062 OA 
HETATM   21  H   UNL     1      -5.850   8.788  69.206  1.00  0.00     0.000 HD 
BRANCH  15  22
HETATM   22  N   UNL     1      -9.546   7.032  68.537  1.00  0.00    -0.137 NA 
HETATM   23  C   UNL     1      -9.958   6.320  69.632  1.00  0.00    -0.165 A  
HETATM   24  C   UNL     1      -9.681   4.906  68.057  1.00  0.00    -0.151 A  
HETATM   25  N   UNL     1     -10.040   5.028  69.380  1.00  0.00    -0.224 NA 
HETATM   26  C   UNL     1      -9.515   3.793  67.216  1.00  0.00    -0.200 A  
HETATM   27  N   UNL     1      -9.217   4.006  65.913  1.00  0.00    -0.143 NA 
HETATM   28  N   UNL     1      -9.615   2.481  67.658  1.00  0.00    -0.378 NA 
HETATM   29  H2  UNL     1     -10.522   2.384  68.115  1.00  0.00     0.000 HD 
HETATM   30  C   UNL     1      -9.039   5.277  65.497  1.00  0.00    -0.139 A  
HETATM   31  H1  UNL     1      -9.495   1.673  67.047  1.00  0.00     0.000 HD 
HETATM   32  N   UNL     1      -9.082   6.416  66.222  1.00  0.00    -0.155 NA 
HETATM   33  C   UNL     1      -9.428   6.149  67.497  1.00  0.00    -0.112 A  
ENDBRANCH  15  22
ENDBRANCH  12  13
ENDBRANCH  10  12
ENDBRANCH   9  10
ENDBRANCH   8   9
ENDBRANCH   1   8
TORSDOF 6
ENDMDL
MODEL      304
REMARK 921   NORMALIZED FREE ENERGY PREDICTED BY IDOCK:   -3.23 KCAL/MOL
REMARK 922        TOTAL FREE ENERGY PREDICTED BY IDOCK:   -5.78 KCAL/MOL
REMARK 923 INTER-LIGAND FREE ENERGY PREDICTED BY IDOCK:   -4.98 KCAL/MOL
REMARK 924 INTRA-LIGAND FREE ENERGY PREDICTED BY IDOCK:   -0.80 KCAL/MOL
REMARK 927      BINDING AFFINITY PREDICTED BY RF-SCORE:    0.00 PKD
ROOT
HETATM    1  CA  UNL     1      -7.594  12.599  67.100  1.00  0.00    -0.063 C  
HETATM    2  C   UNL     1      -8.158  13.949  67.685  1.00  0.00    -0.177 C  
HETATM    3  N   UNL     1      -6.090  12.686  67.064  1.00  0.00    -0.491 NA 
HETATM    4  OXT UNL     1      -9.284  14.297  67.223  1.00  0.00    -0.197 OA 
HETATM    5  H2  UNL     1      -5.650  11.804  66.801  1.00  0.00     0.000 HD 
HETATM    6  O   UNL     1      -7.412  14.519  68.529  1.00  0.00    -0.109 OA 
HETATM    7  H1  UNL     1      -5.833  13.454  66.444  1.00  0.00     0.000 HD 
ENDROOT
BRANCH   1   8
HETATM    8  C   UNL     1      -7.979  11.449  68.027  1.00  0.00    -0.127 C  
BRANCH   8   9
HETATM    9  C   UNL     1      -9.457  11.424  68.429  1.00  0.00    -0.194 C  
BRANCH   9  10
HETATM   10  S   UNL     1     -10.356  10.114  67.483  1.00  0.00    -0.248 S  
HETATM   11  C   UNL     1     -10.736  11.169  66.053  1.00  0.00    -0.211 C  
BRANCH  10  12
HETATM   12  C   UNL     1      -8.862   9.307  66.766  1.00  0.00    -0.127 C  
BRANCH  12  13
HETATM   13  C   UNL     1      -8.744   7.856  67.252  1.00  0.00    -0.131 C  
HETATM   14  O   UNL     1      -9.098   7.757  68.645  1.00  0.00    -0.137 OA 
HETATM   15  C   UNL     1      -9.381   6.380  68.887  1.00  0.00    -0.130 C  
HETATM   16  C   UNL     1     -10.140   5.908  67.642  1.00  0.00    -0.163 C  
HETATM   17  H   UNL     1      -9.649   5.615  65.026  1.00  0.00     0.000 HD 
HETATM   18  O   UNL     1      -9.817   4.559  67.283  1.00  0.00    -0.189 OA 
HETATM   19  C   UNL     1      -9.698   6.889  66.545  1.00  0.00    -0.124 C  
HETATM   20  O   UNL     1      -9.057   6.215  65.464  1.00  0.00    -0.070 OA 
HETATM   21  H   UNL     1     -10.287   4.266  66.511  1.00  0.00     0.000 HD 
BRANCH  15  22
HETATM   22  N   UNL     1     -10.079   6.246  70.149  1.00  0.00    -0.175 NA 
HETATM   23  C   UNL     1     -10.588   7.263  70.912  1.00  0.00    -0.220 A  
HETATM   24  C   UNL     1     -10.560   5.527  72.153  1.00  0.00    -0.226 A  
HETATM   25  N   UNL     1     -10.880   6.865  72.135  1.00  0.00    -0.220 NA 
HETATM   26  C   UNL     1     -10.586   4.557  73.171  1.00  0.00    -0.216 A  
HETATM   27  N   UNL     1     -10.273   3.280  72.853  1.00  0.00    -0.151 NA 
HETATM   28  N   UNL     1     -10.891   4.847  74.493  1.00  0.00    -0.322 NA 
HETATM   29  H2  UNL     1     -11.796   5.317  74.499  1.00  0.00     0.000 HD 
HETATM   30  C   UNL     1      -9.897   3.009  71.586  1.00  0.00    -0.143 A  
HETATM   31  H1  UNL     1     -10.909   4.143  75.231  1.00  0.00     0.000 HD 
HETATM   32  N   UNL     1      -9.747   3.862  70.549  1.00  0.00    -0.192 NA 
HETATM   33  C   UNL     1     -10.117   5.107  70.909  1.00  0.00    -0.232 A  
ENDBRANCH  15  22
ENDBRANCH  12  13
ENDBRANCH  10  12
ENDBRANCH   9  10
ENDBRANCH   8   9
ENDBRANCH   1   8
TORSDOF 6
ENDMDL
MODEL      305
REMARK 921   NORMALIZED FREE ENERGY PREDICTED BY IDOCK:   -3.22 KCAL/MOL
REMARK 922        TOTAL FREE ENERGY PREDICTED BY IDOCK:   -5.77 KCAL/MOL
REMARK 923 INTER-LIGAND FREE ENERGY PREDICTED BY IDOCK:   -5.45 KCAL/MOL
REMARK 924 INTRA-LIGAND FREE ENERGY PREDICTED BY IDOCK:   -0.32 KCAL/MOL
REMARK 927      BINDING AFFINITY PREDICTED BY RF-SCORE:    0.00 PKD
ROOT
HETATM    1  CA  UNL     1     -12.267  13.378  65.989  1.00  0.00    -0.437 C  
HETATM    2  C   UNL     1     -11.918  14.415  67.123  1.00  0.00    -0.389 C  
HETATM    3  N   UNL     1     -12.630  14.139  64.740  1.00  0.00    -0.656 NA 
HETATM    4  OXT UNL     1     -12.209  14.036  68.295  1.00  0.00    -0.328 OA 
HETATM    5  H2  UNL     1     -12.759  13.531  63.931  1.00  0.00     0.000 HD 
HETATM    6  O   UNL     1     -11.405  15.496  66.719  1.00  0.00    -0.211 OA 
HETATM    7  H1  UNL     1     -13.454  14.705  64.943  1.00  0.00     0.000 HD 
ENDROOT
BRANCH   1   8
HETATM    8  C   UNL     1     -11.034  12.530  65.685  1.00  0.00    -0.323 C  
BRANCH   8   9
HETATM    9  C   UNL     1     -11.244  11.469  64.600  1.00  0.00    -0.206 C  
BRANCH   9  10
HETATM   10  S   UNL     1      -9.758  10.375  64.477  1.00  0.00    -0.335 S  
HETATM   11  C   UNL     1      -9.075  11.184  63.000  1.00  0.00    -0.271 C  
BRANCH  10  12
HETATM   12  C   UNL     1      -8.729  11.276  65.713  1.00  0.00    -0.109 C  
BRANCH  12  13
HETATM   13  C   UNL     1      -7.874  10.295  66.525  1.00  0.00    -0.116 C  
HETATM   14  O   UNL     1      -8.683   9.214  67.030  1.00  0.00    -0.122 OA 
HETATM   15  C   UNL     1      -7.778   8.167  67.373  1.00  0.00    -0.102 C  
HETATM   16  C   UNL     1      -6.726   8.172  66.261  1.00  0.00    -0.054 C  
HETATM   17  H   UNL     1      -4.848   9.839  65.329  1.00  0.00     0.000 HD 
HETATM   18  O   UNL     1      -5.413   7.862  66.746  1.00  0.00    -0.030 OA 
HETATM   19  C   UNL     1      -6.781   9.603  65.705  1.00  0.00    -0.089 C  
HETATM   20  O   UNL     1      -5.526  10.268  65.837  1.00  0.00    -0.054 OA 
HETATM   21  H   UNL     1      -4.761   7.865  66.057  1.00  0.00     0.000 HD 
BRANCH  15  22
HETATM   22  N   UNL     1      -8.515   6.933  67.550  1.00  0.00    -0.122 NA 
HETATM   23  C   UNL     1      -8.946   6.403  68.737  1.00  0.00    -0.126 A  
HETATM   24  C   UNL     1      -9.106   4.847  67.284  1.00  0.00    -0.116 A  
HETATM   25  N   UNL     1      -9.302   5.139  68.614  1.00  0.00    -0.119 NA 
HETATM   26  C   UNL     1      -9.243   3.663  66.540  1.00  0.00    -0.171 A  
HETATM   27  N   UNL     1      -9.040   3.713  65.203  1.00  0.00    -0.136 NA 
HETATM   28  N   UNL     1      -9.552   2.436  67.109  1.00  0.00    -0.404 NA 
HETATM   29  H2  UNL     1     -10.410   2.558  67.646  1.00  0.00     0.000 HD 
HETATM   30  C   UNL     1      -8.661   4.887  64.656  1.00  0.00    -0.152 A  
HETATM   31  H1  UNL     1      -9.651   1.577  66.569  1.00  0.00     0.000 HD 
HETATM   32  N   UNL     1      -8.410   6.063  65.273  1.00  0.00    -0.148 NA 
HETATM   33  C   UNL     1      -8.673   5.968  66.591  1.00  0.00    -0.123 A  
ENDBRANCH  15  22
ENDBRANCH  12  13
ENDBRANCH  10  12
ENDBRANCH   9  10
ENDBRANCH   8   9
ENDBRANCH   1   8
TORSDOF 6
ENDMDL
MODEL      306
REMARK 921   NORMALIZED FREE ENERGY PREDICTED BY IDOCK:   -3.22 KCAL/MOL
REMARK 922        TOTAL FREE ENERGY PREDICTED BY IDOCK:   -5.76 KCAL/MOL
REMARK 923 INTER-LIGAND FREE ENERGY PREDICTED BY IDOCK:   -5.23 KCAL/MOL
REMARK 924 INTRA-LIGAND FREE ENERGY PREDICTED BY IDOCK:   -0.53 KCAL/MOL
REMARK 927      BINDING AFFINITY PREDICTED BY RF-SCORE:    0.00 PKD
ROOT
HETATM    1  CA  UNL     1     -12.864  15.094  72.543  1.00  0.00    -0.360 C  
HETATM    2  C   UNL     1     -12.965  15.390  70.998  1.00  0.00    -0.492 C  
HETATM    3  N   UNL     1     -13.759  16.062  73.274  1.00  0.00    -0.737 NA 
HETATM    4  OXT UNL     1     -11.905  15.162  70.345  1.00  0.00    -0.263 OA 
HETATM    5  H2  UNL     1     -13.831  15.856  74.270  1.00  0.00     0.000 HD 
HETATM    6  O   UNL     1     -14.084  15.828  70.610  1.00  0.00    -0.112 OA 
HETATM    7  H1  UNL     1     -13.421  17.006  73.090  1.00  0.00     0.000 HD 
ENDROOT
BRANCH   1   8
HETATM    8  C   UNL     1     -13.370  13.680  72.819  1.00  0.00    -0.465 C  
BRANCH   8   9
HETATM    9  C   UNL     1     -13.620  12.838  71.564  1.00  0.00     0.152 C  
BRANCH   9  10
HETATM   10  S   UNL     1     -12.258  11.609  71.335  1.00  0.00     0.277 S  
HETATM   11  C   UNL     1     -13.271  10.157  71.745  1.00  0.00    -0.438 C  
BRANCH  10  12
HETATM   12  C   UNL     1     -12.406  11.467  69.504  1.00  0.00    -0.124 C  
BRANCH  12  13
HETATM   13  C   UNL     1     -11.147  12.009  68.814  1.00  0.00    -0.249 C  
HETATM   14  O   UNL     1     -10.044  11.097  68.983  1.00  0.00    -0.204 OA 
HETATM   15  C   UNL     1      -9.087  11.441  67.983  1.00  0.00    -0.171 C  
HETATM   16  C   UNL     1      -9.916  11.764  66.736  1.00  0.00    -0.201 C  
HETATM   17  H   UNL     1     -11.732  13.587  65.992  1.00  0.00     0.000 HD 
HETATM   18  O   UNL     1      -9.351  12.832  65.965  1.00  0.00    -0.419 OA 
HETATM   19  C   UNL     1     -11.290  12.160  67.298  1.00  0.00    -0.334 C  
HETATM   20  O   UNL     1     -11.643  13.493  66.933  1.00  0.00    -0.328 OA 
HETATM   21  H   UNL     1      -9.865  13.033  65.192  1.00  0.00     0.000 HD 
BRANCH  15  22
HETATM   22  N   UNL     1      -8.123  10.368  67.848  1.00  0.00    -0.102 NA 
HETATM   23  C   UNL     1      -8.061   9.450  66.834  1.00  0.00    -0.109 A  
HETATM   24  C   UNL     1      -6.824   8.704  68.405  1.00  0.00    -0.065 A  
HETATM   25  N   UNL     1      -7.291   8.425  67.141  1.00  0.00    -0.084 NA 
HETATM   26  C   UNL     1      -6.015   7.984  69.301  1.00  0.00    -0.034 A  
HETATM   27  N   UNL     1      -5.664   8.570  70.469  1.00  0.00    -0.028 NA 
HETATM   28  N   UNL     1      -5.578   6.689  69.061  1.00  0.00    -0.016 NA 
HETATM   29  H2  UNL     1      -5.103   6.692  68.158  1.00  0.00     0.000 HD 
HETATM   30  C   UNL     1      -6.153   9.797  70.741  1.00  0.00    -0.092 A  
HETATM   31  H1  UNL     1      -4.991   6.166  69.711  1.00  0.00     0.000 HD 
HETATM   32  N   UNL     1      -7.004  10.549  70.009  1.00  0.00    -0.155 NA 
HETATM   33  C   UNL     1      -7.282   9.939  68.840  1.00  0.00    -0.076 A  
ENDBRANCH  15  22
ENDBRANCH  12  13
ENDBRANCH  10  12
ENDBRANCH   9  10
ENDBRANCH   8   9
ENDBRANCH   1   8
TORSDOF 6
ENDMDL
MODEL      307
REMARK 921   NORMALIZED FREE ENERGY PREDICTED BY IDOCK:   -3.22 KCAL/MOL
REMARK 922        TOTAL FREE ENERGY PREDICTED BY IDOCK:   -5.76 KCAL/MOL
REMARK 923 INTER-LIGAND FREE ENERGY PREDICTED BY IDOCK:   -4.86 KCAL/MOL
REMARK 924 INTRA-LIGAND FREE ENERGY PREDICTED BY IDOCK:   -0.91 KCAL/MOL
REMARK 927      BINDING AFFINITY PREDICTED BY RF-SCORE:    0.00 PKD
ROOT
HETATM    1  CA  UNL     1     -10.089   7.594  71.962  1.00  0.00    -0.188 C  
HETATM    2  C   UNL     1      -9.255   6.338  71.500  1.00  0.00    -0.145 C  
HETATM    3  N   UNL     1      -9.135   8.622  72.515  1.00  0.00    -0.367 NA 
HETATM    4  OXT UNL     1      -9.858   5.231  71.618  1.00  0.00    -0.159 OA 
HETATM    5  H2  UNL     1      -9.593   9.508  72.730  1.00  0.00     0.000 HD 
HETATM    6  O   UNL     1      -8.091   6.593  71.084  1.00  0.00    -0.110 OA 
HETATM    7  H1  UNL     1      -8.666   8.215  73.324  1.00  0.00     0.000 HD 
ENDROOT
BRANCH   1   8
HETATM    8  C   UNL     1     -10.792   8.204  70.752  1.00  0.00    -0.247 C  
BRANCH   8   9
HETATM    9  C   UNL     1     -10.558   9.707  70.572  1.00  0.00    -0.306 C  
BRANCH   9  10
HETATM   10  S   UNL     1     -11.909  10.448  69.549  1.00  0.00    -0.087 S  
HETATM   11  C   UNL     1     -13.092  10.602  70.919  1.00  0.00    -0.256 C  
BRANCH  10  12
HETATM   12  C   UNL     1     -11.288  12.182  69.602  1.00  0.00    -0.153 C  
BRANCH  12  13
HETATM   13  C   UNL     1     -10.654  12.573  68.261  1.00  0.00    -0.231 C  
HETATM   14  O   UNL     1      -9.764  11.537  67.799  1.00  0.00    -0.168 OA 
HETATM   15  C   UNL     1      -9.576  11.768  66.404  1.00  0.00    -0.218 C  
HETATM   16  C   UNL     1     -10.953  12.187  65.882  1.00  0.00    -0.292 C  
HETATM   17  H   UNL     1     -12.669  14.211  66.247  1.00  0.00     0.000 HD 
HETATM   18  O   UNL     1     -10.870  13.182  64.854  1.00  0.00    -0.302 OA 
HETATM   19  C   UNL     1     -11.667  12.741  67.125  1.00  0.00    -0.380 C  
HETATM   20  O   UNL     1     -12.041  14.107  66.952  1.00  0.00    -0.430 OA 
HETATM   21  H   UNL     1     -11.724  13.443  64.530  1.00  0.00     0.000 HD 
BRANCH  15  22
HETATM   22  N   UNL     1      -8.994  10.590  65.796  1.00  0.00    -0.173 NA 
HETATM   23  C   UNL     1      -9.625   9.396  65.562  1.00  0.00    -0.258 A  
HETATM   24  C   UNL     1      -7.533   9.032  65.340  1.00  0.00    -0.089 A  
HETATM   25  N   UNL     1      -8.769   8.429  65.293  1.00  0.00    -0.150 NA 
HETATM   26  C   UNL     1      -6.226   8.534  65.201  1.00  0.00    -0.052 A  
HETATM   27  N   UNL     1      -5.195   9.410  65.227  1.00  0.00    -0.039 NA 
HETATM   28  N   UNL     1      -5.935   7.184  65.065  1.00  0.00    -0.036 NA 
HETATM   29  H2  UNL     1      -6.478   6.835  64.275  1.00  0.00     0.000 HD 
HETATM   30  C   UNL     1      -5.467  10.714  65.440  1.00  0.00    -0.139 A  
HETATM   31  H1  UNL     1      -4.986   6.823  64.965  1.00  0.00     0.000 HD 
HETATM   32  N   UNL     1      -6.662  11.299  65.675  1.00  0.00     0.268 NA 
HETATM   33  C   UNL     1      -7.654  10.390  65.591  1.00  0.00    -0.150 A  
ENDBRANCH  15  22
ENDBRANCH  12  13
ENDBRANCH  10  12
ENDBRANCH   9  10
ENDBRANCH   8   9
ENDBRANCH   1   8
TORSDOF 6
ENDMDL
MODEL      308
REMARK 921   NORMALIZED FREE ENERGY PREDICTED BY IDOCK:   -3.21 KCAL/MOL
REMARK 922        TOTAL FREE ENERGY PREDICTED BY IDOCK:   -5.76 KCAL/MOL
REMARK 923 INTER-LIGAND FREE ENERGY PREDICTED BY IDOCK:   -5.44 KCAL/MOL
REMARK 924 INTRA-LIGAND FREE ENERGY PREDICTED BY IDOCK:   -0.32 KCAL/MOL
REMARK 927      BINDING AFFINITY PREDICTED BY RF-SCORE:    0.00 PKD
ROOT
HETATM    1  CA  UNL     1     -11.771  14.159  67.120  1.00  0.00    -0.403 C  
HETATM    2  C   UNL     1     -10.388  14.861  66.838  1.00  0.00    -0.264 C  
HETATM    3  N   UNL     1     -12.561  14.128  65.838  1.00  0.00    -0.470 NA 
HETATM    4  OXT UNL     1      -9.916  15.513  67.815  1.00  0.00    -0.221 OA 
HETATM    5  H2  UNL     1     -13.422  13.586  65.918  1.00  0.00     0.000 HD 
HETATM    6  O   UNL     1      -9.933  14.698  65.671  1.00  0.00    -0.324 OA 
HETATM    7  H1  UNL     1     -12.728  15.091  65.546  1.00  0.00     0.000 HD 
ENDROOT
BRANCH   1   8
HETATM    8  C   UNL     1     -11.522  12.717  67.557  1.00  0.00    -0.397 C  
BRANCH   8   9
HETATM    9  C   UNL     1     -10.083  12.231  67.358  1.00  0.00    -0.200 C  
BRANCH   9  10
HETATM   10  S   UNL     1     -10.075  10.497  66.717  1.00  0.00    -0.227 S  
HETATM   11  C   UNL     1      -8.398  10.583  66.019  1.00  0.00    -0.158 C  
BRANCH  10  12
HETATM   12  C   UNL     1      -9.607   9.687  68.304  1.00  0.00    -0.140 C  
BRANCH  12  13
HETATM   13  C   UNL     1     -10.261   8.303  68.420  1.00  0.00    -0.209 C  
HETATM   14  O   UNL     1      -9.682   7.387  67.469  1.00  0.00    -0.138 OA 
HETATM   15  C   UNL     1     -10.013   6.078  67.927  1.00  0.00    -0.131 C  
HETATM   16  C   UNL     1      -9.863   6.141  69.450  1.00  0.00    -0.157 C  
HETATM   17  H   UNL     1     -11.021   7.428  71.494  1.00  0.00     0.000 HD 
HETATM   18  O   UNL     1     -10.841   5.343  70.130  1.00  0.00    -0.281 OA 
HETATM   19  C   UNL     1     -10.047   7.631  69.778  1.00  0.00    -0.196 C  
HETATM   20  O   UNL     1     -11.154   7.845  70.651  1.00  0.00    -0.254 OA 
HETATM   21  H   UNL     1     -10.749   5.382  71.075  1.00  0.00     0.000 HD 
BRANCH  15  22
HETATM   22  N   UNL     1      -9.185   5.105  67.244  1.00  0.00    -0.113 NA 
HETATM   23  C   UNL     1      -7.887   4.785  67.543  1.00  0.00    -0.094 A  
HETATM   24  C   UNL     1      -8.282   3.977  65.607  1.00  0.00    -0.105 A  
HETATM   25  N   UNL     1      -7.307   4.111  66.569  1.00  0.00    -0.078 NA 
HETATM   26  C   UNL     1      -8.276   3.414  64.320  1.00  0.00    -0.089 A  
HETATM   27  N   UNL     1      -9.438   3.370  63.628  1.00  0.00    -0.116 NA 
HETATM   28  N   UNL     1      -7.132   2.924  63.707  1.00  0.00    -0.044 NA 
HETATM   29  H2  UNL     1      -6.719   2.238  64.340  1.00  0.00     0.000 HD 
HETATM   30  C   UNL     1     -10.537   3.919  64.188  1.00  0.00    -0.229 A  
HETATM   31  H1  UNL     1      -7.127   2.515  62.772  1.00  0.00     0.000 HD 
HETATM   32  N   UNL     1     -10.650   4.563  65.369  1.00  0.00    -0.231 NA 
HETATM   33  C   UNL     1      -9.477   4.536  66.033  1.00  0.00    -0.173 A  
ENDBRANCH  15  22
ENDBRANCH  12  13
ENDBRANCH  10  12
ENDBRANCH   9  10
ENDBRANCH   8   9
ENDBRANCH   1   8
TORSDOF 6
ENDMDL
MODEL      309
REMARK 921   NORMALIZED FREE ENERGY PREDICTED BY IDOCK:   -3.21 KCAL/MOL
REMARK 922        TOTAL FREE ENERGY PREDICTED BY IDOCK:   -5.75 KCAL/MOL
REMARK 923 INTER-LIGAND FREE ENERGY PREDICTED BY IDOCK:   -4.82 KCAL/MOL
REMARK 924 INTRA-LIGAND FREE ENERGY PREDICTED BY IDOCK:   -0.93 KCAL/MOL
REMARK 927      BINDING AFFINITY PREDICTED BY RF-SCORE:    0.00 PKD
ROOT
HETATM    1  CA  UNL     1     -10.033   7.419  71.696  1.00  0.00    -0.176 C  
HETATM    2  C   UNL     1      -9.591   5.994  71.185  1.00  0.00    -0.172 C  
HETATM    3  N   UNL     1      -8.803   8.172  72.134  1.00  0.00    -0.159 NA 
HETATM    4  OXT UNL     1     -10.438   5.075  71.384  1.00  0.00    -0.204 OA 
HETATM    5  H2  UNL     1      -9.000   9.144  72.371  1.00  0.00     0.000 HD 
HETATM    6  O   UNL     1      -8.446   5.948  70.655  1.00  0.00    -0.125 OA 
HETATM    7  H1  UNL     1      -8.375   7.657  72.903  1.00  0.00     0.000 HD 
ENDROOT
BRANCH   1   8
HETATM    8  C   UNL     1     -10.674   8.189  70.544  1.00  0.00    -0.233 C  
BRANCH   8   9
HETATM    9  C   UNL     1     -10.254   9.660  70.452  1.00  0.00    -0.288 C  
BRANCH   9  10
HETATM   10  S   UNL     1     -11.187  10.509  69.100  1.00  0.00    -0.259 S  
HETATM   11  C   UNL     1     -12.281  11.443  70.211  1.00  0.00    -0.349 C  
BRANCH  10  12
HETATM   12  C   UNL     1      -9.966  11.858  68.814  1.00  0.00    -0.092 C  
BRANCH  12  13
HETATM   13  C   UNL     1      -9.348  11.743  67.414  1.00  0.00    -0.174 C  
HETATM   14  O   UNL     1      -8.927  10.389  67.155  1.00  0.00    -0.139 OA 
HETATM   15  C   UNL     1      -8.785  10.280  65.740  1.00  0.00    -0.156 C  
HETATM   16  C   UNL     1      -9.962  11.072  65.162  1.00  0.00    -0.278 C  
HETATM   17  H   UNL     1     -10.809  13.613  65.141  1.00  0.00     0.000 HD 
HETATM   18  O   UNL     1      -9.615  11.766  63.957  1.00  0.00    -0.426 OA 
HETATM   19  C   UNL     1     -10.326  12.062  66.279  1.00  0.00    -0.221 C  
HETATM   20  O   UNL     1     -10.202  13.415  65.845  1.00  0.00    -0.288 OA 
HETATM   21  H   UNL     1     -10.345  12.257  63.598  1.00  0.00     0.000 HD 
BRANCH  15  22
HETATM   22  N   UNL     1      -8.713   8.882  65.369  1.00  0.00    -0.182 NA 
HETATM   23  C   UNL     1      -9.055   7.811  66.152  1.00  0.00    -0.153 A  
HETATM   24  C   UNL     1      -7.936   7.031  64.510  1.00  0.00    -0.104 A  
HETATM   25  N   UNL     1      -8.592   6.676  65.667  1.00  0.00    -0.147 NA 
HETATM   26  C   UNL     1      -7.188   6.293  63.577  1.00  0.00    -0.058 A  
HETATM   27  N   UNL     1      -6.718   6.929  62.478  1.00  0.00    -0.046 NA 
HETATM   28  N   UNL     1      -6.884   4.949  63.735  1.00  0.00    -0.046 NA 
HETATM   29  H2  UNL     1      -7.764   4.453  63.878  1.00  0.00     0.000 HD 
HETATM   30  C   UNL     1      -6.943   8.254  62.360  1.00  0.00    -0.090 A  
HETATM   31  H1  UNL     1      -6.341   4.413  63.057  1.00  0.00     0.000 HD 
HETATM   32  N   UNL     1      -7.565   9.085  63.226  1.00  0.00    -0.103 NA 
HETATM   33  C   UNL     1      -8.052   8.392  64.274  1.00  0.00    -0.151 A  
ENDBRANCH  15  22
ENDBRANCH  12  13
ENDBRANCH  10  12
ENDBRANCH   9  10
ENDBRANCH   8   9
ENDBRANCH   1   8
TORSDOF 6
ENDMDL
MODEL      310
REMARK 921   NORMALIZED FREE ENERGY PREDICTED BY IDOCK:   -3.15 KCAL/MOL
REMARK 922        TOTAL FREE ENERGY PREDICTED BY IDOCK:   -5.68 KCAL/MOL
REMARK 923 INTER-LIGAND FREE ENERGY PREDICTED BY IDOCK:   -5.19 KCAL/MOL
REMARK 924 INTRA-LIGAND FREE ENERGY PREDICTED BY IDOCK:   -0.48 KCAL/MOL
REMARK 927      BINDING AFFINITY PREDICTED BY RF-SCORE:    0.00 PKD
ROOT
HETATM    1  CA  UNL     1     -10.966   7.758  70.020  1.00  0.00    -0.214 C  
HETATM    2  C   UNL     1     -10.888   6.430  70.866  1.00  0.00    -0.263 C  
HETATM    3  N   UNL     1     -11.875   8.726  70.733  1.00  0.00    -0.425 NA 
HETATM    4  OXT UNL     1     -10.734   5.376  70.182  1.00  0.00    -0.298 OA 
HETATM    5  H2  UNL     1     -11.884   9.650  70.301  1.00  0.00     0.000 HD 
HETATM    6  O   UNL     1     -11.001   6.584  72.114  1.00  0.00    -0.231 OA 
HETATM    7  H1  UNL     1     -12.803   8.306  70.786  1.00  0.00     0.000 HD 
ENDROOT
BRANCH   1   8
HETATM    8  C   UNL     1      -9.576   8.387  69.941  1.00  0.00    -0.171 C  
BRANCH   8   9
HETATM    9  C   UNL     1      -8.471   7.429  69.484  1.00  0.00    -0.133 C  
BRANCH   9  10
HETATM   10  S   UNL     1      -7.760   7.994  67.873  1.00  0.00    -0.116 S  
HETATM   11  C   UNL     1      -8.972   7.119  66.838  1.00  0.00    -0.134 C  
BRANCH  10  12
HETATM   12  C   UNL     1      -8.592   9.637  67.838  1.00  0.00    -0.122 C  
BRANCH  12  13
HETATM   13  C   UNL     1      -7.556  10.770  67.851  1.00  0.00    -0.091 C  
HETATM   14  O   UNL     1      -8.099  11.960  67.247  1.00  0.00    -0.154 OA 
HETATM   15  C   UNL     1      -7.274  13.039  67.684  1.00  0.00    -0.151 C  
HETATM   16  C   UNL     1      -6.966  12.733  69.152  1.00  0.00    -0.015 C  
HETATM   17  H   UNL     1      -5.676  10.843  70.545  1.00  0.00     0.000 HD 
HETATM   18  O   UNL     1      -5.638  13.123  69.526  1.00  0.00    -0.079 OA 
HETATM   19  C   UNL     1      -7.140  11.210  69.257  1.00  0.00    -0.123 C  
HETATM   20  O   UNL     1      -5.934  10.570  69.672  1.00  0.00    -0.043 OA 
HETATM   21  H   UNL     1      -5.447  12.934  70.437  1.00  0.00     0.000 HD 
BRANCH  15  22
HETATM   22  N   UNL     1      -7.945  14.296  67.421  1.00  0.00    -0.191 NA 
HETATM   23  C   UNL     1      -7.350  15.485  67.094  1.00  0.00    -0.191 A  
HETATM   24  C   UNL     1      -9.363  15.942  67.637  1.00  0.00    -0.217 A  
HETATM   25  N   UNL     1      -8.177  16.504  67.224  1.00  0.00    -0.165 NA 
HETATM   26  C   UNL     1     -10.602  16.496  68.001  1.00  0.00    -0.328 A  
HETATM   27  N   UNL     1     -11.622  15.659  68.300  1.00  0.00    -0.353 NA 
HETATM   28  N   UNL     1     -10.828  17.862  68.096  1.00  0.00    -0.262 NA 
HETATM   29  H2  UNL     1     -10.561  18.276  67.203  1.00  0.00     0.000 HD 
HETATM   30  C   UNL     1     -11.384  14.331  68.288  1.00  0.00    -0.289 A  
HETATM   31  H1  UNL     1     -11.727  18.264  68.361  1.00  0.00     0.000 HD 
HETATM   32  N   UNL     1     -10.223  13.683  68.044  1.00  0.00    -0.242 NA 
HETATM   33  C   UNL     1      -9.258  14.561  67.707  1.00  0.00    -0.194 A  
ENDBRANCH  15  22
ENDBRANCH  12  13
ENDBRANCH  10  12
ENDBRANCH   9  10
ENDBRANCH   8   9
ENDBRANCH   1   8
TORSDOF 6
ENDMDL
MODEL      311
REMARK 921   NORMALIZED FREE ENERGY PREDICTED BY IDOCK:   -3.15 KCAL/MOL
REMARK 922        TOTAL FREE ENERGY PREDICTED BY IDOCK:   -5.67 KCAL/MOL
REMARK 923 INTER-LIGAND FREE ENERGY PREDICTED BY IDOCK:   -5.05 KCAL/MOL
REMARK 924 INTRA-LIGAND FREE ENERGY PREDICTED BY IDOCK:   -0.62 KCAL/MOL
REMARK 927      BINDING AFFINITY PREDICTED BY RF-SCORE:    0.00 PKD
ROOT
HETATM    1  CA  UNL     1      -7.072  13.660  67.468  1.00  0.00    -0.152 C  
HETATM    2  C   UNL     1      -7.646  15.028  68.002  1.00  0.00    -0.119 C  
HETATM    3  N   UNL     1      -5.581  13.650  67.686  1.00  0.00    -0.321 NA 
HETATM    4  OXT UNL     1      -8.655  15.460  67.372  1.00  0.00    -0.161 OA 
HETATM    5  H2  UNL     1      -5.157  12.749  67.468  1.00  0.00     0.000 HD 
HETATM    6  O   UNL     1      -7.020  15.525  68.979  1.00  0.00    -0.123 OA 
HETATM    7  H1  UNL     1      -5.178  14.416  67.147  1.00  0.00     0.000 HD 
ENDROOT
BRANCH   1   8
HETATM    8  C   UNL     1      -7.676  12.512  68.274  1.00  0.00    -0.141 C  
BRANCH   8   9
HETATM    9  C   UNL     1      -9.206  12.458  68.254  1.00  0.00    -0.189 C  
BRANCH   9  10
HETATM   10  S   UNL     1      -9.787  11.185  67.045  1.00  0.00    -0.188 S  
HETATM   11  C   UNL     1     -10.151  12.370  65.716  1.00  0.00    -0.253 C  
BRANCH  10  12
HETATM   12  C   UNL     1      -8.118  10.689  66.442  1.00  0.00    -0.148 C  
BRANCH  12  13
HETATM   13  C   UNL     1      -7.923   9.172  66.571  1.00  0.00    -0.100 C  
HETATM   14  O   UNL     1      -8.515   8.687  67.792  1.00  0.00    -0.124 OA 
HETATM   15  C   UNL     1      -8.676   7.280  67.623  1.00  0.00    -0.125 C  
HETATM   16  C   UNL     1      -9.130   7.104  66.171  1.00  0.00    -0.119 C  
HETATM   17  H   UNL     1      -8.131   7.543  63.725  1.00  0.00     0.000 HD 
HETATM   18  O   UNL     1      -8.590   5.921  65.568  1.00  0.00    -0.151 OA 
HETATM   19  C   UNL     1      -8.610   8.366  65.465  1.00  0.00    -0.176 C  
HETATM   20  O   UNL     1      -7.705   8.044  64.411  1.00  0.00    -0.114 OA 
HETATM   21  H   UNL     1      -8.872   5.812  64.667  1.00  0.00     0.000 HD 
BRANCH  15  22
HETATM   22  N   UNL     1      -9.575   6.773  68.639  1.00  0.00    -0.132 NA 
HETATM   23  C   UNL     1     -10.890   6.428  68.466  1.00  0.00    -0.314 A  
HETATM   24  C   UNL     1     -10.569   6.565  70.572  1.00  0.00    -0.234 A  
HETATM   25  N   UNL     1     -11.524   6.304  69.616  1.00  0.00    -0.429 NA 
HETATM   26  C   UNL     1     -10.625   6.648  71.974  1.00  0.00    -0.211 A  
HETATM   27  N   UNL     1      -9.475   6.855  72.656  1.00  0.00    -0.142 NA 
HETATM   28  N   UNL     1     -11.806   6.556  72.697  1.00  0.00    -0.504 NA 
HETATM   29  H2  UNL     1     -12.259   5.683  72.427  1.00  0.00     0.000 HD 
HETATM   30  C   UNL     1      -8.336   7.026  71.952  1.00  0.00    -0.106 A  
HETATM   31  H1  UNL     1     -11.847   6.617  73.714  1.00  0.00     0.000 HD 
HETATM   32  N   UNL     1      -8.168   7.057  70.612  1.00  0.00    -0.117 NA 
HETATM   33  C   UNL     1      -9.334   6.799  69.987  1.00  0.00    -0.158 A  
ENDBRANCH  15  22
ENDBRANCH  12  13
ENDBRANCH  10  12
ENDBRANCH   9  10
ENDBRANCH   8   9
ENDBRANCH   1   8
TORSDOF 6
ENDMDL
MODEL      312
REMARK 921   NORMALIZED FREE ENERGY PREDICTED BY IDOCK:   -3.13 KCAL/MOL
REMARK 922        TOTAL FREE ENERGY PREDICTED BY IDOCK:   -5.65 KCAL/MOL
REMARK 923 INTER-LIGAND FREE ENERGY PREDICTED BY IDOCK:   -4.95 KCAL/MOL
REMARK 924 INTRA-LIGAND FREE ENERGY PREDICTED BY IDOCK:   -0.71 KCAL/MOL
REMARK 927      BINDING AFFINITY PREDICTED BY RF-SCORE:    0.00 PKD
ROOT
HETATM    1  CA  UNL     1     -11.704  14.414  66.791  1.00  0.00    -0.397 C  
HETATM    2  C   UNL     1     -11.088  15.566  67.672  1.00  0.00    -0.311 C  
HETATM    3  N   UNL     1     -11.820  14.908  65.372  1.00  0.00    -0.250 NA 
HETATM    4  OXT UNL     1     -11.488  15.586  68.873  1.00  0.00    -0.309 OA 
HETATM    5  H2  UNL     1     -12.107  14.176  64.722  1.00  0.00     0.000 HD 
HETATM    6  O   UNL     1     -10.284  16.329  67.068  1.00  0.00    -0.269 OA 
HETATM    7  H1  UNL     1     -12.452  15.708  65.367  1.00  0.00     0.000 HD 
ENDROOT
BRANCH   1   8
HETATM    8  C   UNL     1     -10.759  13.214  66.798  1.00  0.00    -0.274 C  
BRANCH   8   9
HETATM    9  C   UNL     1     -11.410  11.890  66.387  1.00  0.00    -0.339 C  
BRANCH   9  10
HETATM   10  S   UNL     1     -10.123  10.575  66.197  1.00  0.00    -0.243 S  
HETATM   11  C   UNL     1     -10.164  10.561  64.380  1.00  0.00    -0.267 C  
BRANCH  10  12
HETATM   12  C   UNL     1      -8.661  11.683  66.372  1.00  0.00    -0.143 C  
BRANCH  12  13
HETATM   13  C   UNL     1      -7.585  11.027  67.248  1.00  0.00    -0.111 C  
HETATM   14  O   UNL     1      -8.167  10.497  68.455  1.00  0.00    -0.111 OA 
HETATM   15  C   UNL     1      -7.226   9.559  68.972  1.00  0.00    -0.071 C  
HETATM   16  C   UNL     1      -6.677   8.830  67.741  1.00  0.00    -0.066 C  
HETATM   17  H   UNL     1      -5.254   9.445  65.556  1.00  0.00     0.000 HD 
HETATM   18  O   UNL     1      -5.286   8.507  67.871  1.00  0.00    -0.034 OA 
HETATM   19  C   UNL     1      -6.904   9.823  66.591  1.00  0.00    -0.084 C  
HETATM   20  O   UNL     1      -5.677  10.191  65.964  1.00  0.00    -0.057 OA 
HETATM   21  H   UNL     1      -4.946   8.056  67.108  1.00  0.00     0.000 HD 
BRANCH  15  22
HETATM   22  N   UNL     1      -7.870   8.730  69.970  1.00  0.00    -0.089 NA 
HETATM   23  C   UNL     1      -7.407   8.465  71.231  1.00  0.00    -0.086 A  
HETATM   24  C   UNL     1      -8.954   7.046  70.840  1.00  0.00    -0.152 A  
HETATM   25  N   UNL     1      -8.035   7.445  71.784  1.00  0.00    -0.090 NA 
HETATM   26  C   UNL     1      -9.877   5.987  70.800  1.00  0.00    -0.181 A  
HETATM   27  N   UNL     1     -10.713   5.899  69.739  1.00  0.00    -0.309 NA 
HETATM   28  N   UNL     1      -9.960   5.010  71.781  1.00  0.00    -0.184 NA 
HETATM   29  H2  UNL     1     -10.084   5.486  72.674  1.00  0.00     0.000 HD 
HETATM   30  C   UNL     1     -10.581   6.800  68.744  1.00  0.00    -0.226 A  
HETATM   31  H1  UNL     1     -10.630   4.241  71.752  1.00  0.00     0.000 HD 
HETATM   32  N   UNL     1      -9.682   7.801  68.625  1.00  0.00    -0.154 NA 
HETATM   33  C   UNL     1      -8.910   7.872  69.727  1.00  0.00    -0.141 A  
ENDBRANCH  15  22
ENDBRANCH  12  13
ENDBRANCH  10  12
ENDBRANCH   9  10
ENDBRANCH   8   9
ENDBRANCH   1   8
TORSDOF 6
ENDMDL
MODEL      313
REMARK 921   NORMALIZED FREE ENERGY PREDICTED BY IDOCK:   -3.10 KCAL/MOL
REMARK 922        TOTAL FREE ENERGY PREDICTED BY IDOCK:   -5.61 KCAL/MOL
REMARK 923 INTER-LIGAND FREE ENERGY PREDICTED BY IDOCK:   -5.51 KCAL/MOL
REMARK 924 INTRA-LIGAND FREE ENERGY PREDICTED BY IDOCK:   -0.10 KCAL/MOL
REMARK 927      BINDING AFFINITY PREDICTED BY RF-SCORE:    0.00 PKD
ROOT
HETATM    1  CA  UNL     1      -6.970   8.038  69.331  1.00  0.00    -0.055 C  
HETATM    2  C   UNL     1      -7.126   6.853  70.359  1.00  0.00    -0.067 C  
HETATM    3  N   UNL     1      -6.039   7.596  68.231  1.00  0.00    -0.035 NA 
HETATM    4  OXT UNL     1      -7.306   7.214  71.559  1.00  0.00    -0.076 OA 
HETATM    5  H2  UNL     1      -5.980   8.272  67.470  1.00  0.00     0.000 HD 
HETATM    6  O   UNL     1      -7.039   5.697  69.859  1.00  0.00    -0.063 OA 
HETATM    7  H1  UNL     1      -5.132   7.391  68.648  1.00  0.00     0.000 HD 
ENDROOT
BRANCH   1   8
HETATM    8  C   UNL     1      -8.329   8.344  68.706  1.00  0.00    -0.116 C  
BRANCH   8   9
HETATM    9  C   UNL     1      -8.384   9.655  67.915  1.00  0.00    -0.117 C  
BRANCH   9  10
HETATM   10  S   UNL     1     -10.124  10.271  67.816  1.00  0.00    -0.190 S  
HETATM   11  C   UNL     1     -10.178  10.902  69.520  1.00  0.00    -0.062 C  
BRANCH  10  12
HETATM   12  C   UNL     1      -9.734  11.878  67.002  1.00  0.00    -0.194 C  
BRANCH  12  13
HETATM   13  C   UNL     1     -10.067  13.052  67.932  1.00  0.00    -0.235 C  
HETATM   14  O   UNL     1      -9.288  14.212  67.583  1.00  0.00    -0.198 OA 
HETATM   15  C   UNL     1      -9.950  15.329  68.174  1.00  0.00    -0.221 C  
HETATM   16  C   UNL     1     -11.443  15.052  67.979  1.00  0.00    -0.342 C  
HETATM   17  H   UNL     1     -13.234  13.232  68.790  1.00  0.00     0.000 HD 
HETATM   18  O   UNL     1     -12.233  15.501  69.088  1.00  0.00    -0.565 OA 
HETATM   19  C   UNL     1     -11.521  13.524  67.834  1.00  0.00    -0.318 C  
HETATM   20  O   UNL     1     -12.333  12.939  68.851  1.00  0.00    -0.093 OA 
HETATM   21  H   UNL     1     -13.159  15.329  68.968  1.00  0.00     0.000 HD 
BRANCH  15  22
HETATM   22  N   UNL     1      -9.446  16.554  67.587  1.00  0.00    -0.224 NA 
HETATM   23  C   UNL     1     -10.159  17.452  66.838  1.00  0.00    -0.314 A  
HETATM   24  C   UNL     1      -8.096  17.921  66.550  1.00  0.00    -0.272 A  
HETATM   25  N   UNL     1      -9.372  18.289  66.189  1.00  0.00    -0.503 NA 
HETATM   26  C   UNL     1      -6.827  18.380  66.157  1.00  0.00    -0.251 A  
HETATM   27  N   UNL     1      -5.735  17.854  66.758  1.00  0.00    -0.142 NA 
HETATM   28  N   UNL     1      -6.634  19.329  65.164  1.00  0.00    -0.419 NA 
HETATM   29  H2  UNL     1      -7.188  20.148  65.415  1.00  0.00     0.000 HD 
HETATM   30  C   UNL     1      -5.915  16.873  67.667  1.00  0.00    -0.139 A  
HETATM   31  H1  UNL     1      -5.713  19.663  64.879  1.00  0.00     0.000 HD 
HETATM   32  N   UNL     1      -7.067  16.288  68.061  1.00  0.00    -0.129 NA 
HETATM   33  C   UNL     1      -8.122  16.882  67.467  1.00  0.00    -0.173 A  
ENDBRANCH  15  22
ENDBRANCH  12  13
ENDBRANCH  10  12
ENDBRANCH   9  10
ENDBRANCH   8   9
ENDBRANCH   1   8
TORSDOF 6
ENDMDL
MODEL      314
REMARK 921   NORMALIZED FREE ENERGY PREDICTED BY IDOCK:   -3.04 KCAL/MOL
REMARK 922        TOTAL FREE ENERGY PREDICTED BY IDOCK:   -5.53 KCAL/MOL
REMARK 923 INTER-LIGAND FREE ENERGY PREDICTED BY IDOCK:   -5.04 KCAL/MOL
REMARK 924 INTRA-LIGAND FREE ENERGY PREDICTED BY IDOCK:   -0.49 KCAL/MOL
REMARK 927      BINDING AFFINITY PREDICTED BY RF-SCORE:    0.00 PKD
ROOT
HETATM    1  CA  UNL     1     -12.607  14.821  72.257  1.00  0.00    -0.335 C  
HETATM    2  C   UNL     1     -12.760  15.207  70.736  1.00  0.00    -0.405 C  
HETATM    3  N   UNL     1     -13.508  15.716  73.070  1.00  0.00    -0.551 NA 
HETATM    4  OXT UNL     1     -11.713  15.050  70.043  1.00  0.00    -0.267 OA 
HETATM    5  H2  UNL     1     -13.546  15.448  74.053  1.00  0.00     0.000 HD 
HETATM    6  O   UNL     1     -13.901  15.635  70.405  1.00  0.00    -0.096 OA 
HETATM    7  H1  UNL     1     -13.201  16.679  72.935  1.00  0.00     0.000 HD 
ENDROOT
BRANCH   1   8
HETATM    8  C   UNL     1     -13.066  13.379  72.459  1.00  0.00    -0.424 C  
BRANCH   8   9
HETATM    9  C   UNL     1     -13.354  12.616  71.162  1.00  0.00     0.241 C  
BRANCH   9  10
HETATM   10  S   UNL     1     -11.983  11.428  70.800  1.00  0.00    -0.131 S  
HETATM   11  C   UNL     1     -12.978   9.933  71.080  1.00  0.00    -0.369 C  
BRANCH  10  12
HETATM   12  C   UNL     1     -12.153  11.461  68.966  1.00  0.00    -0.249 C  
BRANCH  12  13
HETATM   13  C   UNL     1     -10.784  11.302  68.292  1.00  0.00    -0.194 C  
HETATM   14  O   UNL     1     -10.331   9.937  68.378  1.00  0.00    -0.180 OA 
HETATM   15  C   UNL     1      -9.316   9.791  67.387  1.00  0.00    -0.134 C  
HETATM   16  C   UNL     1      -9.825  10.584  66.180  1.00  0.00    -0.217 C  
HETATM   17  H   UNL     1     -10.393  13.135  65.593  1.00  0.00     0.000 HD 
HETATM   18  O   UNL     1      -8.767  11.243  65.472  1.00  0.00    -0.333 OA 
HETATM   19  C   UNL     1     -10.795  11.607  66.791  1.00  0.00    -0.277 C  
HETATM   20  O   UNL     1     -10.385  12.946  66.524  1.00  0.00    -0.257 OA 
HETATM   21  H   UNL     1      -9.082  11.735  64.723  1.00  0.00     0.000 HD 
BRANCH  15  22
HETATM   22  N   UNL     1      -9.060   8.383  67.163  1.00  0.00    -0.136 NA 
HETATM   23  C   UNL     1      -9.510   7.340  67.929  1.00  0.00    -0.135 A  
HETATM   24  C   UNL     1      -7.970   6.554  66.676  1.00  0.00    -0.109 A  
HETATM   25  N   UNL     1      -8.865   6.220  67.667  1.00  0.00    -0.112 NA 
HETATM   26  C   UNL     1      -6.967   5.825  66.015  1.00  0.00    -0.059 A  
HETATM   27  N   UNL     1      -6.286   6.426  65.012  1.00  0.00    -0.030 NA 
HETATM   28  N   UNL     1      -6.620   4.525  66.355  1.00  0.00    -0.045 NA 
HETATM   29  H2  UNL     1      -7.472   3.966  66.323  1.00  0.00     0.000 HD 
HETATM   30  C   UNL     1      -6.565   7.716  64.732  1.00  0.00    -0.044 A  
HETATM   31  H1  UNL     1      -5.892   3.996  65.875  1.00  0.00     0.000 HD 
HETATM   32  N   UNL     1      -7.435   8.545  65.349  1.00  0.00    -0.084 NA 
HETATM   33  C   UNL     1      -8.117   7.882  66.305  1.00  0.00    -0.110 A  
ENDBRANCH  15  22
ENDBRANCH  12  13
ENDBRANCH  10  12
ENDBRANCH   9  10
ENDBRANCH   8   9
ENDBRANCH   1   8
TORSDOF 6
ENDMDL
MODEL      315
REMARK 921   NORMALIZED FREE ENERGY PREDICTED BY IDOCK:   -3.03 KCAL/MOL
REMARK 922        TOTAL FREE ENERGY PREDICTED BY IDOCK:   -5.51 KCAL/MOL
REMARK 923 INTER-LIGAND FREE ENERGY PREDICTED BY IDOCK:   -4.36 KCAL/MOL
REMARK 924 INTRA-LIGAND FREE ENERGY PREDICTED BY IDOCK:   -1.15 KCAL/MOL
REMARK 927      BINDING AFFINITY PREDICTED BY RF-SCORE:    0.00 PKD
ROOT
HETATM    1  CA  UNL     1      -8.344  10.367  68.566  1.00  0.00    -0.124 C  
HETATM    2  C   UNL     1      -6.943  10.853  69.100  1.00  0.00    -0.096 C  
HETATM    3  N   UNL     1      -9.423  11.020  69.391  1.00  0.00    -0.419 NA 
HETATM    4  OXT UNL     1      -6.012  10.001  68.995  1.00  0.00    -0.038 OA 
HETATM    5  H2  UNL     1     -10.359  10.840  69.029  1.00  0.00     0.000 HD 
HETATM    6  O   UNL     1      -6.929  12.022  69.577  1.00  0.00    -0.045 OA 
HETATM    7  H1  UNL     1      -9.308  10.716  70.358  1.00  0.00     0.000 HD 
ENDROOT
BRANCH   1   8
HETATM    8  C   UNL     1      -8.516  10.822  67.118  1.00  0.00    -0.126 C  
BRANCH   8   9
HETATM    9  C   UNL     1      -7.663  10.052  66.105  1.00  0.00    -0.108 C  
BRANCH   9  10
HETATM   10  S   UNL     1      -8.665   8.718  65.307  1.00  0.00    -0.155 S  
HETATM   11  C   UNL     1      -8.461   9.344  63.613  1.00  0.00    -0.200 C  
BRANCH  10  12
HETATM   12  C   UNL     1      -7.322   7.458  65.236  1.00  0.00    -0.076 C  
BRANCH  12  13
HETATM   13  C   UNL     1      -7.064   6.861  66.626  1.00  0.00    -0.071 C  
HETATM   14  O   UNL     1      -8.157   7.160  67.517  1.00  0.00    -0.111 OA 
HETATM   15  C   UNL     1      -8.054   6.235  68.597  1.00  0.00    -0.109 C  
HETATM   16  C   UNL     1      -7.649   4.909  67.946  1.00  0.00    -0.083 C  
HETATM   17  H   UNL     1      -5.561   3.939  66.577  1.00  0.00     0.000 HD 
HETATM   18  O   UNL     1      -6.750   4.149  68.764  1.00  0.00    -0.044 OA 
HETATM   19  C   UNL     1      -6.972   5.332  66.634  1.00  0.00    -0.064 C  
HETATM   20  O   UNL     1      -5.619   4.887  66.572  1.00  0.00    -0.016 OA 
HETATM   21  H   UNL     1      -6.499   3.327  68.360  1.00  0.00     0.000 HD 
BRANCH  15  22
HETATM   22  N   UNL     1      -9.294   6.227  69.345  1.00  0.00    -0.140 NA 
HETATM   23  C   UNL     1     -10.451   5.580  68.999  1.00  0.00    -0.226 A  
HETATM   24  C   UNL     1     -10.965   6.962  70.544  1.00  0.00    -0.273 A  
HETATM   25  N   UNL     1     -11.484   6.008  69.698  1.00  0.00    -0.294 NA 
HETATM   26  C   UNL     1     -11.556   7.819  71.487  1.00  0.00    -0.270 A  
HETATM   27  N   UNL     1     -10.752   8.614  72.231  1.00  0.00    -0.346 NA 
HETATM   28  N   UNL     1     -12.927   7.914  71.678  1.00  0.00    -0.331 NA 
HETATM   29  H2  UNL     1     -13.272   6.972  71.866  1.00  0.00     0.000 HD 
HETATM   30  C   UNL     1      -9.424   8.584  71.992  1.00  0.00    -0.294 A  
HETATM   31  H1  UNL     1     -13.356   8.536  72.363  1.00  0.00     0.000 HD 
HETATM   32  N   UNL     1      -8.750   7.876  71.060  1.00  0.00    -0.130 NA 
HETATM   33  C   UNL     1      -9.592   7.070  70.383  1.00  0.00    -0.169 A  
ENDBRANCH  15  22
ENDBRANCH  12  13
ENDBRANCH  10  12
ENDBRANCH   9  10
ENDBRANCH   8   9
ENDBRANCH   1   8
TORSDOF 6
ENDMDL
MODEL      316
REMARK 921   NORMALIZED FREE ENERGY PREDICTED BY IDOCK:   -2.96 KCAL/MOL
REMARK 922        TOTAL FREE ENERGY PREDICTED BY IDOCK:   -5.42 KCAL/MOL
REMARK 923 INTER-LIGAND FREE ENERGY PREDICTED BY IDOCK:   -4.47 KCAL/MOL
REMARK 924 INTRA-LIGAND FREE ENERGY PREDICTED BY IDOCK:   -0.95 KCAL/MOL
REMARK 927      BINDING AFFINITY PREDICTED BY RF-SCORE:    0.00 PKD
ROOT
HETATM    1  CA  UNL     1      -8.266  10.349  68.803  1.00  0.00    -0.128 C  
HETATM    2  C   UNL     1      -7.242  10.772  69.924  1.00  0.00    -0.050 C  
HETATM    3  N   UNL     1      -9.011  11.578  68.348  1.00  0.00    -0.173 NA 
HETATM    4  OXT UNL     1      -7.026   9.888  70.804  1.00  0.00    -0.272 OA 
HETATM    5  H2  UNL     1      -9.612  11.399  67.544  1.00  0.00     0.000 HD 
HETATM    6  O   UNL     1      -6.777  11.940  69.810  1.00  0.00    -0.075 OA 
HETATM    7  H1  UNL     1      -9.522  11.951  69.148  1.00  0.00     0.000 HD 
ENDROOT
BRANCH   1   8
HETATM    8  C   UNL     1      -7.501   9.790  67.606  1.00  0.00    -0.091 C  
BRANCH   8   9
HETATM    9  C   UNL     1      -6.634   8.566  67.921  1.00  0.00    -0.061 C  
BRANCH   9  10
HETATM   10  S   UNL     1      -7.649   7.023  67.833  1.00  0.00    -0.113 S  
HETATM   11  C   UNL     1      -6.807   6.352  66.368  1.00  0.00    -0.061 C  
BRANCH  10  12
HETATM   12  C   UNL     1      -6.694   6.070  69.088  1.00  0.00    -0.060 C  
BRANCH  12  13
HETATM   13  C   UNL     1      -6.915   6.648  70.492  1.00  0.00    -0.064 C  
HETATM   14  O   UNL     1      -8.277   7.094  70.648  1.00  0.00    -0.115 OA 
HETATM   15  C   UNL     1      -8.504   7.196  72.052  1.00  0.00    -0.107 C  
HETATM   16  C   UNL     1      -7.790   5.983  72.657  1.00  0.00    -0.104 C  
HETATM   17  H   UNL     1      -5.279   5.074  72.868  1.00  0.00     0.000 HD 
HETATM   18  O   UNL     1      -7.195   6.276  73.928  1.00  0.00    -0.086 OA 
HETATM   19  C   UNL     1      -6.716   5.629  71.617  1.00  0.00    -0.058 C  
HETATM   20  O   UNL     1      -5.403   5.706  72.170  1.00  0.00    -0.016 OA 
HETATM   21  H   UNL     1      -6.752   5.525  74.304  1.00  0.00     0.000 HD 
BRANCH  15  22
HETATM   22  N   UNL     1      -9.926   7.291  72.304  1.00  0.00    -0.167 NA 
HETATM   23  C   UNL     1     -10.752   6.277  72.712  1.00  0.00    -0.242 A  
HETATM   24  C   UNL     1     -12.018   7.857  72.036  1.00  0.00    -0.319 A  
HETATM   25  N   UNL     1     -12.026   6.582  72.554  1.00  0.00    -0.141 NA 
HETATM   26  C   UNL     1     -13.045   8.711  71.599  1.00  0.00    -0.346 A  
HETATM   27  N   UNL     1     -12.718   9.962  71.199  1.00  0.00    -0.347 NA 
HETATM   28  N   UNL     1     -14.377   8.330  71.532  1.00  0.00    -0.565 NA 
HETATM   29  H2  UNL     1     -14.642   7.986  72.455  1.00  0.00     0.000 HD 
HETATM   30  C   UNL     1     -11.415  10.310  71.187  1.00  0.00    -0.237 A  
HETATM   31  H1  UNL     1     -15.123   8.950  71.215  1.00  0.00     0.000 HD 
HETATM   32  N   UNL     1     -10.337   9.556  71.494  1.00  0.00    -0.191 NA 
HETATM   33  C   UNL     1     -10.723   8.340  71.930  1.00  0.00    -0.283 A  
ENDBRANCH  15  22
ENDBRANCH  12  13
ENDBRANCH  10  12
ENDBRANCH   9  10
ENDBRANCH   8   9
ENDBRANCH   1   8
TORSDOF 6
ENDMDL
MODEL      317
REMARK 921   NORMALIZED FREE ENERGY PREDICTED BY IDOCK:   -2.94 KCAL/MOL
REMARK 922        TOTAL FREE ENERGY PREDICTED BY IDOCK:   -5.39 KCAL/MOL
REMARK 923 INTER-LIGAND FREE ENERGY PREDICTED BY IDOCK:   -4.13 KCAL/MOL
REMARK 924 INTRA-LIGAND FREE ENERGY PREDICTED BY IDOCK:   -1.25 KCAL/MOL
REMARK 927      BINDING AFFINITY PREDICTED BY RF-SCORE:    0.00 PKD
ROOT
HETATM    1  CA  UNL     1     -11.889   7.148  70.942  1.00  0.00    -0.339 C  
HETATM    2  C   UNL     1     -11.267   6.469  72.221  1.00  0.00    -0.273 C  
HETATM    3  N   UNL     1     -11.655   8.634  71.029  1.00  0.00    -0.278 NA 
HETATM    4  OXT UNL     1     -11.877   5.433  72.620  1.00  0.00    -0.247 OA 
HETATM    5  H2  UNL     1     -11.931   9.127  70.180  1.00  0.00     0.000 HD 
HETATM    6  O   UNL     1     -10.251   7.049  72.694  1.00  0.00    -0.181 OA 
HETATM    7  H1  UNL     1     -12.134   8.981  71.860  1.00  0.00     0.000 HD 
ENDROOT
BRANCH   1   8
HETATM    8  C   UNL     1     -11.172   6.628  69.698  1.00  0.00    -0.397 C  
BRANCH   8   9
HETATM    9  C   UNL     1     -10.328   7.677  68.966  1.00  0.00    -0.213 C  
BRANCH   9  10
HETATM   10  S   UNL     1     -10.495   7.470  67.136  1.00  0.00    -0.343 S  
HETATM   11  C   UNL     1     -10.419   9.246  66.758  1.00  0.00    -0.193 C  
BRANCH  10  12
HETATM   12  C   UNL     1      -8.721   7.102  66.802  1.00  0.00    -0.127 C  
BRANCH  12  13
HETATM   13  C   UNL     1      -8.479   5.586  66.766  1.00  0.00    -0.111 C  
HETATM   14  O   UNL     1      -8.228   5.081  68.092  1.00  0.00    -0.096 OA 
HETATM   15  C   UNL     1      -8.449   3.673  68.029  1.00  0.00    -0.093 C  
HETATM   16  C   UNL     1      -9.675   3.505  67.126  1.00  0.00    -0.008 C  
HETATM   17  H   UNL     1     -10.325   3.982  64.572  1.00  0.00     0.000 HD 
HETATM   18  O   UNL     1      -9.592   2.336  66.301  1.00  0.00    -0.364 OA 
HETATM   19  C   UNL     1      -9.683   4.781  66.270  1.00  0.00    -0.196 C  
HETATM   20  O   UNL     1      -9.578   4.482  64.880  1.00  0.00    -0.159 OA 
HETATM   21  H   UNL     1     -10.352   2.231  65.742  1.00  0.00     0.000 HD 
BRANCH  15  22
HETATM   22  N   UNL     1      -8.568   3.143  69.371  1.00  0.00    -0.062 NA 
HETATM   23  C   UNL     1      -9.628   3.309  70.223  1.00  0.00    -0.127 A  
HETATM   24  C   UNL     1      -8.006   2.579  71.405  1.00  0.00    -0.050 A  
HETATM   25  N   UNL     1      -9.320   2.986  71.465  1.00  0.00    -0.120 NA 
HETATM   26  C   UNL     1      -7.092   2.172  72.391  1.00  0.00    -0.027 A  
HETATM   27  N   UNL     1      -5.865   1.754  72.001  1.00  0.00    -0.008 NA 
HETATM   28  N   UNL     1      -7.372   2.199  73.750  1.00  0.00    -0.035 NA 
HETATM   29  H2  UNL     1      -8.230   1.666  73.893  1.00  0.00     0.000 HD 
HETATM   30  C   UNL     1      -5.560   1.802  70.688  1.00  0.00    -0.012 A  
HETATM   31  H1  UNL     1      -6.708   1.903  74.465  1.00  0.00     0.000 HD 
HETATM   32  N   UNL     1      -6.314   2.255  69.662  1.00  0.00    -0.028 NA 
HETATM   33  C   UNL     1      -7.537   2.612  70.101  1.00  0.00    -0.043 A  
ENDBRANCH  15  22
ENDBRANCH  12  13
ENDBRANCH  10  12
ENDBRANCH   9  10
ENDBRANCH   8   9
ENDBRANCH   1   8
TORSDOF 6
ENDMDL
MODEL      318
REMARK 921   NORMALIZED FREE ENERGY PREDICTED BY IDOCK:   -2.93 KCAL/MOL
REMARK 922        TOTAL FREE ENERGY PREDICTED BY IDOCK:   -5.38 KCAL/MOL
REMARK 923 INTER-LIGAND FREE ENERGY PREDICTED BY IDOCK:   -6.06 KCAL/MOL
REMARK 924 INTRA-LIGAND FREE ENERGY PREDICTED BY IDOCK:    0.68 KCAL/MOL
REMARK 927      BINDING AFFINITY PREDICTED BY RF-SCORE:    0.00 PKD
ROOT
HETATM    1  CA  UNL     1     -11.369   8.208  72.102  1.00  0.00    -0.336 C  
HETATM    2  C   UNL     1     -11.723   7.253  70.899  1.00  0.00    -0.315 C  
HETATM    3  N   UNL     1     -12.620   8.446  72.907  1.00  0.00    -0.651 NA 
HETATM    4  OXT UNL     1     -11.045   7.451  69.848  1.00  0.00    -0.251 OA 
HETATM    5  H2  UNL     1     -12.443   8.964  73.767  1.00  0.00     0.000 HD 
HETATM    6  O   UNL     1     -12.644   6.421  71.130  1.00  0.00    -0.096 OA 
HETATM    7  H1  UNL     1     -13.302   8.905  72.303  1.00  0.00     0.000 HD 
ENDROOT
BRANCH   1   8
HETATM    8  C   UNL     1     -10.348   7.521  73.006  1.00  0.00    -0.376 C  
BRANCH   8   9
HETATM    9  C   UNL     1      -8.975   8.200  73.045  1.00  0.00    -0.266 C  
BRANCH   9  10
HETATM   10  S   UNL     1      -7.635   6.929  73.138  1.00  0.00    -0.084 S  
HETATM   11  C   UNL     1      -8.718   5.581  73.696  1.00  0.00    -0.122 C  
BRANCH  10  12
HETATM   12  C   UNL     1      -7.639   6.486  71.349  1.00  0.00    -0.094 C  
BRANCH  12  13
HETATM   13  C   UNL     1      -7.233   7.690  70.490  1.00  0.00    -0.062 C  
HETATM   14  O   UNL     1      -7.959   7.694  69.246  1.00  0.00    -0.121 OA 
HETATM   15  C   UNL     1      -7.859   9.020  68.731  1.00  0.00    -0.096 C  
HETATM   16  C   UNL     1      -7.996   9.932  69.954  1.00  0.00    -0.182 C  
HETATM   17  H   UNL     1      -6.637  10.428  72.208  1.00  0.00     0.000 HD 
HETATM   18  O   UNL     1      -7.171  11.100  69.862  1.00  0.00    -0.347 OA 
HETATM   19  C   UNL     1      -7.561   9.043  71.129  1.00  0.00    -0.102 C  
HETATM   20  O   UNL     1      -6.434   9.588  71.812  1.00  0.00    -0.296 OA 
HETATM   21  H   UNL     1      -7.256  11.665  70.621  1.00  0.00     0.000 HD 
BRANCH  15  22
HETATM   22  N   UNL     1      -8.841   9.206  67.683  1.00  0.00    -0.120 NA 
HETATM   23  C   UNL     1      -9.407   8.226  66.912  1.00  0.00    -0.176 A  
HETATM   24  C   UNL     1      -9.845  10.082  65.952  1.00  0.00    -0.264 A  
HETATM   25  N   UNL     1     -10.015   8.720  65.851  1.00  0.00    -0.117 NA 
HETATM   26  C   UNL     1     -10.205  11.150  65.113  1.00  0.00    -0.289 A  
HETATM   27  N   UNL     1      -9.957  12.412  65.532  1.00  0.00    -0.260 NA 
HETATM   28  N   UNL     1     -10.778  10.976  63.861  1.00  0.00    -0.510 NA 
HETATM   29  H2  UNL     1     -11.608  10.396  63.985  1.00  0.00     0.000 HD 
HETATM   30  C   UNL     1      -9.327  12.583  66.712  1.00  0.00    -0.230 A  
HETATM   31  H1  UNL     1     -11.039  11.752  63.252  1.00  0.00     0.000 HD 
HETATM   32  N   UNL     1      -8.854  11.643  67.560  1.00  0.00    -0.154 NA 
HETATM   33  C   UNL     1      -9.169  10.410  67.118  1.00  0.00    -0.143 A  
ENDBRANCH  15  22
ENDBRANCH  12  13
ENDBRANCH  10  12
ENDBRANCH   9  10
ENDBRANCH   8   9
ENDBRANCH   1   8
TORSDOF 6
ENDMDL
MODEL      319
REMARK 921   NORMALIZED FREE ENERGY PREDICTED BY IDOCK:   -2.87 KCAL/MOL
REMARK 922        TOTAL FREE ENERGY PREDICTED BY IDOCK:   -5.30 KCAL/MOL
REMARK 923 INTER-LIGAND FREE ENERGY PREDICTED BY IDOCK:   -4.85 KCAL/MOL
REMARK 924 INTRA-LIGAND FREE ENERGY PREDICTED BY IDOCK:   -0.44 KCAL/MOL
REMARK 927      BINDING AFFINITY PREDICTED BY RF-SCORE:    0.00 PKD
ROOT
HETATM    1  CA  UNL     1      -7.520  13.907  68.498  1.00  0.00    -0.122 C  
HETATM    2  C   UNL     1      -6.102  14.556  68.724  1.00  0.00    -0.087 C  
HETATM    3  N   UNL     1      -8.446  14.393  69.584  1.00  0.00    -0.192 NA 
HETATM    4  OXT UNL     1      -5.126  13.835  68.361  1.00  0.00    -0.086 OA 
HETATM    5  H2  UNL     1      -9.412  14.103  69.437  1.00  0.00     0.000 HD 
HETATM    6  O   UNL     1      -6.117  15.705  69.247  1.00  0.00    -0.112 OA 
HETATM    7  H1  UNL     1      -8.072  14.082  70.480  1.00  0.00     0.000 HD 
ENDROOT
BRANCH   1   8
HETATM    8  C   UNL     1      -8.080  14.372  67.156  1.00  0.00    -0.171 C  
BRANCH   8   9
HETATM    9  C   UNL     1      -8.818  15.714  67.206  1.00  0.00    -0.198 C  
BRANCH   9  10
HETATM   10  S   UNL     1     -10.552  15.514  66.598  1.00  0.00    -0.305 S  
HETATM   11  C   UNL     1     -10.480  16.899  65.423  1.00  0.00    -0.154 C  
BRANCH  10  12
HETATM   12  C   UNL     1     -10.197  14.177  65.380  1.00  0.00    -0.358 C  
BRANCH  12  13
HETATM   13  C   UNL     1     -10.871  12.865  65.803  1.00  0.00    -0.269 C  
HETATM   14  O   UNL     1      -9.964  11.756  65.644  1.00  0.00    -0.227 OA 
HETATM   15  C   UNL     1     -10.488  10.696  66.442  1.00  0.00    -0.213 C  
HETATM   16  C   UNL     1     -10.999  11.375  67.716  1.00  0.00    -0.247 C  
HETATM   17  H   UNL     1     -12.885  13.157  68.383  1.00  0.00     0.000 HD 
HETATM   18  O   UNL     1     -12.191  10.763  68.224  1.00  0.00    -0.815 OA 
HETATM   19  C   UNL     1     -11.269  12.824  67.281  1.00  0.00    -0.295 C  
HETATM   20  O   UNL     1     -12.637  13.182  67.466  1.00  0.00     0.024 OA 
HETATM   21  H   UNL     1     -12.508  11.184  69.014  1.00  0.00     0.000 HD 
BRANCH  15  22
HETATM   22  N   UNL     1      -9.472   9.681  66.623  1.00  0.00    -0.161 NA 
HETATM   23  C   UNL     1      -9.163   9.035  67.791  1.00  0.00    -0.140 A  
HETATM   24  C   UNL     1      -7.557   8.648  66.439  1.00  0.00    -0.091 A  
HETATM   25  N   UNL     1      -8.005   8.407  67.718  1.00  0.00    -0.110 NA 
HETATM   26  C   UNL     1      -6.371   8.305  65.768  1.00  0.00    -0.052 A  
HETATM   27  N   UNL     1      -6.251   8.632  64.460  1.00  0.00    -0.066 NA 
HETATM   28  N   UNL     1      -5.301   7.671  66.384  1.00  0.00    -0.024 NA 
HETATM   29  H2  UNL     1      -5.661   6.820  66.816  1.00  0.00     0.000 HD 
HETATM   30  C   UNL     1      -7.255   9.320  63.878  1.00  0.00    -0.098 A  
HETATM   31  H1  UNL     1      -4.440   7.423  65.897  1.00  0.00     0.000 HD 
HETATM   32  N   UNL     1      -8.396   9.781  64.435  1.00  0.00    -0.154 NA 
HETATM   33  C   UNL     1      -8.484   9.388  65.721  1.00  0.00    -0.132 A  
ENDBRANCH  15  22
ENDBRANCH  12  13
ENDBRANCH  10  12
ENDBRANCH   9  10
ENDBRANCH   8   9
ENDBRANCH   1   8
TORSDOF 6
ENDMDL
MODEL      320
REMARK 921   NORMALIZED FREE ENERGY PREDICTED BY IDOCK:   -2.87 KCAL/MOL
REMARK 922        TOTAL FREE ENERGY PREDICTED BY IDOCK:   -5.29 KCAL/MOL
REMARK 923 INTER-LIGAND FREE ENERGY PREDICTED BY IDOCK:   -5.00 KCAL/MOL
REMARK 924 INTRA-LIGAND FREE ENERGY PREDICTED BY IDOCK:   -0.29 KCAL/MOL
REMARK 927      BINDING AFFINITY PREDICTED BY RF-SCORE:    0.00 PKD
ROOT
HETATM    1  CA  UNL     1     -12.419  14.134  70.131  1.00  0.00    -0.331 C  
HETATM    2  C   UNL     1     -12.826  13.845  71.626  1.00  0.00    -0.349 C  
HETATM    3  N   UNL     1     -12.659  15.594  69.844  1.00  0.00    -0.554 NA 
HETATM    4  OXT UNL     1     -13.282  12.683  71.836  1.00  0.00    -0.450 OA 
HETATM    5  H2  UNL     1     -12.311  15.877  68.929  1.00  0.00     0.000 HD 
HETATM    6  O   UNL     1     -12.659  14.811  72.422  1.00  0.00    -0.324 OA 
HETATM    7  H1  UNL     1     -13.655  15.779  69.963  1.00  0.00     0.000 HD 
ENDROOT
BRANCH   1   8
HETATM    8  C   UNL     1     -10.928  13.856  69.954  1.00  0.00     0.111 C  
BRANCH   8   9
HETATM    9  C   UNL     1     -10.512  13.513  68.520  1.00  0.00    -0.244 C  
BRANCH   9  10
HETATM   10  S   UNL     1     -10.275  11.688  68.340  1.00  0.00    -0.211 S  
HETATM   11  C   UNL     1     -11.907  11.379  67.602  1.00  0.00    -0.078 C  
BRANCH  10  12
HETATM   12  C   UNL     1      -9.331  11.752  66.759  1.00  0.00    -0.194 C  
BRANCH  12  13
HETATM   13  C   UNL     1      -8.227  10.686  66.743  1.00  0.00    -0.130 C  
HETATM   14  O   UNL     1      -8.320   9.842  67.908  1.00  0.00    -0.113 OA 
HETATM   15  C   UNL     1      -7.578   8.663  67.605  1.00  0.00    -0.098 C  
HETATM   16  C   UNL     1      -7.901   8.357  66.139  1.00  0.00    -0.101 C  
HETATM   17  H   UNL     1      -7.527   9.517  63.754  1.00  0.00     0.000 HD 
HETATM   18  O   UNL     1      -6.775   7.825  65.430  1.00  0.00    -0.044 OA 
HETATM   19  C   UNL     1      -8.319   9.718  65.561  1.00  0.00    -0.136 C  
HETATM   20  O   UNL     1      -7.470  10.117  64.487  1.00  0.00    -0.141 OA 
HETATM   21  H   UNL     1      -6.975   7.635  64.521  1.00  0.00     0.000 HD 
BRANCH  15  22
HETATM   22  N   UNL     1      -7.908   7.626  68.561  1.00  0.00    -0.119 NA 
HETATM   23  C   UNL     1      -7.896   6.275  68.335  1.00  0.00    -0.105 A  
HETATM   24  C   UNL     1      -8.966   6.578  70.157  1.00  0.00    -0.155 A  
HETATM   25  N   UNL     1      -8.536   5.610  69.278  1.00  0.00    -0.105 NA 
HETATM   26  C   UNL     1      -9.747   6.522  71.325  1.00  0.00    -0.173 A  
HETATM   27  N   UNL     1      -9.943   7.662  72.026  1.00  0.00    -0.171 NA 
HETATM   28  N   UNL     1     -10.351   5.360  71.783  1.00  0.00    -0.206 NA 
HETATM   29  H2  UNL     1      -9.620   4.653  71.873  1.00  0.00     0.000 HD 
HETATM   30  C   UNL     1      -9.425   8.809  71.540  1.00  0.00    -0.271 A  
HETATM   31  H1  UNL     1     -10.917   5.319  72.631  1.00  0.00     0.000 HD 
HETATM   32  N   UNL     1      -8.739   9.007  70.393  1.00  0.00    -0.178 NA 
HETATM   33  C   UNL     1      -8.534   7.834  69.761  1.00  0.00    -0.133 A  
ENDBRANCH  15  22
ENDBRANCH  12  13
ENDBRANCH  10  12
ENDBRANCH   9  10
ENDBRANCH   8   9
ENDBRANCH   1   8
TORSDOF 6
ENDMDL
MODEL      321
REMARK 921   NORMALIZED FREE ENERGY PREDICTED BY IDOCK:   -2.84 KCAL/MOL
REMARK 922        TOTAL FREE ENERGY PREDICTED BY IDOCK:   -5.26 KCAL/MOL
REMARK 923 INTER-LIGAND FREE ENERGY PREDICTED BY IDOCK:   -5.40 KCAL/MOL
REMARK 924 INTRA-LIGAND FREE ENERGY PREDICTED BY IDOCK:    0.14 KCAL/MOL
REMARK 927      BINDING AFFINITY PREDICTED BY RF-SCORE:    0.00 PKD
ROOT
HETATM    1  CA  UNL     1      -6.678  12.690  67.546  1.00  0.00    -0.156 C  
HETATM    2  C   UNL     1      -6.106  11.960  68.820  1.00  0.00    -0.055 C  
HETATM    3  N   UNL     1      -7.152  11.644  66.569  1.00  0.00    -0.363 NA 
HETATM    4  OXT UNL     1      -5.156  12.567  69.396  1.00  0.00    -0.069 OA 
HETATM    5  H2  UNL     1      -7.639  12.045  65.768  1.00  0.00     0.000 HD 
HETATM    6  O   UNL     1      -6.656  10.858  69.097  1.00  0.00    -0.055 OA 
HETATM    7  H1  UNL     1      -6.348  11.078  66.299  1.00  0.00     0.000 HD 
ENDROOT
BRANCH   1   8
HETATM    8  C   UNL     1      -7.882  13.538  67.950  1.00  0.00    -0.159 C  
BRANCH   8   9
HETATM    9  C   UNL     1      -9.132  13.317  67.093  1.00  0.00    -0.231 C  
BRANCH   9  10
HETATM   10  S   UNL     1     -10.303  14.734  67.291  1.00  0.00    -0.248 S  
HETATM   11  C   UNL     1      -9.954  15.471  65.667  1.00  0.00    -0.360 C  
BRANCH  10  12
HETATM   12  C   UNL     1     -11.825  13.823  66.793  1.00  0.00    -0.420 C  
BRANCH  12  13
HETATM   13  C   UNL     1     -11.975  12.531  67.608  1.00  0.00    -0.221 C  
HETATM   14  O   UNL     1     -11.381  11.419  66.909  1.00  0.00    -0.373 OA 
HETATM   15  C   UNL     1     -11.176  10.400  67.885  1.00  0.00    -0.263 C  
HETATM   16  C   UNL     1     -10.701  11.142  69.138  1.00  0.00    -0.221 C  
HETATM   17  H   UNL     1     -11.687  12.947  70.854  1.00  0.00     0.000 HD 
HETATM   18  O   UNL     1     -11.198  10.551  70.346  1.00  0.00    -0.304 OA 
HETATM   19  C   UNL     1     -11.252  12.565  68.957  1.00  0.00    -0.268 C  
HETATM   20  O   UNL     1     -12.135  12.926  70.017  1.00  0.00    -0.324 OA 
HETATM   21  H   UNL     1     -10.904  11.011  71.123  1.00  0.00     0.000 HD 
BRANCH  15  22
HETATM   22  N   UNL     1     -10.272   9.400  67.356  1.00  0.00    -0.222 NA 
HETATM   23  C   UNL     1     -10.073   9.098  66.034  1.00  0.00    -0.134 A  
HETATM   24  C   UNL     1      -9.209   7.502  67.159  1.00  0.00    -0.136 A  
HETATM   25  N   UNL     1      -9.441   7.951  65.879  1.00  0.00    -0.015 NA 
HETATM   26  C   UNL     1      -8.633   6.324  67.664  1.00  0.00    -0.114 A  
HETATM   27  N   UNL     1      -8.477   6.203  69.003  1.00  0.00    -0.118 NA 
HETATM   28  N   UNL     1      -8.239   5.263  66.861  1.00  0.00    -0.108 NA 
HETATM   29  H2  UNL     1      -7.600   5.636  66.158  1.00  0.00     0.000 HD 
HETATM   30  C   UNL     1      -8.932   7.198  69.792  1.00  0.00    -0.142 A  
HETATM   31  H1  UNL     1      -7.821   4.408  67.228  1.00  0.00     0.000 HD 
HETATM   32  N   UNL     1      -9.579   8.329  69.436  1.00  0.00    -0.169 NA 
HETATM   33  C   UNL     1      -9.664   8.419  68.094  1.00  0.00    -0.155 A  
ENDBRANCH  15  22
ENDBRANCH  12  13
ENDBRANCH  10  12
ENDBRANCH   9  10
ENDBRANCH   8   9
ENDBRANCH   1   8
TORSDOF 6
ENDMDL
MODEL      322
REMARK 921   NORMALIZED FREE ENERGY PREDICTED BY IDOCK:   -2.83 KCAL/MOL
REMARK 922        TOTAL FREE ENERGY PREDICTED BY IDOCK:   -5.24 KCAL/MOL
REMARK 923 INTER-LIGAND FREE ENERGY PREDICTED BY IDOCK:   -4.91 KCAL/MOL
REMARK 924 INTRA-LIGAND FREE ENERGY PREDICTED BY IDOCK:   -0.33 KCAL/MOL
REMARK 927      BINDING AFFINITY PREDICTED BY RF-SCORE:    0.00 PKD
ROOT
HETATM    1  CA  UNL     1      -9.025   4.714  70.800  1.00  0.00    -0.122 C  
HETATM    2  C   UNL     1      -7.800   4.248  71.677  1.00  0.00    -0.078 C  
HETATM    3  N   UNL     1      -9.234   3.707  69.699  1.00  0.00    -0.135 NA 
HETATM    4  OXT UNL     1      -7.122   5.190  72.182  1.00  0.00    -0.077 OA 
HETATM    5  H2  UNL     1     -10.080   3.884  69.159  1.00  0.00     0.000 HD 
HETATM    6  O   UNL     1      -7.643   2.998  71.754  1.00  0.00    -0.049 OA 
HETATM    7  H1  UNL     1      -8.393   3.692  69.121  1.00  0.00     0.000 HD 
ENDROOT
BRANCH   1   8
HETATM    8  C   UNL     1     -10.283   4.737  71.665  1.00  0.00    -0.249 C  
BRANCH   8   9
HETATM    9  C   UNL     1     -11.089   6.037  71.580  1.00  0.00    -0.276 C  
BRANCH   9  10
HETATM   10  S   UNL     1     -10.323   7.187  70.351  1.00  0.00    -0.206 S  
HETATM   11  C   UNL     1     -11.412   6.713  68.976  1.00  0.00    -0.073 C  
BRANCH  10  12
HETATM   12  C   UNL     1     -11.257   8.692  70.859  1.00  0.00    -0.267 C  
BRANCH  12  13
HETATM   13  C   UNL     1     -10.723   9.933  70.130  1.00  0.00    -0.308 C  
HETATM   14  O   UNL     1      -9.635   9.578  69.254  1.00  0.00    -0.162 OA 
HETATM   15  C   UNL     1      -9.503  10.654  68.328  1.00  0.00    -0.159 C  
HETATM   16  C   UNL     1     -10.940  11.068  67.995  1.00  0.00    -0.258 C  
HETATM   17  H   UNL     1     -13.045  12.100  69.290  1.00  0.00     0.000 HD 
HETATM   18  O   UNL     1     -11.072  12.483  67.808  1.00  0.00    -0.226 OA 
HETATM   19  C   UNL     1     -11.752  10.598  69.212  1.00  0.00    -0.264 C  
HETATM   20  O   UNL     1     -12.407  11.687  69.859  1.00  0.00    -0.239 OA 
HETATM   21  H   UNL     1     -11.962  12.741  67.601  1.00  0.00     0.000 HD 
BRANCH  15  22
HETATM   22  N   UNL     1      -8.686  10.230  67.210  1.00  0.00    -0.126 NA 
HETATM   23  C   UNL     1      -7.383   9.811  67.265  1.00  0.00    -0.087 A  
HETATM   24  C   UNL     1      -7.808  10.206  65.211  1.00  0.00    -0.143 A  
HETATM   25  N   UNL     1      -6.818   9.794  66.073  1.00  0.00    -0.091 NA 
HETATM   26  C   UNL     1      -7.822  10.451  63.827  1.00  0.00    -0.065 A  
HETATM   27  N   UNL     1      -8.996  10.787  63.242  1.00  0.00    -0.210 NA 
HETATM   28  N   UNL     1      -6.688  10.393  63.030  1.00  0.00    -0.245 NA 
HETATM   29  H2  UNL     1      -6.265   9.475  63.171  1.00  0.00     0.000 HD 
HETATM   30  C   UNL     1     -10.086  10.923  64.026  1.00  0.00    -0.358 A  
HETATM   31  H1  UNL     1      -6.698  10.571  62.026  1.00  0.00     0.000 HD 
HETATM   32  N   UNL     1     -10.180  10.804  65.368  1.00  0.00    -0.277 NA 
HETATM   33  C   UNL     1      -8.997  10.425  65.890  1.00  0.00    -0.162 A  
ENDBRANCH  15  22
ENDBRANCH  12  13
ENDBRANCH  10  12
ENDBRANCH   9  10
ENDBRANCH   8   9
ENDBRANCH   1   8
TORSDOF 6
ENDMDL
MODEL      323
REMARK 921   NORMALIZED FREE ENERGY PREDICTED BY IDOCK:   -2.82 KCAL/MOL
REMARK 922        TOTAL FREE ENERGY PREDICTED BY IDOCK:   -5.23 KCAL/MOL
REMARK 923 INTER-LIGAND FREE ENERGY PREDICTED BY IDOCK:   -4.27 KCAL/MOL
REMARK 924 INTRA-LIGAND FREE ENERGY PREDICTED BY IDOCK:   -0.96 KCAL/MOL
REMARK 927      BINDING AFFINITY PREDICTED BY RF-SCORE:    0.00 PKD
ROOT
HETATM    1  CA  UNL     1      -9.180  10.945  68.151  1.00  0.00    -0.158 C  
HETATM    2  C   UNL     1      -7.618  10.888  68.357  1.00  0.00    -0.104 C  
HETATM    3  N   UNL     1      -9.787  11.697  69.307  1.00  0.00    -0.385 NA 
HETATM    4  OXT UNL     1      -7.062   9.845  67.903  1.00  0.00    -0.084 OA 
HETATM    5  H2  UNL     1     -10.784  11.872  69.183  1.00  0.00     0.000 HD 
HETATM    6  O   UNL     1      -7.121  11.880  68.960  1.00  0.00    -0.111 OA 
HETATM    7  H1  UNL     1      -9.580  11.182  70.162  1.00  0.00     0.000 HD 
ENDROOT
BRANCH   1   8
HETATM    8  C   UNL     1      -9.490  11.716  66.870  1.00  0.00    -0.195 C  
BRANCH   8   9
HETATM    9  C   UNL     1      -8.804  11.166  65.615  1.00  0.00    -0.157 C  
BRANCH   9  10
HETATM   10  S   UNL     1      -9.868   9.884  64.813  1.00  0.00    -0.024 S  
HETATM   11  C   UNL     1     -10.237  10.873  63.334  1.00  0.00    -0.295 C  
BRANCH  10  12
HETATM   12  C   UNL     1      -8.496   8.899  64.079  1.00  0.00    -0.133 C  
BRANCH  12  13
HETATM   13  C   UNL     1      -7.916   7.922  65.111  1.00  0.00    -0.132 C  
HETATM   14  O   UNL     1      -8.777   7.832  66.263  1.00  0.00    -0.140 OA 
HETATM   15  C   UNL     1      -8.414   6.629  66.938  1.00  0.00    -0.115 C  
HETATM   16  C   UNL     1      -8.154   5.613  65.822  1.00  0.00    -0.114 C  
HETATM   17  H   UNL     1      -6.426   5.304  63.798  1.00  0.00     0.000 HD 
HETATM   18  O   UNL     1      -7.079   4.718  66.136  1.00  0.00    -0.071 OA 
HETATM   19  C   UNL     1      -7.804   6.482  64.604  1.00  0.00    -0.112 C  
HETATM   20  O   UNL     1      -6.496   6.198  64.113  1.00  0.00    -0.032 OA 
HETATM   21  H   UNL     1      -6.918   4.087  65.445  1.00  0.00     0.000 HD 
BRANCH  15  22
HETATM   22  N   UNL     1      -9.447   6.280  67.890  1.00  0.00    -0.116 NA 
HETATM   23  C   UNL     1     -10.797   6.447  67.727  1.00  0.00    -0.334 A  
HETATM   24  C   UNL     1     -10.478   6.066  69.804  1.00  0.00    -0.255 A  
HETATM   25  N   UNL     1     -11.451   6.334  68.868  1.00  0.00    -0.209 NA 
HETATM   26  C   UNL     1     -10.521   5.899  71.198  1.00  0.00    -0.233 A  
HETATM   27  N   UNL     1      -9.380   5.566  71.845  1.00  0.00    -0.144 NA 
HETATM   28  N   UNL     1     -11.671   6.084  71.953  1.00  0.00    -0.271 NA 
HETATM   29  H2  UNL     1     -12.395   5.487  71.554  1.00  0.00     0.000 HD 
HETATM   30  C   UNL     1      -8.243   5.464  71.125  1.00  0.00    -0.119 A  
HETATM   31  H1  UNL     1     -11.702   5.963  72.966  1.00  0.00     0.000 HD 
HETATM   32  N   UNL     1      -8.057   5.687  69.806  1.00  0.00    -0.101 NA 
HETATM   33  C   UNL     1      -9.231   5.968  69.206  1.00  0.00    -0.127 A  
ENDBRANCH  15  22
ENDBRANCH  12  13
ENDBRANCH  10  12
ENDBRANCH   9  10
ENDBRANCH   8   9
ENDBRANCH   1   8
TORSDOF 6
ENDMDL
MODEL      324
REMARK 921   NORMALIZED FREE ENERGY PREDICTED BY IDOCK:   -2.78 KCAL/MOL
REMARK 922        TOTAL FREE ENERGY PREDICTED BY IDOCK:   -5.18 KCAL/MOL
REMARK 923 INTER-LIGAND FREE ENERGY PREDICTED BY IDOCK:   -5.25 KCAL/MOL
REMARK 924 INTRA-LIGAND FREE ENERGY PREDICTED BY IDOCK:    0.07 KCAL/MOL
REMARK 927      BINDING AFFINITY PREDICTED BY RF-SCORE:    0.00 PKD
ROOT
HETATM    1  CA  UNL     1      -6.875   9.377  68.634  1.00  0.00    -0.061 C  
HETATM    2  C   UNL     1      -7.221   9.927  70.070  1.00  0.00    -0.146 C  
HETATM    3  N   UNL     1      -7.847   8.275  68.298  1.00  0.00    -0.116 NA 
HETATM    4  OXT UNL     1      -6.225  10.342  70.732  1.00  0.00    -0.181 OA 
HETATM    5  H2  UNL     1      -7.755   7.948  67.337  1.00  0.00     0.000 HD 
HETATM    6  O   UNL     1      -8.443   9.874  70.383  1.00  0.00    -0.145 OA 
HETATM    7  H1  UNL     1      -7.726   7.528  68.982  1.00  0.00     0.000 HD 
ENDROOT
BRANCH   1   8
HETATM    8  C   UNL     1      -7.055  10.495  67.610  1.00  0.00    -0.084 C  
BRANCH   8   9
HETATM    9  C   UNL     1      -8.102  11.546  67.993  1.00  0.00    -0.136 C  
BRANCH   9  10
HETATM   10  S   UNL     1      -9.661  11.277  67.036  1.00  0.00    -0.180 S  
HETATM   11  C   UNL     1     -10.748  12.069  68.258  1.00  0.00    -0.224 C  
BRANCH  10  12
HETATM   12  C   UNL     1      -9.482  12.737  65.926  1.00  0.00    -0.066 C  
BRANCH  12  13
HETATM   13  C   UNL     1      -9.917  14.021  66.645  1.00  0.00    -0.278 C  
HETATM   14  O   UNL     1      -8.779  14.691  67.221  1.00  0.00    -0.184 OA 
HETATM   15  C   UNL     1      -9.190  16.034  67.468  1.00  0.00    -0.211 C  
HETATM   16  C   UNL     1     -10.047  16.414  66.257  1.00  0.00    -0.331 C  
HETATM   17  H   UNL     1     -12.360  15.636  65.154  1.00  0.00     0.000 HD 
HETATM   18  O   UNL     1     -11.147  17.263  66.609  1.00  0.00     0.104 OA 
HETATM   19  C   UNL     1     -10.546  15.065  65.718  1.00  0.00    -0.339 C  
HETATM   20  O   UNL     1     -11.970  14.988  65.729  1.00  0.00    -0.137 OA 
HETATM   21  H   UNL     1     -11.679  17.499  65.859  1.00  0.00     0.000 HD 
BRANCH  15  22
HETATM   22  N   UNL     1      -8.024  16.858  67.710  1.00  0.00    -0.177 NA 
HETATM   23  C   UNL     1      -7.104  16.697  68.712  1.00  0.00    -0.194 A  
HETATM   24  C   UNL     1      -6.791  18.649  67.908  1.00  0.00    -0.212 A  
HETATM   25  N   UNL     1      -6.348  17.767  68.866  1.00  0.00    -0.202 NA 
HETATM   26  C   UNL     1      -6.435  19.973  67.597  1.00  0.00    -0.224 A  
HETATM   27  N   UNL     1      -7.015  20.564  66.527  1.00  0.00    -0.258 NA 
HETATM   28  N   UNL     1      -5.536  20.717  68.348  1.00  0.00    -0.300 NA 
HETATM   29  H2  UNL     1      -4.673  20.177  68.410  1.00  0.00     0.000 HD 
HETATM   30  C   UNL     1      -7.949  19.872  65.842  1.00  0.00    -0.276 A  
HETATM   31  H1  UNL     1      -5.278  21.678  68.123  1.00  0.00     0.000 HD 
HETATM   32  N   UNL     1      -8.438  18.638  66.093  1.00  0.00    -0.472 NA 
HETATM   33  C   UNL     1      -7.794  18.081  67.137  1.00  0.00    -0.217 A  
ENDBRANCH  15  22
ENDBRANCH  12  13
ENDBRANCH  10  12
ENDBRANCH   9  10
ENDBRANCH   8   9
ENDBRANCH   1   8
TORSDOF 6
ENDMDL
MODEL      325
REMARK 921   NORMALIZED FREE ENERGY PREDICTED BY IDOCK:   -2.74 KCAL/MOL
REMARK 922        TOTAL FREE ENERGY PREDICTED BY IDOCK:   -5.12 KCAL/MOL
REMARK 923 INTER-LIGAND FREE ENERGY PREDICTED BY IDOCK:   -4.40 KCAL/MOL
REMARK 924 INTRA-LIGAND FREE ENERGY PREDICTED BY IDOCK:   -0.72 KCAL/MOL
REMARK 927      BINDING AFFINITY PREDICTED BY RF-SCORE:    0.00 PKD
ROOT
HETATM    1  CA  UNL     1      -7.281   3.973  66.985  1.00  0.00    -0.068 C  
HETATM    2  C   UNL     1      -7.418   3.276  68.393  1.00  0.00    -0.049 C  
HETATM    3  N   UNL     1      -8.508   3.650  66.172  1.00  0.00    -0.109 NA 
HETATM    4  OXT UNL     1      -6.322   2.910  68.910  1.00  0.00    -0.028 OA 
HETATM    5  H2  UNL     1      -8.541   4.161  65.289  1.00  0.00     0.000 HD 
HETATM    6  O   UNL     1      -8.601   3.160  68.819  1.00  0.00    -0.071 OA 
HETATM    7  H1  UNL     1      -8.545   2.639  66.044  1.00  0.00     0.000 HD 
ENDROOT
BRANCH   1   8
HETATM    8  C   UNL     1      -7.226   5.487  67.177  1.00  0.00    -0.075 C  
BRANCH   8   9
HETATM    9  C   UNL     1      -8.100   6.283  66.202  1.00  0.00    -0.116 C  
BRANCH   9  10
HETATM   10  S   UNL     1      -7.322   7.920  65.835  1.00  0.00    -0.078 S  
HETATM   11  C   UNL     1      -8.308   8.244  64.343  1.00  0.00    -0.073 C  
BRANCH  10  12
HETATM   12  C   UNL     1      -8.355   8.910  66.996  1.00  0.00    -0.106 C  
BRANCH  12  13
HETATM   13  C   UNL     1      -7.688  10.258  67.302  1.00  0.00    -0.095 C  
HETATM   14  O   UNL     1      -8.405  11.335  66.668  1.00  0.00    -0.154 OA 
HETATM   15  C   UNL     1      -8.004  12.528  67.337  1.00  0.00    -0.180 C  
HETATM   16  C   UNL     1      -7.915  12.142  68.817  1.00  0.00     0.007 C  
HETATM   17  H   UNL     1      -6.457  10.490  70.340  1.00  0.00     0.000 HD 
HETATM   18  O   UNL     1      -6.841  12.808  69.493  1.00  0.00    -0.303 OA 
HETATM   19  C   UNL     1      -7.687  10.623  68.789  1.00  0.00    -0.117 C  
HETATM   20  O   UNL     1      -6.458  10.264  69.418  1.00  0.00    -0.045 OA 
HETATM   21  H   UNL     1      -6.786  12.569  70.411  1.00  0.00     0.000 HD 
BRANCH  15  22
HETATM   22  N   UNL     1      -8.925  13.597  67.011  1.00  0.00    -0.236 NA 
HETATM   23  C   UNL     1      -9.957  13.538  66.112  1.00  0.00    -0.304 A  
HETATM   24  C   UNL     1      -9.647  15.605  66.548  1.00  0.00    -0.270 A  
HETATM   25  N   UNL     1     -10.412  14.737  65.802  1.00  0.00    -0.314 NA 
HETATM   26  C   UNL     1      -9.600  17.008  66.621  1.00  0.00    -0.266 A  
HETATM   27  N   UNL     1      -8.771  17.580  67.524  1.00  0.00    -0.224 NA 
HETATM   28  N   UNL     1     -10.342  17.840  65.795  1.00  0.00    -0.609 NA 
HETATM   29  H2  UNL     1     -11.320  17.564  65.887  1.00  0.00     0.000 HD 
HETATM   30  C   UNL     1      -7.988  16.776  68.273  1.00  0.00    -0.200 A  
HETATM   31  H1  UNL     1     -10.308  18.858  65.848  1.00  0.00     0.000 HD 
HETATM   32  N   UNL     1      -7.877  15.430  68.233  1.00  0.00    -0.120 NA 
HETATM   33  C   UNL     1      -8.756  14.912  67.353  1.00  0.00    -0.194 A  
ENDBRANCH  15  22
ENDBRANCH  12  13
ENDBRANCH  10  12
ENDBRANCH   9  10
ENDBRANCH   8   9
ENDBRANCH   1   8
TORSDOF 6
ENDMDL
MODEL      326
REMARK 921   NORMALIZED FREE ENERGY PREDICTED BY IDOCK:   -2.73 KCAL/MOL
REMARK 922        TOTAL FREE ENERGY PREDICTED BY IDOCK:   -5.11 KCAL/MOL
REMARK 923 INTER-LIGAND FREE ENERGY PREDICTED BY IDOCK:   -4.10 KCAL/MOL
REMARK 924 INTRA-LIGAND FREE ENERGY PREDICTED BY IDOCK:   -1.00 KCAL/MOL
REMARK 927      BINDING AFFINITY PREDICTED BY RF-SCORE:    0.00 PKD
ROOT
HETATM    1  CA  UNL     1      -6.347  10.580  68.685  1.00  0.00    -0.047 C  
HETATM    2  C   UNL     1      -7.495  11.642  68.488  1.00  0.00    -0.113 C  
HETATM    3  N   UNL     1      -5.355  10.736  67.561  1.00  0.00    -0.043 NA 
HETATM    4  OXT UNL     1      -8.635  11.272  68.896  1.00  0.00    -0.138 OA 
HETATM    5  H2  UNL     1      -4.525  10.157  67.686  1.00  0.00     0.000 HD 
HETATM    6  O   UNL     1      -7.137  12.721  67.938  1.00  0.00    -0.091 OA 
HETATM    7  H1  UNL     1      -5.839  10.548  66.684  1.00  0.00     0.000 HD 
ENDROOT
BRANCH   1   8
HETATM    8  C   UNL     1      -5.622  10.862  69.999  1.00  0.00    -0.068 C  
BRANCH   8   9
HETATM    9  C   UNL     1      -5.593   9.681  70.974  1.00  0.00    -0.064 C  
BRANCH   9  10
HETATM   10  S   UNL     1      -6.799   8.383  70.445  1.00  0.00    -0.038 S  
HETATM   11  C   UNL     1      -6.277   7.155  71.679  1.00  0.00    -0.037 C  
BRANCH  10  12
HETATM   12  C   UNL     1      -8.241   9.037  71.388  1.00  0.00    -0.052 C  
BRANCH  12  13
HETATM   13  C   UNL     1      -9.549   8.419  70.877  1.00  0.00    -0.175 C  
HETATM   14  O   UNL     1      -9.280   7.245  70.086  1.00  0.00    -0.152 OA 
HETATM   15  C   UNL     1     -10.504   6.515  70.029  1.00  0.00    -0.212 C  
HETATM   16  C   UNL     1     -11.105   6.640  71.432  1.00  0.00    -0.263 C  
HETATM   17  H   UNL     1     -12.042   8.591  73.010  1.00  0.00     0.000 HD 
HETATM   18  O   UNL     1     -12.535   6.738  71.409  1.00  0.00    -0.359 OA 
HETATM   19  C   UNL     1     -10.476   7.926  71.991  1.00  0.00    -0.231 C  
HETATM   20  O   UNL     1     -11.467   8.897  72.319  1.00  0.00    -0.348 OA 
HETATM   21  H   UNL     1     -12.908   6.816  72.279  1.00  0.00     0.000 HD 
BRANCH  15  22
HETATM   22  N   UNL     1     -10.241   5.168  69.565  1.00  0.00    -0.251 NA 
HETATM   23  C   UNL     1      -9.843   4.105  70.331  1.00  0.00    -0.167 A  
HETATM   24  C   UNL     1      -9.508   3.548  68.298  1.00  0.00    -0.148 A  
HETATM   25  N   UNL     1      -9.385   3.110  69.596  1.00  0.00    -0.155 NA 
HETATM   26  C   UNL     1      -9.144   2.981  67.065  1.00  0.00    -0.173 A  
HETATM   27  N   UNL     1      -9.470   3.641  65.929  1.00  0.00    -0.172 NA 
HETATM   28  N   UNL     1      -8.444   1.788  66.951  1.00  0.00    -0.088 NA 
HETATM   29  H2  UNL     1      -8.965   1.080  67.468  1.00  0.00     0.000 HD 
HETATM   30  C   UNL     1     -10.079   4.839  66.037  1.00  0.00    -0.257 A  
HETATM   31  H1  UNL     1      -8.180   1.377  66.055  1.00  0.00     0.000 HD 
HETATM   32  N   UNL     1     -10.398   5.526  67.156  1.00  0.00    -0.226 NA 
HETATM   33  C   UNL     1     -10.095   4.803  68.253  1.00  0.00    -0.039 A  
ENDBRANCH  15  22
ENDBRANCH  12  13
ENDBRANCH  10  12
ENDBRANCH   9  10
ENDBRANCH   8   9
ENDBRANCH   1   8
TORSDOF 6
ENDMDL
MODEL      327
REMARK 921   NORMALIZED FREE ENERGY PREDICTED BY IDOCK:   -2.68 KCAL/MOL
REMARK 922        TOTAL FREE ENERGY PREDICTED BY IDOCK:   -5.03 KCAL/MOL
REMARK 923 INTER-LIGAND FREE ENERGY PREDICTED BY IDOCK:   -4.90 KCAL/MOL
REMARK 924 INTRA-LIGAND FREE ENERGY PREDICTED BY IDOCK:   -0.13 KCAL/MOL
REMARK 927      BINDING AFFINITY PREDICTED BY RF-SCORE:    0.00 PKD
ROOT
HETATM    1  CA  UNL     1      -8.156   6.298  71.215  1.00  0.00    -0.118 C  
HETATM    2  C   UNL     1      -7.729   4.962  71.933  1.00  0.00    -0.103 C  
HETATM    3  N   UNL     1      -7.607   7.460  72.002  1.00  0.00    -0.083 NA 
HETATM    4  OXT UNL     1      -8.558   4.012  71.820  1.00  0.00    -0.096 OA 
HETATM    5  H2  UNL     1      -7.749   8.355  71.534  1.00  0.00     0.000 HD 
HETATM    6  O   UNL     1      -6.622   5.011  72.539  1.00  0.00    -0.048 OA 
HETATM    7  H1  UNL     1      -8.021   7.433  72.934  1.00  0.00     0.000 HD 
ENDROOT
BRANCH   1   8
HETATM    8  C   UNL     1      -7.538   6.339  69.819  1.00  0.00    -0.086 C  
BRANCH   8   9
HETATM    9  C   UNL     1      -8.300   5.533  68.763  1.00  0.00    -0.102 C  
BRANCH   9  10
HETATM   10  S   UNL     1      -9.030   6.665  67.495  1.00  0.00    -0.113 S  
HETATM   11  C   UNL     1      -9.128   8.108  68.595  1.00  0.00    -0.143 C  
BRANCH  10  12
HETATM   12  C   UNL     1      -7.442   7.121  66.680  1.00  0.00    -0.088 C  
BRANCH  12  13
HETATM   13  C   UNL     1      -7.702   7.911  65.390  1.00  0.00    -0.097 C  
HETATM   14  O   UNL     1      -8.950   8.627  65.477  1.00  0.00    -0.192 OA 
HETATM   15  C   UNL     1      -8.899   9.637  64.472  1.00  0.00    -0.223 C  
HETATM   16  C   UNL     1      -7.460  10.160  64.508  1.00  0.00    -0.127 C  
HETATM   17  H   UNL     1      -5.002   9.206  64.037  1.00  0.00     0.000 HD 
HETATM   18  O   UNL     1      -6.968  10.502  63.206  1.00  0.00    -0.299 OA 
HETATM   19  C   UNL     1      -6.658   8.995  65.109  1.00  0.00    -0.072 C  
HETATM   20  O   UNL     1      -5.650   8.533  64.212  1.00  0.00    -0.061 OA 
HETATM   21  H   UNL     1      -6.076  10.826  63.228  1.00  0.00     0.000 HD 
BRANCH  15  22
HETATM   22  N   UNL     1      -9.940  10.615  64.718  1.00  0.00    -0.303 NA 
HETATM   23  C   UNL     1     -10.726  11.224  63.776  1.00  0.00    -0.379 A  
HETATM   24  C   UNL     1     -10.962  12.340  65.581  1.00  0.00    -0.299 A  
HETATM   25  N   UNL     1     -11.351  12.279  64.262  1.00  0.00    -0.330 NA 
HETATM   26  C   UNL     1     -11.233  13.259  66.609  1.00  0.00    -0.306 A  
HETATM   27  N   UNL     1     -10.752  13.001  67.848  1.00  0.00    -0.230 NA 
HETATM   28  N   UNL     1     -11.948  14.432  66.416  1.00  0.00    -0.404 NA 
HETATM   29  H2  UNL     1     -12.841  14.177  65.995  1.00  0.00     0.000 HD 
HETATM   30  C   UNL     1      -9.988  11.903  68.022  1.00  0.00    -0.190 A  
HETATM   31  H1  UNL     1     -12.144  15.098  67.163  1.00  0.00     0.000 HD 
HETATM   32  N   UNL     1      -9.586  11.000  67.101  1.00  0.00    -0.168 NA 
HETATM   33  C   UNL     1     -10.131  11.278  65.901  1.00  0.00    -0.245 A  
ENDBRANCH  15  22
ENDBRANCH  12  13
ENDBRANCH  10  12
ENDBRANCH   9  10
ENDBRANCH   8   9
ENDBRANCH   1   8
TORSDOF 6
ENDMDL
MODEL      328
REMARK 921   NORMALIZED FREE ENERGY PREDICTED BY IDOCK:   -2.62 KCAL/MOL
REMARK 922        TOTAL FREE ENERGY PREDICTED BY IDOCK:   -4.96 KCAL/MOL
REMARK 923 INTER-LIGAND FREE ENERGY PREDICTED BY IDOCK:   -4.33 KCAL/MOL
REMARK 924 INTRA-LIGAND FREE ENERGY PREDICTED BY IDOCK:   -0.63 KCAL/MOL
REMARK 927      BINDING AFFINITY PREDICTED BY RF-SCORE:    0.00 PKD
ROOT
HETATM    1  CA  UNL     1      -6.959  13.705  67.493  1.00  0.00    -0.143 C  
HETATM    2  C   UNL     1      -7.594  15.139  67.344  1.00  0.00    -0.203 C  
HETATM    3  N   UNL     1      -5.585  13.851  68.096  1.00  0.00    -0.109 NA 
HETATM    4  OXT UNL     1      -8.374  15.273  66.356  1.00  0.00    -0.185 OA 
HETATM    5  H2  UNL     1      -5.159  12.954  68.326  1.00  0.00     0.000 HD 
HETATM    6  O   UNL     1      -7.236  15.976  68.220  1.00  0.00    -0.125 OA 
HETATM    7  H1  UNL     1      -5.017  14.405  67.456  1.00  0.00     0.000 HD 
ENDROOT
BRANCH   1   8
HETATM    8  C   UNL     1      -7.810  12.874  68.451  1.00  0.00    -0.133 C  
BRANCH   8   9
HETATM    9  C   UNL     1      -9.201  12.517  67.919  1.00  0.00    -0.200 C  
BRANCH   9  10
HETATM   10  S   UNL     1      -9.094  11.988  66.150  1.00  0.00    -0.067 S  
HETATM   11  C   UNL     1      -8.189  10.449  66.489  1.00  0.00    -0.131 C  
BRANCH  10  12
HETATM   12  C   UNL     1     -10.773  11.235  66.052  1.00  0.00    -0.242 C  
BRANCH  12  13
HETATM   13  C   UNL     1     -11.767  12.209  65.405  1.00  0.00    -0.321 C  
HETATM   14  O   UNL     1     -11.564  13.546  65.904  1.00  0.00    -0.318 OA 
HETATM   15  C   UNL     1     -12.193  14.419  64.968  1.00  0.00    -0.414 C  
HETATM   16  C   UNL     1     -11.876  13.822  63.594  1.00  0.00    -0.173 C  
HETATM   17  H   UNL     1     -12.418  11.570  62.249  1.00  0.00     0.000 HD 
HETATM   18  O   UNL     1     -12.960  13.972  62.668  1.00  0.00     0.161 OA 
HETATM   19  C   UNL     1     -11.607  12.339  63.888  1.00  0.00    -0.444 C  
HETATM   20  O   UNL     1     -12.517  11.490  63.190  1.00  0.00    -0.326 OA 
HETATM   21  H   UNL     1     -12.764  13.601  61.816  1.00  0.00     0.000 HD 
BRANCH  15  22
HETATM   22  N   UNL     1     -11.740  15.776  65.194  1.00  0.00     0.094 NA 
HETATM   23  C   UNL     1     -11.334  16.671  64.239  1.00  0.00     0.406 A  
HETATM   24  C   UNL     1     -10.697  17.457  66.119  1.00  0.00    -0.100 A  
HETATM   25  N   UNL     1     -10.691  17.696  64.764  1.00  0.00    -0.332 NA 
HETATM   26  C   UNL     1     -10.129  18.141  67.207  1.00  0.00    -0.347 A  
HETATM   27  N   UNL     1     -10.377  17.686  68.457  1.00  0.00    -0.369 NA 
HETATM   28  N   UNL     1      -9.303  19.247  67.066  1.00  0.00    -0.308 NA 
HETATM   29  H2  UNL     1      -9.809  19.934  66.507  1.00  0.00     0.000 HD 
HETATM   30  C   UNL     1     -11.114  16.564  68.595  1.00  0.00    -0.329 A  
HETATM   31  H1  UNL     1      -8.890  19.743  67.856  1.00  0.00     0.000 HD 
HETATM   32  N   UNL     1     -11.635  15.773  67.632  1.00  0.00    -0.122 NA 
HETATM   33  C   UNL     1     -11.398  16.298  66.414  1.00  0.00     0.445 A  
ENDBRANCH  15  22
ENDBRANCH  12  13
ENDBRANCH  10  12
ENDBRANCH   9  10
ENDBRANCH   8   9
ENDBRANCH   1   8
TORSDOF 6
ENDMDL
MODEL      329
REMARK 921   NORMALIZED FREE ENERGY PREDICTED BY IDOCK:   -2.55 KCAL/MOL
REMARK 922        TOTAL FREE ENERGY PREDICTED BY IDOCK:   -4.87 KCAL/MOL
REMARK 923 INTER-LIGAND FREE ENERGY PREDICTED BY IDOCK:   -4.31 KCAL/MOL
REMARK 924 INTRA-LIGAND FREE ENERGY PREDICTED BY IDOCK:   -0.56 KCAL/MOL
REMARK 927      BINDING AFFINITY PREDICTED BY RF-SCORE:    0.00 PKD
ROOT
HETATM    1  CA  UNL     1      -9.449  15.389  67.629  1.00  0.00    -0.205 C  
HETATM    2  C   UNL     1      -9.464  16.875  67.104  1.00  0.00    -0.237 C  
HETATM    3  N   UNL     1      -9.456  15.415  69.136  1.00  0.00    -0.227 NA 
HETATM    4  OXT UNL     1      -8.853  17.056  66.011  1.00  0.00    -0.477 OA 
HETATM    5  H2  UNL     1      -9.561  14.487  69.546  1.00  0.00     0.000 HD 
HETATM    6  O   UNL     1     -10.071  17.698  67.845  1.00  0.00    -0.311 OA 
HETATM    7  H1  UNL     1      -8.608  15.889  69.447  1.00  0.00     0.000 HD 
ENDROOT
BRANCH   1   8
HETATM    8  C   UNL     1     -10.718  14.678  67.163  1.00  0.00    -0.292 C  
BRANCH   8   9
HETATM    9  C   UNL     1     -10.586  13.962  65.815  1.00  0.00    -0.297 C  
BRANCH   9  10
HETATM   10  S   UNL     1     -11.239  12.236  65.940  1.00  0.00    -0.354 S  
HETATM   11  C   UNL     1     -11.719  12.111  64.191  1.00  0.00    -0.396 C  
BRANCH  10  12
HETATM   12  C   UNL     1      -9.614  11.383  65.780  1.00  0.00    -0.233 C  
BRANCH  12  13
HETATM   13  C   UNL     1      -8.916  11.285  67.143  1.00  0.00    -0.155 C  
HETATM   14  O   UNL     1      -8.953   9.931  67.636  1.00  0.00    -0.128 OA 
HETATM   15  C   UNL     1      -7.943   9.845  68.639  1.00  0.00    -0.087 C  
HETATM   16  C   UNL     1      -6.769  10.662  68.090  1.00  0.00    -0.064 C  
HETATM   17  H   UNL     1      -6.273  13.213  67.443  1.00  0.00     0.000 HD 
HETATM   18  O   UNL     1      -6.068  11.373  69.119  1.00  0.00    -0.047 OA 
HETATM   19  C   UNL     1      -7.427  11.636  67.101  1.00  0.00    -0.146 C  
HETATM   20  O   UNL     1      -7.197  12.995  67.469  1.00  0.00    -0.141 OA 
HETATM   21  H   UNL     1      -5.340  11.879  68.779  1.00  0.00     0.000 HD 
BRANCH  15  22
HETATM   22  N   UNL     1      -7.671   8.453  68.931  1.00  0.00    -0.103 NA 
HETATM   23  C   UNL     1      -7.835   7.826  70.138  1.00  0.00    -0.095 A  
HETATM   24  C   UNL     1      -6.642   6.527  68.935  1.00  0.00    -0.048 A  
HETATM   25  N   UNL     1      -7.217   6.661  70.178  1.00  0.00    -0.078 NA 
HETATM   26  C   UNL     1      -5.810   5.543  68.374  1.00  0.00    -0.016 A  
HETATM   27  N   UNL     1      -5.459   5.660  67.072  1.00  0.00    -0.008 NA 
HETATM   28  N   UNL     1      -5.306   4.470  69.094  1.00  0.00    -0.007 NA 
HETATM   29  H2  UNL     1      -6.100   3.989  69.517  1.00  0.00     0.000 HD 
HETATM   30  C   UNL     1      -5.881   6.745  66.390  1.00  0.00    -0.025 A  
HETATM   31  H1  UNL     1      -4.702   3.756  68.686  1.00  0.00     0.000 HD 
HETATM   32  N   UNL     1      -6.603   7.795  66.838  1.00  0.00    -0.057 NA 
HETATM   33  C   UNL     1      -6.963   7.604  68.123  1.00  0.00    -0.075 A  
ENDBRANCH  15  22
ENDBRANCH  12  13
ENDBRANCH  10  12
ENDBRANCH   9  10
ENDBRANCH   8   9
ENDBRANCH   1   8
TORSDOF 6
ENDMDL
MODEL      330
REMARK 921   NORMALIZED FREE ENERGY PREDICTED BY IDOCK:   -2.53 KCAL/MOL
REMARK 922        TOTAL FREE ENERGY PREDICTED BY IDOCK:   -4.84 KCAL/MOL
REMARK 923 INTER-LIGAND FREE ENERGY PREDICTED BY IDOCK:   -4.41 KCAL/MOL
REMARK 924 INTRA-LIGAND FREE ENERGY PREDICTED BY IDOCK:   -0.42 KCAL/MOL
REMARK 927      BINDING AFFINITY PREDICTED BY RF-SCORE:    0.00 PKD
ROOT
HETATM    1  CA  UNL     1      -9.945   5.869  69.838  1.00  0.00    -0.182 C  
HETATM    2  C   UNL     1      -9.010   4.616  69.637  1.00  0.00    -0.094 C  
HETATM    3  N   UNL     1     -11.229   5.632  69.086  1.00  0.00    -0.016 NA 
HETATM    4  OXT UNL     1      -7.771   4.875  69.630  1.00  0.00    -0.062 OA 
HETATM    5  H2  UNL     1     -11.928   6.353  69.263  1.00  0.00     0.000 HD 
HETATM    6  O   UNL     1      -9.613   3.516  69.497  1.00  0.00    -0.179 OA 
HETATM    7  H1  UNL     1     -11.002   5.537  68.096  1.00  0.00     0.000 HD 
ENDROOT
BRANCH   1   8
HETATM    8  C   UNL     1     -10.285   6.011  71.320  1.00  0.00    -0.253 C  
BRANCH   8   9
HETATM    9  C   UNL     1     -10.500   7.454  71.787  1.00  0.00    -0.196 C  
BRANCH   9  10
HETATM   10  S   UNL     1     -10.201   8.630  70.392  1.00  0.00    -0.201 S  
HETATM   11  C   UNL     1     -10.838  10.092  71.265  1.00  0.00     0.113 C  
BRANCH  10  12
HETATM   12  C   UNL     1      -8.417   8.928  70.745  1.00  0.00    -0.182 C  
BRANCH  12  13
HETATM   13  C   UNL     1      -7.708   9.499  69.509  1.00  0.00    -0.100 C  
HETATM   14  O   UNL     1      -8.407   9.125  68.305  1.00  0.00    -0.118 OA 
HETATM   15  C   UNL     1      -7.962  10.024  67.292  1.00  0.00    -0.106 C  
HETATM   16  C   UNL     1      -7.857  11.385  67.987  1.00  0.00    -0.121 C  
HETATM   17  H   UNL     1      -6.418  12.487  69.959  1.00  0.00     0.000 HD 
HETATM   18  O   UNL     1      -6.754  12.163  67.505  1.00  0.00    -0.101 OA 
HETATM   19  C   UNL     1      -7.671  11.029  69.470  1.00  0.00     0.049 C  
HETATM   20  O   UNL     1      -6.441  11.538  69.983  1.00  0.00    -0.139 OA 
HETATM   21  H   UNL     1      -6.689  13.007  67.936  1.00  0.00     0.000 HD 
BRANCH  15  22
HETATM   22  N   UNL     1      -8.859   9.954  66.157  1.00  0.00    -0.141 NA 
HETATM   23  C   UNL     1      -8.636   9.290  64.980  1.00  0.00    -0.177 A  
HETATM   24  C   UNL     1     -10.288  10.598  64.637  1.00  0.00    -0.283 A  
HETATM   25  N   UNL     1      -9.477   9.664  64.035  1.00  0.00    -0.077 NA 
HETATM   26  C   UNL     1     -11.333  11.403  64.152  1.00  0.00    -0.183 A  
HETATM   27  N   UNL     1     -12.001  12.190  65.027  1.00  0.00    -0.329 NA 
HETATM   28  N   UNL     1     -11.700  11.453  62.815  1.00  0.00    -0.500 NA 
HETATM   29  H2  UNL     1     -11.891  10.497  62.517  1.00  0.00     0.000 HD 
HETATM   30  C   UNL     1     -11.596  12.205  66.314  1.00  0.00    -0.360 A  
HETATM   31  H1  UNL     1     -12.458  12.038  62.463  1.00  0.00     0.000 HD 
HETATM   32  N   UNL     1     -10.557  11.551  66.879  1.00  0.00    -0.235 NA 
HETATM   33  C   UNL     1      -9.960  10.749  65.975  1.00  0.00    -0.242 A  
ENDBRANCH  15  22
ENDBRANCH  12  13
ENDBRANCH  10  12
ENDBRANCH   9  10
ENDBRANCH   8   9
ENDBRANCH   1   8
TORSDOF 6
ENDMDL
MODEL      331
REMARK 921   NORMALIZED FREE ENERGY PREDICTED BY IDOCK:   -2.46 KCAL/MOL
REMARK 922        TOTAL FREE ENERGY PREDICTED BY IDOCK:   -4.74 KCAL/MOL
REMARK 923 INTER-LIGAND FREE ENERGY PREDICTED BY IDOCK:   -5.23 KCAL/MOL
REMARK 924 INTRA-LIGAND FREE ENERGY PREDICTED BY IDOCK:    0.49 KCAL/MOL
REMARK 927      BINDING AFFINITY PREDICTED BY RF-SCORE:    0.00 PKD
ROOT
HETATM    1  CA  UNL     1      -6.719  12.654  67.600  1.00  0.00    -0.144 C  
HETATM    2  C   UNL     1      -5.997  12.124  68.897  1.00  0.00    -0.064 C  
HETATM    3  N   UNL     1      -7.071  11.472  66.733  1.00  0.00    -0.246 NA 
HETATM    4  OXT UNL     1      -5.126  12.908  69.375  1.00  0.00    -0.073 OA 
HETATM    5  H2  UNL     1      -7.642  11.730  65.928  1.00  0.00     0.000 HD 
HETATM    6  O   UNL     1      -6.368  10.982  69.287  1.00  0.00    -0.051 OA 
HETATM    7  H1  UNL     1      -6.203  11.006  66.468  1.00  0.00     0.000 HD 
ENDROOT
BRANCH   1   8
HETATM    8  C   UNL     1      -8.018  13.352  67.996  1.00  0.00    -0.148 C  
BRANCH   8   9
HETATM    9  C   UNL     1      -9.001  13.569  66.842  1.00  0.00    -0.209 C  
BRANCH   9  10
HETATM   10  S   UNL     1     -10.209  14.902  67.271  1.00  0.00    -0.242 S  
HETATM   11  C   UNL     1      -9.446  16.167  66.211  1.00  0.00    -0.316 C  
BRANCH  10  12
HETATM   12  C   UNL     1     -11.522  14.388  66.084  1.00  0.00    -0.357 C  
BRANCH  12  13
HETATM   13  C   UNL     1     -11.753  12.873  66.154  1.00  0.00    -0.396 C  
HETATM   14  O   UNL     1     -10.914  12.188  65.203  1.00  0.00    -0.293 OA 
HETATM   15  C   UNL     1     -10.864  10.827  65.625  1.00  0.00     0.006 C  
HETATM   16  C   UNL     1     -10.773  10.889  67.153  1.00  0.00    -0.270 C  
HETATM   17  H   UNL     1     -12.297  11.733  69.187  1.00  0.00     0.000 HD 
HETATM   18  O   UNL     1     -11.495   9.826  67.788  1.00  0.00    -0.511 OA 
HETATM   19  C   UNL     1     -11.384  12.254  67.505  1.00  0.00    -0.325 C  
HETATM   20  O   UNL     1     -12.525  12.117  68.349  1.00  0.00    -0.049 OA 
HETATM   21  H   UNL     1     -11.439   9.864  68.735  1.00  0.00     0.000 HD 
BRANCH  15  22
HETATM   22  N   UNL     1      -9.776  10.151  64.948  1.00  0.00    -0.309 NA 
HETATM   23  C   UNL     1      -9.259  10.467  63.720  1.00  0.00    -0.263 A  
HETATM   24  C   UNL     1      -8.526   8.522  64.206  1.00  0.00    -0.051 A  
HETATM   25  N   UNL     1      -8.505   9.499  63.237  1.00  0.00    -0.185 NA 
HETATM   26  C   UNL     1      -7.972   7.232  64.268  1.00  0.00    -0.093 A  
HETATM   27  N   UNL     1      -8.110   6.524  65.413  1.00  0.00    -0.124 NA 
HETATM   28  N   UNL     1      -7.311   6.634  63.204  1.00  0.00    -0.064 NA 
HETATM   29  H2  UNL     1      -6.568   7.269  62.913  1.00  0.00     0.000 HD 
HETATM   30  C   UNL     1      -8.821   7.070  66.421  1.00  0.00    -0.145 A  
HETATM   31  H1  UNL     1      -6.909   5.698  63.249  1.00  0.00     0.000 HD 
HETATM   32  N   UNL     1      -9.473   8.253  66.450  1.00  0.00    -0.213 NA 
HETATM   33  C   UNL     1      -9.262   8.933  65.306  1.00  0.00    -0.091 A  
ENDBRANCH  15  22
ENDBRANCH  12  13
ENDBRANCH  10  12
ENDBRANCH   9  10
ENDBRANCH   8   9
ENDBRANCH   1   8
TORSDOF 6
ENDMDL
MODEL      332
REMARK 921   NORMALIZED FREE ENERGY PREDICTED BY IDOCK:   -2.36 KCAL/MOL
REMARK 922        TOTAL FREE ENERGY PREDICTED BY IDOCK:   -4.61 KCAL/MOL
REMARK 923 INTER-LIGAND FREE ENERGY PREDICTED BY IDOCK:   -4.50 KCAL/MOL
REMARK 924 INTRA-LIGAND FREE ENERGY PREDICTED BY IDOCK:   -0.11 KCAL/MOL
REMARK 927      BINDING AFFINITY PREDICTED BY RF-SCORE:    0.00 PKD
ROOT
HETATM    1  CA  UNL     1      -7.358   8.593  70.740  1.00  0.00    -0.070 C  
HETATM    2  C   UNL     1      -7.040   7.825  69.400  1.00  0.00    -0.071 C  
HETATM    3  N   UNL     1      -6.498   8.017  71.836  1.00  0.00    -0.049 NA 
HETATM    4  OXT UNL     1      -8.022   7.714  68.609  1.00  0.00    -0.118 OA 
HETATM    5  H2  UNL     1      -6.568   8.542  72.708  1.00  0.00     0.000 HD 
HETATM    6  O   UNL     1      -5.853   7.407  69.292  1.00  0.00    -0.025 OA 
HETATM    7  H1  UNL     1      -6.745   7.034  71.946  1.00  0.00     0.000 HD 
ENDROOT
BRANCH   1   8
HETATM    8  C   UNL     1      -6.990  10.066  70.575  1.00  0.00    -0.098 C  
BRANCH   8   9
HETATM    9  C   UNL     1      -6.164  10.378  69.323  1.00  0.00    -0.046 C  
BRANCH   9  10
HETATM   10  S   UNL     1      -6.852  11.858  68.454  1.00  0.00    -0.077 S  
HETATM   11  C   UNL     1      -8.592  11.372  68.646  1.00  0.00    -0.126 C  
BRANCH  10  12
HETATM   12  C   UNL     1      -6.785  13.001  69.898  1.00  0.00     0.235 C  
BRANCH  12  13
HETATM   13  C   UNL     1      -6.099  14.319  69.515  1.00  0.00    -0.112 C  
HETATM   14  O   UNL     1      -6.690  14.870  68.321  1.00  0.00    -0.095 OA 
HETATM   15  C   UNL     1      -6.317  16.246  68.292  1.00  0.00    -0.124 C  
HETATM   16  C   UNL     1      -6.419  16.715  69.746  1.00  0.00    -0.128 C  
HETATM   17  H   UNL     1      -5.223  16.175  72.081  1.00  0.00     0.000 HD 
HETATM   18  O   UNL     1      -5.404  17.668  70.087  1.00  0.00    -0.203 OA 
HETATM   19  C   UNL     1      -6.257  15.424  70.563  1.00  0.00     0.070 C  
HETATM   20  O   UNL     1      -5.126  15.489  71.431  1.00  0.00    -0.175 OA 
HETATM   21  H   UNL     1      -5.467  17.958  70.989  1.00  0.00     0.000 HD 
BRANCH  15  22
HETATM   22  N   UNL     1      -7.146  16.950  67.335  1.00  0.00    -0.148 NA 
HETATM   23  C   UNL     1      -6.735  17.507  66.153  1.00  0.00    -0.263 A  
HETATM   24  C   UNL     1      -8.675  18.301  66.557  1.00  0.00    -0.274 A  
HETATM   25  N   UNL     1      -7.632  18.338  65.659  1.00  0.00    -0.529 NA 
HETATM   26  C   UNL     1      -9.892  19.000  66.628  1.00  0.00    -0.355 A  
HETATM   27  N   UNL     1     -10.761  18.683  67.616  1.00  0.00    -0.417 NA 
HETATM   28  N   UNL     1     -10.240  20.018  65.753  1.00  0.00    -0.459 NA 
HETATM   29  H2  UNL     1     -10.160  19.645  64.807  1.00  0.00     0.000 HD 
HETATM   30  C   UNL     1     -10.393  17.750  68.518  1.00  0.00    -0.364 A  
HETATM   31  H1  UNL     1     -11.124  20.525  65.805  1.00  0.00     0.000 HD 
HETATM   32  N   UNL     1      -9.224  17.078  68.608  1.00  0.00    -0.261 NA 
HETATM   33  C   UNL     1      -8.419  17.397  67.576  1.00  0.00    -0.214 A  
ENDBRANCH  15  22
ENDBRANCH  12  13
ENDBRANCH  10  12
ENDBRANCH   9  10
ENDBRANCH   8   9
ENDBRANCH   1   8
TORSDOF 6
ENDMDL
MODEL      333
REMARK 921   NORMALIZED FREE ENERGY PREDICTED BY IDOCK:   -2.34 KCAL/MOL
REMARK 922        TOTAL FREE ENERGY PREDICTED BY IDOCK:   -4.58 KCAL/MOL
REMARK 923 INTER-LIGAND FREE ENERGY PREDICTED BY IDOCK:   -7.09 KCAL/MOL
REMARK 924 INTRA-LIGAND FREE ENERGY PREDICTED BY IDOCK:    2.51 KCAL/MOL
REMARK 927      BINDING AFFINITY PREDICTED BY RF-SCORE:    0.00 PKD
ROOT
HETATM    1  CA  UNL     1      -7.698  10.342  68.239  1.00  0.00    -0.092 C  
HETATM    2  C   UNL     1      -6.565  10.251  69.331  1.00  0.00    -0.058 C  
HETATM    3  N   UNL     1      -9.035  10.272  68.931  1.00  0.00    -0.154 NA 
HETATM    4  OXT UNL     1      -5.503   9.680  68.945  1.00  0.00    -0.037 OA 
HETATM    5  H2  UNL     1      -9.816  10.439  68.297  1.00  0.00     0.000 HD 
HETATM    6  O   UNL     1      -6.863  10.745  70.454  1.00  0.00    -0.278 OA 
HETATM    7  H1  UNL     1      -9.098   9.372  69.406  1.00  0.00     0.000 HD 
ENDROOT
BRANCH   1   8
HETATM    8  C   UNL     1      -7.604  11.690  67.527  1.00  0.00    -0.128 C  
BRANCH   8   9
HETATM    9  C   UNL     1      -8.934  12.211  66.976  1.00  0.00    -0.201 C  
BRANCH   9  10
HETATM   10  S   UNL     1      -9.376  11.320  65.417  1.00  0.00    -0.183 S  
HETATM   11  C   UNL     1     -11.007  10.764  65.997  1.00  0.00     0.060 C  
BRANCH  10  12
HETATM   12  C   UNL     1      -9.968  12.797  64.489  1.00  0.00    -0.149 C  
BRANCH  12  13
HETATM   13  C   UNL     1     -10.740  13.746  65.415  1.00  0.00    -0.317 C  
HETATM   14  O   UNL     1     -11.264  13.031  66.551  1.00  0.00    -0.285 OA 
HETATM   15  C   UNL     1     -11.566  14.017  67.537  1.00  0.00    -0.367 C  
HETATM   16  C   UNL     1     -10.416  15.025  67.453  1.00  0.00    -0.257 C  
HETATM   17  H   UNL     1      -9.433  16.751  65.656  1.00  0.00     0.000 HD 
HETATM   18  O   UNL     1     -10.852  16.373  67.676  1.00  0.00    -0.327 OA 
HETATM   19  C   UNL     1      -9.876  14.853  66.025  1.00  0.00    -0.318 C  
HETATM   20  O   UNL     1      -9.969  16.064  65.277  1.00  0.00    -0.458 OA 
HETATM   21  H   UNL     1     -10.139  16.998  67.624  1.00  0.00     0.000 HD 
BRANCH  15  22
HETATM   22  N   UNL     1     -11.757  13.373  68.820  1.00  0.00    -0.318 NA 
HETATM   23  C   UNL     1     -11.773  12.025  69.062  1.00  0.00    -0.325 A  
HETATM   24  C   UNL     1     -12.581  12.964  70.800  1.00  0.00    -0.232 A  
HETATM   25  N   UNL     1     -12.274  11.741  70.248  1.00  0.00    -0.320 NA 
HETATM   26  C   UNL     1     -13.191  13.334  72.011  1.00  0.00    -0.446 A  
HETATM   27  N   UNL     1     -13.291  14.650  72.308  1.00  0.00    -0.358 NA 
HETATM   28  N   UNL     1     -13.722  12.418  72.908  1.00  0.00    -0.380 NA 
HETATM   29  H2  UNL     1     -12.985  11.751  73.133  1.00  0.00     0.000 HD 
HETATM   30  C   UNL     1     -12.849  15.546  71.401  1.00  0.00    -0.465 A  
HETATM   31  H1  UNL     1     -14.166  12.687  73.787  1.00  0.00     0.000 HD 
HETATM   32  N   UNL     1     -12.330  15.320  70.175  1.00  0.00    -0.355 NA 
HETATM   33  C   UNL     1     -12.210  13.996  69.952  1.00  0.00    -0.340 A  
ENDBRANCH  15  22
ENDBRANCH  12  13
ENDBRANCH  10  12
ENDBRANCH   9  10
ENDBRANCH   8   9
ENDBRANCH   1   8
TORSDOF 6
ENDMDL
MODEL      334
REMARK 921   NORMALIZED FREE ENERGY PREDICTED BY IDOCK:   -2.25 KCAL/MOL
REMARK 922        TOTAL FREE ENERGY PREDICTED BY IDOCK:   -4.46 KCAL/MOL
REMARK 923 INTER-LIGAND FREE ENERGY PREDICTED BY IDOCK:   -3.46 KCAL/MOL
REMARK 924 INTRA-LIGAND FREE ENERGY PREDICTED BY IDOCK:   -1.00 KCAL/MOL
REMARK 927      BINDING AFFINITY PREDICTED BY RF-SCORE:    0.00 PKD
ROOT
HETATM    1  CA  UNL     1      -7.707  10.733  69.468  1.00  0.00    -0.066 C  
HETATM    2  C   UNL     1      -7.848   9.599  68.382  1.00  0.00    -0.085 C  
HETATM    3  N   UNL     1      -6.261  11.150  69.538  1.00  0.00    -0.078 NA 
HETATM    4  OXT UNL     1      -8.753   8.747  68.622  1.00  0.00    -0.132 OA 
HETATM    5  H2  UNL     1      -6.113  11.960  70.139  1.00  0.00     0.000 HD 
HETATM    6  O   UNL     1      -7.035   9.676  67.420  1.00  0.00    -0.082 OA 
HETATM    7  H1  UNL     1      -5.712  10.339  69.826  1.00  0.00     0.000 HD 
ENDROOT
BRANCH   1   8
HETATM    8  C   UNL     1      -8.528  11.946  69.037  1.00  0.00     0.255 C  
BRANCH   8   9
HETATM    9  C   UNL     1      -7.762  13.272  69.058  1.00  0.00     0.166 C  
BRANCH   9  10
HETATM   10  S   UNL     1      -8.912  14.683  68.729  1.00  0.00    -0.142 S  
HETATM   11  C   UNL     1      -7.736  15.977  69.225  1.00  0.00    -0.223 C  
BRANCH  10  12
HETATM   12  C   UNL     1      -8.602  14.791  66.916  1.00  0.00    -0.224 C  
BRANCH  12  13
HETATM   13  C   UNL     1      -9.705  14.066  66.133  1.00  0.00    -0.280 C  
HETATM   14  O   UNL     1      -9.195  12.856  65.540  1.00  0.00     0.165 OA 
HETATM   15  C   UNL     1     -10.333  12.056  65.226  1.00  0.00    -0.275 C  
HETATM   16  C   UNL     1     -11.288  12.246  66.408  1.00  0.00    -0.354 C  
HETATM   17  H   UNL     1     -12.679  14.248  67.519  1.00  0.00     0.000 HD 
HETATM   18  O   UNL     1     -12.663  12.262  66.004  1.00  0.00    -0.062 OA 
HETATM   19  C   UNL     1     -10.876  13.601  67.004  1.00  0.00    -0.286 C  
HETATM   20  O   UNL     1     -11.952  14.536  66.979  1.00  0.00    -0.404 OA 
HETATM   21  H   UNL     1     -13.256  12.380  66.736  1.00  0.00     0.000 HD 
BRANCH  15  22
HETATM   22  N   UNL     1      -9.909  10.697  64.961  1.00  0.00    -0.268 NA 
HETATM   23  C   UNL     1     -10.154   9.598  65.741  1.00  0.00    -0.204 A  
HETATM   24  C   UNL     1      -8.626   9.035  64.361  1.00  0.00    -0.150 A  
HETATM   25  N   UNL     1      -9.387   8.577  65.412  1.00  0.00     0.013 NA 
HETATM   26  C   UNL     1      -7.588   8.451  63.614  1.00  0.00    -0.132 A  
HETATM   27  N   UNL     1      -7.073   9.145  62.573  1.00  0.00    -0.098 NA 
HETATM   28  N   UNL     1      -7.045   7.208  63.905  1.00  0.00    -0.057 NA 
HETATM   29  H2  UNL     1      -7.815   6.539  63.929  1.00  0.00     0.000 HD 
HETATM   30  C   UNL     1      -7.543  10.387  62.336  1.00  0.00    -0.143 A  
HETATM   31  H1  UNL     1      -6.292   6.785  63.362  1.00  0.00     0.000 HD 
HETATM   32  N   UNL     1      -8.466  11.087  63.031  1.00  0.00    -0.077 NA 
HETATM   33  C   UNL     1      -8.977  10.333  64.025  1.00  0.00    -0.237 A  
ENDBRANCH  15  22
ENDBRANCH  12  13
ENDBRANCH  10  12
ENDBRANCH   9  10
ENDBRANCH   8   9
ENDBRANCH   1   8
TORSDOF 6
ENDMDL
MODEL      335
REMARK 921   NORMALIZED FREE ENERGY PREDICTED BY IDOCK:   -2.16 KCAL/MOL
REMARK 922        TOTAL FREE ENERGY PREDICTED BY IDOCK:   -4.34 KCAL/MOL
REMARK 923 INTER-LIGAND FREE ENERGY PREDICTED BY IDOCK:   -4.50 KCAL/MOL
REMARK 924 INTRA-LIGAND FREE ENERGY PREDICTED BY IDOCK:    0.16 KCAL/MOL
REMARK 927      BINDING AFFINITY PREDICTED BY RF-SCORE:    0.00 PKD
ROOT
HETATM    1  CA  UNL     1     -11.084  14.870  68.067  1.00  0.00    -0.295 C  
HETATM    2  C   UNL     1      -9.741  15.205  67.313  1.00  0.00    -0.210 C  
HETATM    3  N   UNL     1     -12.209  14.873  67.064  1.00  0.00    -0.317 NA 
HETATM    4  OXT UNL     1      -8.891  15.840  68.002  1.00  0.00    -0.174 OA 
HETATM    5  H2  UNL     1     -13.092  14.553  67.462  1.00  0.00     0.000 HD 
HETATM    6  O   UNL     1      -9.688  14.809  66.115  1.00  0.00    -0.279 OA 
HETATM    7  H1  UNL     1     -12.272  15.808  66.664  1.00  0.00     0.000 HD 
ENDROOT
BRANCH   1   8
HETATM    8  C   UNL     1     -10.989  13.470  68.668  1.00  0.00    -0.289 C  
BRANCH   8   9
HETATM    9  C   UNL     1      -9.798  12.645  68.171  1.00  0.00    -0.226 C  
BRANCH   9  10
HETATM   10  S   UNL     1     -10.362  10.974  67.615  1.00  0.00    -0.201 S  
HETATM   11  C   UNL     1      -8.898  10.632  66.594  1.00  0.00    -0.141 C  
BRANCH  10  12
HETATM   12  C   UNL     1      -9.804  10.054  69.111  1.00  0.00    -0.205 C  
BRANCH  12  13
HETATM   13  C   UNL     1     -10.603   8.754  69.278  1.00  0.00    -0.197 C  
HETATM   14  O   UNL     1      -9.860   7.632  68.764  1.00  0.00    -0.157 OA 
HETATM   15  C   UNL     1     -10.450   6.468  69.337  1.00  0.00    -0.221 C  
HETATM   16  C   UNL     1     -10.770   6.857  70.784  1.00  0.00    -0.233 C  
HETATM   17  H   UNL     1     -12.357   8.602  72.052  1.00  0.00     0.000 HD 
HETATM   18  O   UNL     1     -11.987   6.264  71.255  1.00  0.00    -0.279 OA 
HETATM   19  C   UNL     1     -10.887   8.388  70.737  1.00  0.00    -0.224 C  
HETATM   20  O   UNL     1     -12.181   8.829  71.147  1.00  0.00    -0.291 OA 
HETATM   21  H   UNL     1     -12.185   6.506  72.151  1.00  0.00     0.000 HD 
BRANCH  15  22
HETATM   22  N   UNL     1      -9.559   5.339  69.162  1.00  0.00    -0.134 NA 
HETATM   23  C   UNL     1      -9.888   4.014  69.278  1.00  0.00    -0.019 A  
HETATM   24  C   UNL     1      -7.756   4.115  69.302  1.00  0.00    -0.054 A  
HETATM   25  N   UNL     1      -8.821   3.246  69.374  1.00  0.00    -0.084 NA 
HETATM   26  C   UNL     1      -6.367   3.927  69.402  1.00  0.00    -0.029 A  
HETATM   27  N   UNL     1      -5.556   4.994  69.213  1.00  0.00    -0.008 NA 
HETATM   28  N   UNL     1      -5.783   2.708  69.712  1.00  0.00    -0.017 NA 
HETATM   29  H2  UNL     1      -6.133   2.024  69.041  1.00  0.00     0.000 HD 
HETATM   30  C   UNL     1      -6.122   6.198  68.991  1.00  0.00    -0.029 A  
HETATM   31  H1  UNL     1      -4.774   2.572  69.785  1.00  0.00     0.000 HD 
HETATM   32  N   UNL     1      -7.434   6.521  68.962  1.00  0.00    -0.093 NA 
HETATM   33  C   UNL     1      -8.193   5.417  69.108  1.00  0.00    -0.093 A  
ENDBRANCH  15  22
ENDBRANCH  12  13
ENDBRANCH  10  12
ENDBRANCH   9  10
ENDBRANCH   8   9
ENDBRANCH   1   8
TORSDOF 6
ENDMDL
MODEL      336
REMARK 921   NORMALIZED FREE ENERGY PREDICTED BY IDOCK:   -2.06 KCAL/MOL
REMARK 922        TOTAL FREE ENERGY PREDICTED BY IDOCK:   -4.20 KCAL/MOL
REMARK 923 INTER-LIGAND FREE ENERGY PREDICTED BY IDOCK:   -3.98 KCAL/MOL
REMARK 924 INTRA-LIGAND FREE ENERGY PREDICTED BY IDOCK:   -0.21 KCAL/MOL
REMARK 927      BINDING AFFINITY PREDICTED BY RF-SCORE:    0.00 PKD
ROOT
HETATM    1  CA  UNL     1     -11.306   8.156  72.051  1.00  0.00    -0.316 C  
HETATM    2  C   UNL     1     -11.651   7.291  70.780  1.00  0.00    -0.302 C  
HETATM    3  N   UNL     1     -12.595   8.551  72.725  1.00  0.00    -0.594 NA 
HETATM    4  OXT UNL     1     -10.838   7.416  69.817  1.00  0.00    -0.246 OA 
HETATM    5  H2  UNL     1     -12.446   9.018  73.619  1.00  0.00     0.000 HD 
HETATM    6  O   UNL     1     -12.700   6.594  70.876  1.00  0.00    -0.234 OA 
HETATM    7  H1  UNL     1     -13.134   9.117  72.069  1.00  0.00     0.000 HD 
ENDROOT
BRANCH   1   8
HETATM    8  C   UNL     1     -10.499   7.310  73.032  1.00  0.00    -0.355 C  
BRANCH   8   9
HETATM    9  C   UNL     1      -9.075   7.813  73.285  1.00  0.00    -0.244 C  
BRANCH   9  10
HETATM   10  S   UNL     1      -7.961   6.399  73.709  1.00  0.00    -0.100 S  
HETATM   11  C   UNL     1      -9.281   5.150  73.746  1.00  0.00    -0.125 C  
BRANCH  10  12
HETATM   12  C   UNL     1      -7.388   6.058  71.991  1.00  0.00    -0.094 C  
BRANCH  12  13
HETATM   13  C   UNL     1      -6.589   7.246  71.440  1.00  0.00    -0.050 C  
HETATM   14  O   UNL     1      -7.233   7.794  70.273  1.00  0.00    -0.060 OA 
HETATM   15  C   UNL     1      -6.697   9.104  70.100  1.00  0.00    -0.050 C  
HETATM   16  C   UNL     1      -6.577   9.673  71.517  1.00  0.00     0.236 C  
HETATM   17  H   UNL     1      -5.207   9.127  73.753  1.00  0.00     0.000 HD 
HETATM   18  O   UNL     1      -5.418  10.501  71.678  1.00  0.00    -0.268 OA 
HETATM   19  C   UNL     1      -6.488   8.426  72.410  1.00  0.00    -0.083 C  
HETATM   20  O   UNL     1      -5.270   8.395  73.151  1.00  0.00    -0.041 OA 
HETATM   21  H   UNL     1      -5.344  10.855  72.557  1.00  0.00     0.000 HD 
BRANCH  15  22
HETATM   22  N   UNL     1      -7.531   9.850  69.181  1.00  0.00    -0.080 NA 
HETATM   23  C   UNL     1      -8.525  10.732  69.514  1.00  0.00     0.110 A  
HETATM   24  C   UNL     1      -8.780  10.282  67.442  1.00  0.00    -0.128 A  
HETATM   25  N   UNL     1      -9.306  11.008  68.487  1.00  0.00    -0.182 NA 
HETATM   26  C   UNL     1      -9.187  10.104  66.109  1.00  0.00    -0.159 A  
HETATM   27  N   UNL     1      -8.402   9.369  65.287  1.00  0.00    -0.134 NA 
HETATM   28  N   UNL     1     -10.368  10.621  65.597  1.00  0.00    -0.243 NA 
HETATM   29  H2  UNL     1     -10.365  11.624  65.781  1.00  0.00     0.000 HD 
HETATM   30  C   UNL     1      -7.294   8.797  65.802  1.00  0.00    -0.085 A  
HETATM   31  H1  UNL     1     -10.663  10.491  64.629  1.00  0.00     0.000 HD 
HETATM   32  N   UNL     1      -6.847   8.820  67.077  1.00  0.00    -0.069 NA 
HETATM   33  C   UNL     1      -7.638   9.602  67.838  1.00  0.00    -0.083 A  
ENDBRANCH  15  22
ENDBRANCH  12  13
ENDBRANCH  10  12
ENDBRANCH   9  10
ENDBRANCH   8   9
ENDBRANCH   1   8
TORSDOF 6
ENDMDL
MODEL      337
REMARK 921   NORMALIZED FREE ENERGY PREDICTED BY IDOCK:   -1.90 KCAL/MOL
REMARK 922        TOTAL FREE ENERGY PREDICTED BY IDOCK:   -3.99 KCAL/MOL
REMARK 923 INTER-LIGAND FREE ENERGY PREDICTED BY IDOCK:   -3.58 KCAL/MOL
REMARK 924 INTRA-LIGAND FREE ENERGY PREDICTED BY IDOCK:   -0.41 KCAL/MOL
REMARK 927      BINDING AFFINITY PREDICTED BY RF-SCORE:    0.00 PKD
ROOT
HETATM    1  CA  UNL     1     -11.639  13.522  68.490  1.00  0.00    -0.333 C  
HETATM    2  C   UNL     1     -10.199  13.892  67.966  1.00  0.00    -0.246 C  
HETATM    3  N   UNL     1     -12.503  13.176  67.305  1.00  0.00    -0.126 NA 
HETATM    4  OXT UNL     1      -9.590  14.760  68.659  1.00  0.00    -0.207 OA 
HETATM    5  H2  UNL     1     -13.418  12.816  67.576  1.00  0.00     0.000 HD 
HETATM    6  O   UNL     1      -9.840  13.289  66.916  1.00  0.00    -0.235 OA 
HETATM    7  H1  UNL     1     -12.565  14.001  66.708  1.00  0.00     0.000 HD 
ENDROOT
BRANCH   1   8
HETATM    8  C   UNL     1     -11.546  12.287  69.384  1.00  0.00    -0.378 C  
BRANCH   8   9
HETATM    9  C   UNL     1     -10.256  11.478  69.219  1.00  0.00     0.078 C  
BRANCH   9  10
HETATM   10  S   UNL     1     -10.649   9.685  68.991  1.00  0.00    -0.212 S  
HETATM   11  C   UNL     1     -10.567   9.724  67.176  1.00  0.00    -0.229 C  
BRANCH  10  12
HETATM   12  C   UNL     1      -8.940   9.057  69.273  1.00  0.00    -0.144 C  
BRANCH  12  13
HETATM   13  C   UNL     1      -8.920   7.522  69.271  1.00  0.00    -0.136 C  
HETATM   14  O   UNL     1      -8.905   7.017  67.921  1.00  0.00    -0.125 OA 
HETATM   15  C   UNL     1      -8.454   5.667  68.007  1.00  0.00    -0.102 C  
HETATM   16  C   UNL     1      -7.345   5.686  69.064  1.00  0.00    -0.082 C  
HETATM   17  H   UNL     1      -7.125   6.198  71.684  1.00  0.00     0.000 HD 
HETATM   18  O   UNL     1      -7.331   4.498  69.866  1.00  0.00    -0.049 OA 
HETATM   19  C   UNL     1      -7.669   6.921  69.918  1.00  0.00    -0.109 C  
HETATM   20  O   UNL     1      -7.900   6.571  71.282  1.00  0.00    -0.100 OA 
HETATM   21  H   UNL     1      -6.644   4.510  70.521  1.00  0.00     0.000 HD 
BRANCH  15  22
HETATM   22  N   UNL     1      -8.072   5.201  66.690  1.00  0.00    -0.108 NA 
HETATM   23  C   UNL     1      -8.113   5.922  65.526  1.00  0.00    -0.131 A  
HETATM   24  C   UNL     1      -7.880   3.875  64.966  1.00  0.00    -0.086 A  
HETATM   25  N   UNL     1      -8.010   5.150  64.462  1.00  0.00    -0.100 NA 
HETATM   26  C   UNL     1      -7.789   2.615  64.350  1.00  0.00    -0.077 A  
HETATM   27  N   UNL     1      -7.593   1.528  65.132  1.00  0.00    -0.057 NA 
HETATM   28  N   UNL     1      -7.918   2.423  62.982  1.00  0.00    -0.067 NA 
HETATM   29  H2  UNL     1      -7.239   3.032  62.526  1.00  0.00     0.000 HD 
HETATM   30  C   UNL     1      -7.548   1.700  66.469  1.00  0.00    -0.061 A  
HETATM   31  H1  UNL     1      -7.852   1.508  62.536  1.00  0.00     0.000 HD 
HETATM   32  N   UNL     1      -7.710   2.838  67.179  1.00  0.00    -0.070 NA 
HETATM   33  C   UNL     1      -7.855   3.891  66.352  1.00  0.00    -0.090 A  
ENDBRANCH  15  22
ENDBRANCH  12  13
ENDBRANCH  10  12
ENDBRANCH   9  10
ENDBRANCH   8   9
ENDBRANCH   1   8
TORSDOF 6
ENDMDL
MODEL      338
REMARK 921   NORMALIZED FREE ENERGY PREDICTED BY IDOCK:   -1.74 KCAL/MOL
REMARK 922        TOTAL FREE ENERGY PREDICTED BY IDOCK:   -3.77 KCAL/MOL
REMARK 923 INTER-LIGAND FREE ENERGY PREDICTED BY IDOCK:   -3.43 KCAL/MOL
REMARK 924 INTRA-LIGAND FREE ENERGY PREDICTED BY IDOCK:   -0.34 KCAL/MOL
REMARK 927      BINDING AFFINITY PREDICTED BY RF-SCORE:    0.00 PKD
ROOT
HETATM    1  CA  UNL     1      -5.756   5.126  69.607  1.00  0.00    -0.016 C  
HETATM    2  C   UNL     1      -6.192   3.731  70.199  1.00  0.00    -0.027 C  
HETATM    3  N   UNL     1      -5.962   5.097  68.115  1.00  0.00    -0.021 NA 
HETATM    4  OXT UNL     1      -5.541   3.362  71.219  1.00  0.00    -0.011 OA 
HETATM    5  H2  UNL     1      -5.807   6.005  67.678  1.00  0.00     0.000 HD 
HETATM    6  O   UNL     1      -7.125   3.154  69.574  1.00  0.00    -0.041 OA 
HETATM    7  H1  UNL     1      -5.365   4.366  67.728  1.00  0.00     0.000 HD 
ENDROOT
BRANCH   1   8
HETATM    8  C   UNL     1      -6.649   6.220  70.187  1.00  0.00    -0.045 C  
BRANCH   8   9
HETATM    9  C   UNL     1      -5.890   7.413  70.778  1.00  0.00    -0.031 C  
BRANCH   9  10
HETATM   10  S   UNL     1      -7.079   8.652  71.464  1.00  0.00    -0.081 S  
HETATM   11  C   UNL     1      -6.432  10.055  70.507  1.00  0.00    -0.121 C  
BRANCH  10  12
HETATM   12  C   UNL     1      -8.480   8.248  70.337  1.00  0.00    -0.129 C  
BRANCH  12  13
HETATM   13  C   UNL     1      -9.041   9.522  69.692  1.00  0.00    -0.196 C  
HETATM   14  O   UNL     1      -8.437   9.746  68.402  1.00  0.00    -0.112 OA 
HETATM   15  C   UNL     1      -9.297  10.651  67.713  1.00  0.00    -0.146 C  
HETATM   16  C   UNL     1     -10.716  10.200  68.070  1.00  0.00    -0.260 C  
HETATM   17  H   UNL     1     -12.236  10.028  70.269  1.00  0.00     0.000 HD 
HETATM   18  O   UNL     1     -11.622  11.302  68.211  1.00  0.00    -0.324 OA 
HETATM   19  C   UNL     1     -10.544   9.459  69.404  1.00  0.00    -0.221 C  
HETATM   20  O   UNL     1     -11.304  10.067  70.447  1.00  0.00    -0.273 OA 
HETATM   21  H   UNL     1     -12.502  11.023  68.433  1.00  0.00     0.000 HD 
BRANCH  15  22
HETATM   22  N   UNL     1      -8.964  10.653  66.303  1.00  0.00    -0.160 NA 
HETATM   23  C   UNL     1      -9.790  10.298  65.269  1.00  0.00    -0.306 A  
HETATM   24  C   UNL     1      -7.809  10.355  64.474  1.00  0.00    -0.066 A  
HETATM   25  N   UNL     1      -9.122  10.100  64.149  1.00  0.00    -0.229 NA 
HETATM   26  C   UNL     1      -6.614  10.265  63.740  1.00  0.00    -0.079 A  
HETATM   27  N   UNL     1      -5.463  10.662  64.330  1.00  0.00    -0.135 NA 
HETATM   28  N   UNL     1      -6.548   9.764  62.448  1.00  0.00    -0.100 NA 
HETATM   29  H2  UNL     1      -7.211  10.295  61.883  1.00  0.00     0.000 HD 
HETATM   30  C   UNL     1      -5.510  11.073  65.614  1.00  0.00    -0.082 A  
HETATM   31  H1  UNL     1      -5.680   9.699  61.916  1.00  0.00     0.000 HD 
HETATM   32  N   UNL     1      -6.573  11.120  66.447  1.00  0.00    -0.130 NA 
HETATM   33  C   UNL     1      -7.696  10.760  65.795  1.00  0.00    -0.094 A  
ENDBRANCH  15  22
ENDBRANCH  12  13
ENDBRANCH  10  12
ENDBRANCH   9  10
ENDBRANCH   8   9
ENDBRANCH   1   8
TORSDOF 6
ENDMDL
MODEL      339
REMARK 921   NORMALIZED FREE ENERGY PREDICTED BY IDOCK:   -1.71 KCAL/MOL
REMARK 922        TOTAL FREE ENERGY PREDICTED BY IDOCK:   -3.73 KCAL/MOL
REMARK 923 INTER-LIGAND FREE ENERGY PREDICTED BY IDOCK:   -3.70 KCAL/MOL
REMARK 924 INTRA-LIGAND FREE ENERGY PREDICTED BY IDOCK:   -0.04 KCAL/MOL
REMARK 927      BINDING AFFINITY PREDICTED BY RF-SCORE:    0.00 PKD
ROOT
HETATM    1  CA  UNL     1      -5.818   5.219  69.699  1.00  0.00    -0.017 C  
HETATM    2  C   UNL     1      -6.080   3.711  70.079  1.00  0.00    -0.023 C  
HETATM    3  N   UNL     1      -6.359   5.463  68.314  1.00  0.00    -0.034 NA 
HETATM    4  OXT UNL     1      -5.205   3.196  70.835  1.00  0.00    -0.003 OA 
HETATM    5  H2  UNL     1      -6.326   6.447  68.046  1.00  0.00     0.000 HD 
HETATM    6  O   UNL     1      -7.119   3.205  69.571  1.00  0.00    -0.041 OA 
HETATM    7  H1  UNL     1      -5.852   4.861  67.666  1.00  0.00     0.000 HD 
ENDROOT
BRANCH   1   8
HETATM    8  C   UNL     1      -6.577   6.121  70.669  1.00  0.00    -0.048 C  
BRANCH   8   9
HETATM    9  C   UNL     1      -5.762   7.299  71.211  1.00  0.00    -0.035 C  
BRANCH   9  10
HETATM   10  S   UNL     1      -6.726   8.205  72.504  1.00  0.00    -0.088 S  
HETATM   11  C   UNL     1      -7.402   9.451  71.366  1.00  0.00     0.217 C  
BRANCH  10  12
HETATM   12  C   UNL     1      -8.191   7.088  72.496  1.00  0.00    -0.108 C  
BRANCH  12  13
HETATM   13  C   UNL     1      -9.350   7.717  71.712  1.00  0.00    -0.141 C  
HETATM   14  O   UNL     1      -9.139   7.574  70.293  1.00  0.00    -0.152 OA 
HETATM   15  C   UNL     1     -10.410   7.774  69.680  1.00  0.00    -0.212 C  
HETATM   16  C   UNL     1     -11.410   7.070  70.602  1.00  0.00    -0.307 C  
HETATM   17  H   UNL     1     -12.295   7.329  73.117  1.00  0.00     0.000 HD 
HETATM   18  O   UNL     1     -12.662   7.764  70.685  1.00  0.00    -0.513 OA 
HETATM   19  C   UNL     1     -10.704   7.048  71.966  1.00  0.00    -0.215 C  
HETATM   20  O   UNL     1     -11.455   7.744  72.959  1.00  0.00    -0.372 OA 
HETATM   21  H   UNL     1     -13.282   7.328  71.257  1.00  0.00     0.000 HD 
BRANCH  15  22
HETATM   22  N   UNL     1     -10.364   7.304  68.311  1.00  0.00    -0.187 NA 
HETATM   23  C   UNL     1     -11.062   6.248  67.787  1.00  0.00    -0.258 A  
HETATM   24  C   UNL     1      -9.541   6.734  66.370  1.00  0.00    -0.095 A  
HETATM   25  N   UNL     1     -10.584   5.871  66.617  1.00  0.00    -0.274 NA 
HETATM   26  C   UNL     1      -8.603   6.818  65.327  1.00  0.00    -0.006 A  
HETATM   27  N   UNL     1      -7.724   7.847  65.330  1.00  0.00    -0.090 NA 
HETATM   28  N   UNL     1      -8.513   5.884  64.305  1.00  0.00    -0.324 NA 
HETATM   29  H2  UNL     1      -9.437   5.813  63.877  1.00  0.00     0.000 HD 
HETATM   30  C   UNL     1      -7.755   8.712  66.365  1.00  0.00    -0.095 A  
HETATM   31  H1  UNL     1      -7.832   5.945  63.548  1.00  0.00     0.000 HD 
HETATM   32  N   UNL     1      -8.542   8.687  67.462  1.00  0.00    -0.134 NA 
HETATM   33  C   UNL     1      -9.426   7.673  67.384  1.00  0.00    -0.143 A  
ENDBRANCH  15  22
ENDBRANCH  12  13
ENDBRANCH  10  12
ENDBRANCH   9  10
ENDBRANCH   8   9
ENDBRANCH   1   8
TORSDOF 6
ENDMDL
MODEL      340
REMARK 921   NORMALIZED FREE ENERGY PREDICTED BY IDOCK:   -1.58 KCAL/MOL
REMARK 922        TOTAL FREE ENERGY PREDICTED BY IDOCK:   -3.56 KCAL/MOL
REMARK 923 INTER-LIGAND FREE ENERGY PREDICTED BY IDOCK:   -3.46 KCAL/MOL
REMARK 924 INTRA-LIGAND FREE ENERGY PREDICTED BY IDOCK:   -0.10 KCAL/MOL
REMARK 927      BINDING AFFINITY PREDICTED BY RF-SCORE:    0.00 PKD
ROOT
HETATM    1  CA  UNL     1      -6.690  14.755  67.532  1.00  0.00    -0.130 C  
HETATM    2  C   UNL     1      -7.262  16.163  67.114  1.00  0.00    -0.220 C  
HETATM    3  N   UNL     1      -5.209  14.893  67.771  1.00  0.00    -0.293 NA 
HETATM    4  OXT UNL     1      -8.241  16.120  66.312  1.00  0.00    -0.307 OA 
HETATM    5  H2  UNL     1      -4.791  14.045  68.154  1.00  0.00     0.000 HD 
HETATM    6  O   UNL     1      -6.666  17.154  67.621  1.00  0.00    -0.136 OA 
HETATM    7  H1  UNL     1      -4.774  15.185  66.896  1.00  0.00     0.000 HD 
ENDROOT
BRANCH   1   8
HETATM    8  C   UNL     1      -7.342  14.316  68.841  1.00  0.00    -0.126 C  
BRANCH   8   9
HETATM    9  C   UNL     1      -8.869  14.430  68.861  1.00  0.00    -0.067 C  
BRANCH   9  10
HETATM   10  S   UNL     1      -9.596  13.557  67.402  1.00  0.00    -0.234 S  
HETATM   11  C   UNL     1      -9.485  11.894  68.128  1.00  0.00    -0.195 C  
BRANCH  10  12
HETATM   12  C   UNL     1     -11.362  13.863  67.831  1.00  0.00    -0.292 C  
BRANCH  12  13
HETATM   13  C   UNL     1     -11.981  14.892  66.876  1.00  0.00    -0.100 C  
HETATM   14  O   UNL     1     -11.486  16.215  67.165  1.00  0.00     0.065 OA 
HETATM   15  C   UNL     1     -11.751  17.001  66.005  1.00  0.00     1.911 C  
HETATM   16  C   UNL     1     -11.453  16.074  64.822  1.00  0.00    -0.201 C  
HETATM   17  H   UNL     1     -12.421  13.790  63.812  1.00  0.00     0.000 HD 
HETATM   18  O   UNL     1     -12.347  16.285  63.722  1.00  0.00    -1.081 OA 
HETATM   19  C   UNL     1     -11.624  14.663  65.405  1.00  0.00    -0.345 C  
HETATM   20  O   UNL     1     -12.642  13.933  64.724  1.00  0.00    -0.603 OA 
HETATM   21  H   UNL     1     -12.162  15.711  62.988  1.00  0.00     0.000 HD 
BRANCH  15  22
HETATM   22  N   UNL     1     -10.981  18.226  66.066  1.00  0.00     0.063 NA 
HETATM   23  C   UNL     1     -10.728  19.083  65.029  1.00  0.00     1.265 A  
HETATM   24  C   UNL     1      -9.376  19.608  66.595  1.00  0.00    -0.376 A  
HETATM   25  N   UNL     1      -9.755  19.927  65.311  1.00  0.00     0.068 NA 
HETATM   26  C   UNL     1      -8.361  20.097  67.435  1.00  0.00    -0.338 A  
HETATM   27  N   UNL     1      -8.284  19.620  68.700  1.00  0.00    -0.316 NA 
HETATM   28  N   UNL     1      -7.416  21.027  67.028  1.00  0.00    -0.628 NA 
HETATM   29  H2  UNL     1      -7.921  21.834  66.663  1.00  0.00     0.000 HD 
HETATM   30  C   UNL     1      -9.152  18.657  69.074  1.00  0.00    -0.098 A  
HETATM   31  H1  UNL     1      -6.679  21.382  67.639  1.00  0.00     0.000 HD 
HETATM   32  N   UNL     1     -10.105  18.046  68.337  1.00  0.00    -0.367 NA 
HETATM   33  C   UNL     1     -10.168  18.592  67.106  1.00  0.00    -0.378 A  
ENDBRANCH  15  22
ENDBRANCH  12  13
ENDBRANCH  10  12
ENDBRANCH   9  10
ENDBRANCH   8   9
ENDBRANCH   1   8
TORSDOF 6
ENDMDL
MODEL      341
REMARK 921   NORMALIZED FREE ENERGY PREDICTED BY IDOCK:   -1.44 KCAL/MOL
REMARK 922        TOTAL FREE ENERGY PREDICTED BY IDOCK:   -3.36 KCAL/MOL
REMARK 923 INTER-LIGAND FREE ENERGY PREDICTED BY IDOCK:   -3.63 KCAL/MOL
REMARK 924 INTRA-LIGAND FREE ENERGY PREDICTED BY IDOCK:    0.27 KCAL/MOL
REMARK 927      BINDING AFFINITY PREDICTED BY RF-SCORE:    0.00 PKD
ROOT
HETATM    1  CA  UNL     1     -11.320  10.263  69.224  1.00  0.00    -0.196 C  
HETATM    2  C   UNL     1     -12.172  10.272  70.550  1.00  0.00    -0.301 C  
HETATM    3  N   UNL     1      -9.925  10.730  69.550  1.00  0.00    -0.431 NA 
HETATM    4  OXT UNL     1     -13.401  10.530  70.387  1.00  0.00    -0.154 OA 
HETATM    5  H2  UNL     1      -9.285  10.641  68.760  1.00  0.00     0.000 HD 
HETATM    6  O   UNL     1     -11.521  10.035  71.605  1.00  0.00    -0.282 OA 
HETATM    7  H1  UNL     1      -9.986  11.684  69.903  1.00  0.00     0.000 HD 
ENDROOT
BRANCH   1   8
HETATM    8  C   UNL     1     -11.229   8.834  68.694  1.00  0.00     0.401 C  
BRANCH   8   9
HETATM    9  C   UNL     1      -9.857   8.176  68.872  1.00  0.00    -0.176 C  
BRANCH   9  10
HETATM   10  S   UNL     1      -9.685   7.504  70.586  1.00  0.00    -0.174 S  
HETATM   11  C   UNL     1     -10.797   6.090  70.324  1.00  0.00    -0.329 C  
BRANCH  10  12
HETATM   12  C   UNL     1      -8.108   6.595  70.301  1.00  0.00    -0.121 C  
BRANCH  12  13
HETATM   13  C   UNL     1      -6.946   7.576  70.099  1.00  0.00    -0.059 C  
HETATM   14  O   UNL     1      -6.723   7.816  68.695  1.00  0.00    -0.054 OA 
HETATM   15  C   UNL     1      -5.963   9.021  68.614  1.00  0.00    -0.045 C  
HETATM   16  C   UNL     1      -6.558   9.937  69.687  1.00  0.00    -0.056 C  
HETATM   17  H   UNL     1      -6.789   9.960  72.355  1.00  0.00     0.000 HD 
HETATM   18  O   UNL     1      -5.564  10.748  70.327  1.00  0.00    -0.060 OA 
HETATM   19  C   UNL     1      -7.201   8.966  70.688  1.00  0.00    -0.075 C  
HETATM   20  O   UNL     1      -6.631   9.098  71.989  1.00  0.00    -0.267 OA 
HETATM   21  H   UNL     1      -5.933  11.317  70.992  1.00  0.00     0.000 HD 
BRANCH  15  22
HETATM   22  N   UNL     1      -5.999   9.522  67.255  1.00  0.00    -0.048 NA 
HETATM   23  C   UNL     1      -5.286  10.581  66.758  1.00  0.00    -0.045 A  
HETATM   24  C   UNL     1      -6.808  10.144  65.325  1.00  0.00    -0.137 A  
HETATM   25  N   UNL     1      -5.756  10.990  65.595  1.00  0.00    -0.108 NA 
HETATM   26  C   UNL     1      -7.743  10.095  64.277  1.00  0.00    -0.131 A  
HETATM   27  N   UNL     1      -8.634   9.077  64.254  1.00  0.00    -0.178 NA 
HETATM   28  N   UNL     1      -7.817  11.052  63.276  1.00  0.00    -0.325 NA 
HETATM   29  H2  UNL     1      -6.892  11.122  62.853  1.00  0.00     0.000 HD 
HETATM   30  C   UNL     1      -8.617   8.189  65.269  1.00  0.00    -0.106 A  
HETATM   31  H1  UNL     1      -8.496  11.016  62.515  1.00  0.00     0.000 HD 
HETATM   32  N   UNL     1      -7.834   8.180  66.370  1.00  0.00    -0.091 NA 
HETATM   33  C   UNL     1      -6.938   9.184  66.317  1.00  0.00    -0.086 A  
ENDBRANCH  15  22
ENDBRANCH  12  13
ENDBRANCH  10  12
ENDBRANCH   9  10
ENDBRANCH   8   9
ENDBRANCH   1   8
TORSDOF 6
ENDMDL
MODEL      342
REMARK 921   NORMALIZED FREE ENERGY PREDICTED BY IDOCK:   -0.91 KCAL/MOL
REMARK 922        TOTAL FREE ENERGY PREDICTED BY IDOCK:   -2.65 KCAL/MOL
REMARK 923 INTER-LIGAND FREE ENERGY PREDICTED BY IDOCK:   -6.90 KCAL/MOL
REMARK 924 INTRA-LIGAND FREE ENERGY PREDICTED BY IDOCK:    4.25 KCAL/MOL
REMARK 927      BINDING AFFINITY PREDICTED BY RF-SCORE:    0.00 PKD
ROOT
HETATM    1  CA  UNL     1      -7.184   9.621  69.138  1.00  0.00    -0.068 C  
HETATM    2  C   UNL     1      -7.342   8.438  70.168  1.00  0.00    -0.058 C  
HETATM    3  N   UNL     1      -5.716   9.913  68.968  1.00  0.00    -0.035 NA 
HETATM    4  OXT UNL     1      -8.392   8.488  70.874  1.00  0.00    -0.120 OA 
HETATM    5  H2  UNL     1      -5.532  10.592  68.230  1.00  0.00     0.000 HD 
HETATM    6  O   UNL     1      -6.399   7.600  70.167  1.00  0.00    -0.033 OA 
HETATM    7  H1  UNL     1      -5.344  10.203  69.872  1.00  0.00     0.000 HD 
ENDROOT
BRANCH   1   8
HETATM    8  C   UNL     1      -7.741   9.188  67.784  1.00  0.00    -0.093 C  
BRANCH   8   9
HETATM    9  C   UNL     1      -9.221   9.519  67.569  1.00  0.00    -0.126 C  
BRANCH   9  10
HETATM   10  S   UNL     1      -9.647  11.116  68.398  1.00  0.00    -0.197 S  
HETATM   11  C   UNL     1      -8.933  12.173  67.104  1.00  0.00    -0.189 C  
BRANCH  10  12
HETATM   12  C   UNL     1     -11.391  11.201  67.810  1.00  0.00    -0.293 C  
BRANCH  12  13
HETATM   13  C   UNL     1     -11.461  11.826  66.410  1.00  0.00    -0.239 C  
HETATM   14  O   UNL     1     -11.685  13.247  66.500  1.00  0.00    -0.340 OA 
HETATM   15  C   UNL     1     -11.307  13.790  65.237  1.00  0.00    -0.304 C  
HETATM   16  C   UNL     1     -10.049  13.016  64.834  1.00  0.00    -0.213 C  
HETATM   17  H   UNL     1      -9.396  10.488  64.233  1.00  0.00     0.000 HD 
HETATM   18  O   UNL     1      -9.982  12.777  63.422  1.00  0.00    -0.642 OA 
HETATM   19  C   UNL     1     -10.164  11.694  65.609  1.00  0.00    -0.243 C  
HETATM   20  O   UNL     1     -10.201  10.571  64.731  1.00  0.00    -0.341 OA 
HETATM   21  H   UNL     1      -9.202  12.296  63.172  1.00  0.00     0.000 HD 
BRANCH  15  22
HETATM   22  N   UNL     1     -11.162  15.226  65.353  1.00  0.00    -0.331 NA 
HETATM   23  C   UNL     1     -11.505  16.160  64.411  1.00  0.00    -0.193 A  
HETATM   24  C   UNL     1     -10.270  17.160  65.837  1.00  0.00    -0.276 A  
HETATM   25  N   UNL     1     -10.973  17.340  64.668  1.00  0.00    -0.853 NA 
HETATM   26  C   UNL     1      -9.445  18.013  66.591  1.00  0.00    -0.297 A  
HETATM   27  N   UNL     1      -8.941  17.556  67.760  1.00  0.00    -0.242 NA 
HETATM   28  N   UNL     1      -9.099  19.293  66.185  1.00  0.00    -0.440 NA 
HETATM   29  H2  UNL     1      -9.966  19.797  65.998  1.00  0.00     0.000 HD 
HETATM   30  C   UNL     1      -9.209  16.283  68.119  1.00  0.00    -0.199 A  
HETATM   31  H1  UNL     1      -8.501  19.912  66.732  1.00  0.00     0.000 HD 
HETATM   32  N   UNL     1      -9.908  15.345  67.443  1.00  0.00    -0.216 NA 
HETATM   33  C   UNL     1     -10.424  15.867  66.313  1.00  0.00    -0.318 A  
ENDBRANCH  15  22
ENDBRANCH  12  13
ENDBRANCH  10  12
ENDBRANCH   9  10
ENDBRANCH   8   9
ENDBRANCH   1   8
TORSDOF 6
ENDMDL
MODEL      343
REMARK 921   NORMALIZED FREE ENERGY PREDICTED BY IDOCK:    0.26 KCAL/MOL
REMARK 922        TOTAL FREE ENERGY PREDICTED BY IDOCK:   -1.07 KCAL/MOL
REMARK 923 INTER-LIGAND FREE ENERGY PREDICTED BY IDOCK:   -2.09 KCAL/MOL
REMARK 924 INTRA-LIGAND FREE ENERGY PREDICTED BY IDOCK:    1.02 KCAL/MOL
REMARK 927      BINDING AFFINITY PREDICTED BY RF-SCORE:    0.00 PKD
ROOT
HETATM    1  CA  UNL     1      -6.059  11.091  69.088  1.00  0.00    -0.045 C  
HETATM    2  C   UNL     1      -7.615  11.326  69.179  1.00  0.00    -0.070 C  
HETATM    3  N   UNL     1      -5.479  12.100  68.130  1.00  0.00    -0.050 NA 
HETATM    4  OXT UNL     1      -8.297  10.279  69.384  1.00  0.00    -0.151 OA 
HETATM    5  H2  UNL     1      -4.460  12.081  68.107  1.00  0.00     0.000 HD 
HETATM    6  O   UNL     1      -7.985  12.523  69.024  1.00  0.00     0.092 OA 
HETATM    7  H1  UNL     1      -5.897  11.941  67.213  1.00  0.00     0.000 HD 
ENDROOT
BRANCH   1   8
HETATM    8  C   UNL     1      -5.433  11.328  70.460  1.00  0.00    -0.129 C  
BRANCH   8   9
HETATM    9  C   UNL     1      -5.645  10.188  71.461  1.00  0.00     0.028 C  
BRANCH   9  10
HETATM   10  S   UNL     1      -6.645   8.837  70.691  1.00  0.00    -0.052 S  
HETATM   11  C   UNL     1      -5.236   7.726  70.405  1.00  0.00    -0.023 C  
BRANCH  10  12
HETATM   12  C   UNL     1      -7.211   8.068  72.267  1.00  0.00    -0.094 C  
BRANCH  12  13
HETATM   13  C   UNL     1      -8.154   6.890  71.988  1.00  0.00    -0.099 C  
HETATM   14  O   UNL     1      -8.039   6.462  70.616  1.00  0.00    -0.110 OA 
HETATM   15  C   UNL     1      -8.587   5.147  70.563  1.00  0.00    -0.118 C  
HETATM   16  C   UNL     1      -8.109   4.466  71.849  1.00  0.00    -0.098 C  
HETATM   17  H   UNL     1      -8.446   4.778  74.488  1.00  0.00     0.000 HD 
HETATM   18  O   UNL     1      -9.091   3.577  72.396  1.00  0.00    -0.094 OA 
HETATM   19  C   UNL     1      -7.836   5.636  72.807  1.00  0.00    -0.102 C  
HETATM   20  O   UNL     1      -8.644   5.556  73.980  1.00  0.00    -0.115 OA 
HETATM   21  H   UNL     1      -8.795   3.155  73.193  1.00  0.00     0.000 HD 
BRANCH  15  22
HETATM   22  N   UNL     1      -8.195   4.512  69.322  1.00  0.00    -0.068 NA 
HETATM   23  C   UNL     1      -7.362   3.433  69.185  1.00  0.00    -0.049 A  
HETATM   24  C   UNL     1      -7.556   4.301  67.244  1.00  0.00    -0.077 A  
HETATM   25  N   UNL     1      -6.948   3.282  67.941  1.00  0.00    -0.049 NA 
HETATM   26  C   UNL     1      -7.475   4.716  65.904  1.00  0.00    -0.082 A  
HETATM   27  N   UNL     1      -8.268   5.733  65.494  1.00  0.00    -0.125 NA 
HETATM   28  N   UNL     1      -6.604   4.153  64.983  1.00  0.00    -0.046 NA 
HETATM   29  H2  UNL     1      -6.775   3.147  64.979  1.00  0.00     0.000 HD 
HETATM   30  C   UNL     1      -9.058   6.336  66.406  1.00  0.00    -0.153 A  
HETATM   31  H1  UNL     1      -6.545   4.454  64.010  1.00  0.00     0.000 HD 
HETATM   32  N   UNL     1      -9.158   6.091  67.730  1.00  0.00    -0.111 NA 
HETATM   33  C   UNL     1      -8.385   5.042  68.073  1.00  0.00    -0.100 A  
ENDBRANCH  15  22
ENDBRANCH  12  13
ENDBRANCH  10  12
ENDBRANCH   9  10
ENDBRANCH   8   9
ENDBRANCH   1   8
TORSDOF 6
ENDMDL
MODEL      344
REMARK 921   NORMALIZED FREE ENERGY PREDICTED BY IDOCK:    0.37 KCAL/MOL
REMARK 922        TOTAL FREE ENERGY PREDICTED BY IDOCK:   -0.92 KCAL/MOL
REMARK 923 INTER-LIGAND FREE ENERGY PREDICTED BY IDOCK:   -2.78 KCAL/MOL
REMARK 924 INTRA-LIGAND FREE ENERGY PREDICTED BY IDOCK:    1.87 KCAL/MOL
REMARK 927      BINDING AFFINITY PREDICTED BY RF-SCORE:    0.00 PKD
ROOT
HETATM    1  CA  UNL     1      -8.404  11.435  66.795  1.00  0.00    -0.163 C  
HETATM    2  C   UNL     1      -7.616  10.731  67.965  1.00  0.00    -0.092 C  
HETATM    3  N   UNL     1      -8.655  10.419  65.710  1.00  0.00    -0.158 NA 
HETATM    4  OXT UNL     1      -6.816  11.485  68.593  1.00  0.00    -0.066 OA 
HETATM    5  H2  UNL     1      -9.259  10.775  64.970  1.00  0.00     0.000 HD 
HETATM    6  O   UNL     1      -7.873   9.505  68.121  1.00  0.00    -0.083 OA 
HETATM    7  H1  UNL     1      -7.751  10.099  65.362  1.00  0.00     0.000 HD 
ENDROOT
BRANCH   1   8
HETATM    8  C   UNL     1      -9.756  11.915  67.316  1.00  0.00    -0.191 C  
BRANCH   8   9
HETATM    9  C   UNL     1     -10.948  11.060  66.872  1.00  0.00    -0.249 C  
BRANCH   9  10
HETATM   10  S   UNL     1     -11.480  11.538  65.167  1.00  0.00     0.079 S  
HETATM   11  C   UNL     1     -12.851  12.600  65.711  1.00  0.00     0.668 C  
BRANCH  10  12
HETATM   12  C   UNL     1     -10.244  12.883  64.929  1.00  0.00    -0.275 C  
BRANCH  12  13
HETATM   13  C   UNL     1     -10.707  14.173  65.620  1.00  0.00    -0.313 C  
HETATM   14  O   UNL     1      -9.846  14.490  66.731  1.00  0.00    -0.249 OA 
HETATM   15  C   UNL     1     -10.064  15.869  67.023  1.00  0.00    -0.268 C  
HETATM   16  C   UNL     1     -10.196  16.547  65.656  1.00  0.00    -0.292 C  
HETATM   17  H   UNL     1     -11.867  16.459  63.564  1.00  0.00     0.000 HD 
HETATM   18  O   UNL     1     -11.156  17.611  65.663  1.00  0.00     0.034 OA 
HETATM   19  C   UNL     1     -10.643  15.412  64.722  1.00  0.00    -0.244 C  
HETATM   20  O   UNL     1     -11.906  15.691  64.121  1.00  0.00    -0.487 OA 
HETATM   21  H   UNL     1     -11.239  18.032  64.816  1.00  0.00     0.000 HD 
BRANCH  15  22
HETATM   22  N   UNL     1      -8.999  16.355  67.876  1.00  0.00    -0.195 NA 
HETATM   23  C   UNL     1      -9.127  16.801  69.165  1.00  0.00    -0.120 A  
HETATM   24  C   UNL     1      -7.200  17.428  68.492  1.00  0.00    -0.230 A  
HETATM   25  N   UNL     1      -8.059  17.464  69.567  1.00  0.00     0.378 NA 
HETATM   26  C   UNL     1      -5.934  17.997  68.268  1.00  0.00    -0.173 A  
HETATM   27  N   UNL     1      -5.296  17.715  67.108  1.00  0.00    -0.127 NA 
HETATM   28  N   UNL     1      -5.314  18.855  69.163  1.00  0.00    -0.198 NA 
HETATM   29  H2  UNL     1      -5.276  18.378  70.064  1.00  0.00     0.000 HD 
HETATM   30  C   UNL     1      -5.931  16.945  66.199  1.00  0.00     0.440 A  
HETATM   31  H1  UNL     1      -4.396  19.268  69.000  1.00  0.00     0.000 HD 
HETATM   32  N   UNL     1      -7.173  16.418  66.259  1.00  0.00    -0.047 NA 
HETATM   33  C   UNL     1      -7.741  16.690  67.451  1.00  0.00    -0.163 A  
ENDBRANCH  15  22
ENDBRANCH  12  13
ENDBRANCH  10  12
ENDBRANCH   9  10
ENDBRANCH   8   9
ENDBRANCH   1   8
TORSDOF 6
ENDMDL
MODEL      345
REMARK 921   NORMALIZED FREE ENERGY PREDICTED BY IDOCK:    0.81 KCAL/MOL
REMARK 922        TOTAL FREE ENERGY PREDICTED BY IDOCK:   -0.33 KCAL/MOL
REMARK 923 INTER-LIGAND FREE ENERGY PREDICTED BY IDOCK:   -3.56 KCAL/MOL
REMARK 924 INTRA-LIGAND FREE ENERGY PREDICTED BY IDOCK:    3.23 KCAL/MOL
REMARK 927      BINDING AFFINITY PREDICTED BY RF-SCORE:    0.00 PKD
ROOT
HETATM    1  CA  UNL     1     -11.081   8.207  71.715  1.00  0.00    -0.270 C  
HETATM    2  C   UNL     1     -11.445   7.742  70.254  1.00  0.00    -0.104 C  
HETATM    3  N   UNL     1     -12.359   8.526  72.448  1.00  0.00    -0.425 NA 
HETATM    4  OXT UNL     1     -10.587   8.042  69.373  1.00  0.00    -0.229 OA 
HETATM    5  H2  UNL     1     -12.207   8.726  73.436  1.00  0.00     0.000 HD 
HETATM    6  O   UNL     1     -12.551   7.143  70.144  1.00  0.00     0.169 OA 
HETATM    7  H1  UNL     1     -12.821   9.291  71.957  1.00  0.00     0.000 HD 
ENDROOT
BRANCH   1   8
HETATM    8  C   UNL     1     -10.388   7.062  72.450  1.00  0.00    -0.227 C  
BRANCH   8   9
HETATM    9  C   UNL     1      -9.024   7.423  73.046  1.00  0.00    -0.147 C  
BRANCH   9  10
HETATM   10  S   UNL     1      -8.401   6.040  74.104  1.00  0.00    -0.108 S  
HETATM   11  C   UNL     1      -9.669   4.846  73.584  1.00  0.00    -0.137 C  
BRANCH  10  12
HETATM   12  C   UNL     1      -7.080   5.470  72.953  1.00  0.00    -0.089 C  
BRANCH  12  13
HETATM   13  C   UNL     1      -6.483   6.656  72.183  1.00  0.00    -0.054 C  
HETATM   14  O   UNL     1      -6.622   6.460  70.762  1.00  0.00    -0.049 OA 
HETATM   15  C   UNL     1      -6.457   7.745  70.166  1.00  0.00    -0.034 C  
HETATM   16  C   UNL     1      -7.187   8.713  71.102  1.00  0.00    -0.085 C  
HETATM   17  H   UNL     1      -6.949   9.570  73.628  1.00  0.00     0.000 HD 
HETATM   18  O   UNL     1      -6.526   9.981  71.201  1.00  0.00    -0.308 OA 
HETATM   19  C   UNL     1      -7.188   7.987  72.456  1.00  0.00    -0.097 C  
HETATM   20  O   UNL     1      -6.512   8.744  73.459  1.00  0.00    -0.254 OA 
HETATM   21  H   UNL     1      -6.979  10.582  71.782  1.00  0.00     0.000 HD 
BRANCH  15  22
HETATM   22  N   UNL     1      -6.927   7.705  68.796  1.00  0.00    -0.069 NA 
HETATM   23  C   UNL     1      -7.451   8.750  68.083  1.00  0.00    -0.092 A  
HETATM   24  C   UNL     1      -7.926   6.975  66.997  1.00  0.00    -0.116 A  
HETATM   25  N   UNL     1      -8.072   8.343  66.992  1.00  0.00    -0.103 NA 
HETATM   26  C   UNL     1      -8.407   5.965  66.146  1.00  0.00    -0.124 A  
HETATM   27  N   UNL     1      -8.025   4.688  66.379  1.00  0.00    -0.102 NA 
HETATM   28  N   UNL     1      -9.277   6.206  65.092  1.00  0.00    -0.294 NA 
HETATM   29  H2  UNL     1      -8.849   6.920  64.503  1.00  0.00     0.000 HD 
HETATM   30  C   UNL     1      -7.245   4.439  67.451  1.00  0.00    -0.069 A  
HETATM   31  H1  UNL     1      -9.625   5.472  64.475  1.00  0.00     0.000 HD 
HETATM   32  N   UNL     1      -6.795   5.303  68.387  1.00  0.00    -0.054 NA 
HETATM   33  C   UNL     1      -7.165   6.562  68.080  1.00  0.00    -0.088 A  
ENDBRANCH  15  22
ENDBRANCH  12  13
ENDBRANCH  10  12
ENDBRANCH   9  10
ENDBRANCH   8   9
ENDBRANCH   1   8
TORSDOF 6
ENDMDL
MODEL      346
REMARK 921   NORMALIZED FREE ENERGY PREDICTED BY IDOCK:    1.34 KCAL/MOL
REMARK 922        TOTAL FREE ENERGY PREDICTED BY IDOCK:    0.39 KCAL/MOL
REMARK 923 INTER-LIGAND FREE ENERGY PREDICTED BY IDOCK:   -0.74 KCAL/MOL
REMARK 924 INTRA-LIGAND FREE ENERGY PREDICTED BY IDOCK:    1.13 KCAL/MOL
REMARK 927      BINDING AFFINITY PREDICTED BY RF-SCORE:    0.00 PKD
ROOT
HETATM    1  CA  UNL     1      -6.501  13.100  68.298  1.00  0.00    -0.096 C  
HETATM    2  C   UNL     1      -7.130  14.327  67.535  1.00  0.00    -0.167 C  
HETATM    3  N   UNL     1      -5.125  12.844  67.739  1.00  0.00    -0.106 NA 
HETATM    4  OXT UNL     1      -8.389  14.281  67.405  1.00  0.00    -0.174 OA 
HETATM    5  H2  UNL     1      -4.613  12.134  68.263  1.00  0.00     0.000 HD 
HETATM    6  O   UNL     1      -6.300  15.193  67.140  1.00  0.00    -0.280 OA 
HETATM    7  H1  UNL     1      -5.224  12.611  66.752  1.00  0.00     0.000 HD 
ENDROOT
BRANCH   1   8
HETATM    8  C   UNL     1      -6.354  13.449  69.777  1.00  0.00    -0.083 C  
BRANCH   8   9
HETATM    9  C   UNL     1      -7.014  12.451  70.734  1.00  0.00     2.727 C  
BRANCH   9  10
HETATM   10  S   UNL     1      -6.259  10.775  70.533  1.00  0.00    -0.024 S  
HETATM   11  C   UNL     1      -5.347  10.810  72.105  1.00  0.00     0.313 C  
BRANCH  10  12
HETATM   12  C   UNL     1      -7.708   9.815  71.144  1.00  0.00     0.644 C  
BRANCH  12  13
HETATM   13  C   UNL     1      -8.317   8.973  70.015  1.00  0.00    -0.142 C  
HETATM   14  O   UNL     1      -9.205   9.772  69.208  1.00  0.00    -0.168 OA 
HETATM   15  C   UNL     1      -9.368   9.067  67.980  1.00  0.00    -0.141 C  
HETATM   16  C   UNL     1      -7.980   8.508  67.656  1.00  0.00    -0.107 C  
HETATM   17  H   UNL     1      -6.259   6.758  68.729  1.00  0.00     0.000 HD 
HETATM   18  O   UNL     1      -8.040   7.215  67.039  1.00  0.00    -0.114 OA 
HETATM   19  C   UNL     1      -7.284   8.431  69.024  1.00  0.00    -0.070 C  
HETATM   20  O   UNL     1      -6.900   7.095  69.344  1.00  0.00    -0.048 OA 
HETATM   21  H   UNL     1      -7.180   6.868  66.839  1.00  0.00     0.000 HD 
BRANCH  15  22
HETATM   22  N   UNL     1      -9.946   9.952  66.989  1.00  0.00    -0.190 NA 
HETATM   23  C   UNL     1     -10.002   9.738  65.637  1.00  0.00    -0.282 A  
HETATM   24  C   UNL     1     -10.450  11.803  65.945  1.00  0.00    -0.255 A  
HETATM   25  N   UNL     1     -10.295  10.840  64.974  1.00  0.00    -0.303 NA 
HETATM   26  C   UNL     1     -10.708  13.183  65.883  1.00  0.00    -0.274 A  
HETATM   27  N   UNL     1     -10.881  13.860  67.041  1.00  0.00    -0.284 NA 
HETATM   28  N   UNL     1     -10.769  13.894  64.693  1.00  0.00    -0.462 NA 
HETATM   29  H2  UNL     1     -11.454  13.431  64.097  1.00  0.00     0.000 HD 
HETATM   30  C   UNL     1     -10.744  13.188  68.203  1.00  0.00    -0.242 A  
HETATM   31  H1  UNL     1     -10.956  14.896  64.649  1.00  0.00     0.000 HD 
HETATM   32  N   UNL     1     -10.411  11.893  68.394  1.00  0.00    -0.211 NA 
HETATM   33  C   UNL     1     -10.298  11.257  67.211  1.00  0.00    -0.201 A  
ENDBRANCH  15  22
ENDBRANCH  12  13
ENDBRANCH  10  12
ENDBRANCH   9  10
ENDBRANCH   8   9
ENDBRANCH   1   8
TORSDOF 6
ENDMDL
MODEL      347
REMARK 921   NORMALIZED FREE ENERGY PREDICTED BY IDOCK:    6.02 KCAL/MOL
REMARK 922        TOTAL FREE ENERGY PREDICTED BY IDOCK:    6.71 KCAL/MOL
REMARK 923 INTER-LIGAND FREE ENERGY PREDICTED BY IDOCK:    4.37 KCAL/MOL
REMARK 924 INTRA-LIGAND FREE ENERGY PREDICTED BY IDOCK:    2.33 KCAL/MOL
REMARK 927      BINDING AFFINITY PREDICTED BY RF-SCORE:    0.00 PKD
ROOT
HETATM    1  CA  UNL     1     -11.962  15.786  66.028  1.00  0.00     0.932 C  
HETATM    2  C   UNL     1     -11.302  14.558  65.293  1.00  0.00    -0.353 C  
HETATM    3  N   UNL     1     -13.454  15.718  65.824  1.00  0.00     2.703 NA 
HETATM    4  OXT UNL     1     -10.144  14.778  64.830  1.00  0.00    -0.352 OA 
HETATM    5  H2  UNL     1     -13.958  16.419  66.367  1.00  0.00     0.000 HD 
HETATM    6  O   UNL     1     -12.014  13.516  65.248  1.00  0.00    -0.339 OA 
HETATM    7  H1  UNL     1     -13.639  15.787  64.824  1.00  0.00     0.000 HD 
ENDROOT
BRANCH   1   8
HETATM    8  C   UNL     1     -11.685  15.685  67.526  1.00  0.00     0.069 C  
BRANCH   8   9
HETATM    9  C   UNL     1     -10.584  14.688  67.903  1.00  0.00    -0.244 C  
BRANCH   9  10
HETATM   10  S   UNL     1     -11.192  13.525  69.206  1.00  0.00    -0.194 S  
HETATM   11  C   UNL     1     -12.141  12.475  68.066  1.00  0.00    -0.063 C  
BRANCH  10  12
HETATM   12  C   UNL     1      -9.683  12.469  69.268  1.00  0.00     0.727 C  
BRANCH  12  13
HETATM   13  C   UNL     1      -8.502  13.171  68.584  1.00  0.00     0.029 C  
HETATM   14  O   UNL     1      -8.662  14.602  68.636  1.00  0.00    -0.167 OA 
HETATM   15  C   UNL     1      -7.372  15.157  68.391  1.00  0.00    -0.115 C  
HETATM   16  C   UNL     1      -6.400  14.247  69.149  1.00  0.00    -0.104 C  
HETATM   17  H   UNL     1      -5.605  11.691  69.049  1.00  0.00     0.000 HD 
HETATM   18  O   UNL     1      -5.157  14.075  68.456  1.00  0.00    -0.082 OA 
HETATM   19  C   UNL     1      -7.153  12.913  69.262  1.00  0.00     0.104 C  
HETATM   20  O   UNL     1      -6.442  11.851  68.628  1.00  0.00    -0.054 OA 
HETATM   21  H   UNL     1      -4.554  13.511  68.925  1.00  0.00     0.000 HD 
BRANCH  15  22
HETATM   22  N   UNL     1      -7.367  16.554  68.772  1.00  0.00    -0.195 NA 
HETATM   23  C   UNL     1      -7.678  17.619  67.970  1.00  0.00    -0.232 A  
HETATM   24  C   UNL     1      -6.708  18.420  69.695  1.00  0.00    -0.027 A  
HETATM   25  N   UNL     1      -7.284  18.764  68.494  1.00  0.00    -0.282 NA 
HETATM   26  C   UNL     1      -6.054  19.172  70.686  1.00  0.00     0.030 A  
HETATM   27  N   UNL     1      -5.651  18.543  71.814  1.00  0.00    -0.041 NA 
HETATM   28  N   UNL     1      -5.776  20.525  70.557  1.00  0.00    -0.490 NA 
HETATM   29  H2  UNL     1      -6.656  20.998  70.349  1.00  0.00     0.000 HD 
HETATM   30  C   UNL     1      -5.848  17.211  71.909  1.00  0.00     1.622 A  
HETATM   31  H1  UNL     1      -5.301  21.071  71.276  1.00  0.00     0.000 HD 
HETATM   32  N   UNL     1      -6.378  16.369  70.996  1.00  0.00     1.142 NA 
HETATM   33  C   UNL     1      -6.804  17.055  69.916  1.00  0.00     0.350 A  
ENDBRANCH  15  22
ENDBRANCH  12  13
ENDBRANCH  10  12
ENDBRANCH   9  10
ENDBRANCH   8   9
ENDBRANCH   1   8
TORSDOF 6
ENDMDL
MODEL      348
REMARK 921   NORMALIZED FREE ENERGY PREDICTED BY IDOCK:   12.67 KCAL/MOL
REMARK 922        TOTAL FREE ENERGY PREDICTED BY IDOCK:   15.70 KCAL/MOL
REMARK 923 INTER-LIGAND FREE ENERGY PREDICTED BY IDOCK:   15.28 KCAL/MOL
REMARK 924 INTRA-LIGAND FREE ENERGY PREDICTED BY IDOCK:    0.41 KCAL/MOL
REMARK 927      BINDING AFFINITY PREDICTED BY RF-SCORE:    0.00 PKD
ROOT
HETATM    1  CA  UNL     1      -7.025   9.769  70.940  1.00  0.00     0.023 C  
HETATM    2  C   UNL     1      -6.678   9.025  69.594  1.00  0.00    -0.046 C  
HETATM    3  N   UNL     1      -6.004   9.381  71.977  1.00  0.00    -0.255 NA 
HETATM    4  OXT UNL     1      -7.680   8.725  68.881  1.00  0.00    -0.092 OA 
HETATM    5  H2  UNL     1      -6.099   9.913  72.842  1.00  0.00     0.000 HD 
HETATM    6  O   UNL     1      -5.449   8.811  69.404  1.00  0.00    -0.034 OA 
HETATM    7  H1  UNL     1      -6.070   8.374  72.124  1.00  0.00     0.000 HD 
ENDROOT
BRANCH   1   8
HETATM    8  C   UNL     1      -6.927  11.277  70.720  1.00  0.00     1.727 C  
BRANCH   8   9
HETATM    9  C   UNL     1      -5.872  11.703  69.694  1.00  0.00    -0.091 C  
BRANCH   9  10
HETATM   10  S   UNL     1      -6.631  12.796  68.410  1.00  0.00    -0.094 S  
HETATM   11  C   UNL     1      -5.457  12.351  67.096  1.00  0.00    -0.031 C  
BRANCH  10  12
HETATM   12  C   UNL     1      -7.969  11.634  67.907  1.00  0.00    -0.132 C  
BRANCH  12  13
HETATM   13  C   UNL     1      -9.347  12.204  68.268  1.00  0.00    -0.198 C  
HETATM   14  O   UNL     1      -9.399  13.618  67.993  1.00  0.00    -0.194 OA 
HETATM   15  C   UNL     1     -10.782  13.962  67.935  1.00  0.00    -0.240 C  
HETATM   16  C   UNL     1     -11.451  12.792  67.208  1.00  0.00    -0.337 C  
HETATM   17  H   UNL     1     -11.853  10.177  67.629  1.00  0.00     0.000 HD 
HETATM   18  O   UNL     1     -12.758  12.503  67.720  1.00  0.00     0.506 OA 
HETATM   19  C   UNL     1     -10.496  11.612  67.447  1.00  0.00    -0.210 C  
HETATM   20  O   UNL     1     -11.140  10.545  68.138  1.00  0.00    -0.253 OA 
HETATM   21  H   UNL     1     -13.173  11.778  67.269  1.00  0.00     0.000 HD 
BRANCH  15  22
HETATM   22  N   UNL     1     -10.930  15.264  67.320  1.00  0.00    -0.323 NA 
HETATM   23  C   UNL     1     -10.971  16.472  67.966  1.00  0.00    -0.320 A  
HETATM   24  C   UNL     1     -11.668  16.821  65.979  1.00  0.00     1.625 A  
HETATM   25  N   UNL     1     -11.423  17.435  67.186  1.00  0.00     0.654 NA 
HETATM   26  C   UNL     1     -12.209  17.287  64.768  1.00  0.00     4.127 A  
HETATM   27  N   UNL     1     -12.258  16.440  63.714  1.00  0.00    -0.365 NA 
HETATM   28  N   UNL     1     -12.722  18.566  64.604  1.00  0.00     9.992 NA 
HETATM   29  H2  UNL     1     -11.994  19.223  64.883  1.00  0.00     0.000 HD 
HETATM   30  C   UNL     1     -11.834  15.172  63.892  1.00  0.00     0.219 A  
HETATM   31  H1  UNL     1     -13.115  18.904  63.726  1.00  0.00     0.000 HD 
HETATM   32  N   UNL     1     -11.381  14.584  65.021  1.00  0.00    -0.359 NA 
HETATM   33  C   UNL     1     -11.310  15.482  66.022  1.00  0.00    -0.018 A  
ENDBRANCH  15  22
ENDBRANCH  12  13
ENDBRANCH  10  12
ENDBRANCH   9  10
ENDBRANCH   8   9
ENDBRANCH   1   8
TORSDOF 6
ENDMDL
MODEL      349
REMARK 921   NORMALIZED FREE ENERGY PREDICTED BY IDOCK:   14.06 KCAL/MOL
REMARK 922        TOTAL FREE ENERGY PREDICTED BY IDOCK:   17.57 KCAL/MOL
REMARK 923 INTER-LIGAND FREE ENERGY PREDICTED BY IDOCK:   16.91 KCAL/MOL
REMARK 924 INTRA-LIGAND FREE ENERGY PREDICTED BY IDOCK:    0.66 KCAL/MOL
REMARK 927      BINDING AFFINITY PREDICTED BY RF-SCORE:    0.00 PKD
ROOT
HETATM    1  CA  UNL     1      -6.854  10.759  71.013  1.00  0.00     1.290 C  
HETATM    2  C   UNL     1      -6.509  10.003  69.673  1.00  0.00    -0.057 C  
HETATM    3  N   UNL     1      -5.809  10.409  72.041  1.00  0.00    -0.147 NA 
HETATM    4  OXT UNL     1      -7.514   9.671  68.979  1.00  0.00    -0.071 OA 
HETATM    5  H2  UNL     1      -5.905  10.951  72.900  1.00  0.00     0.000 HD 
HETATM    6  O   UNL     1      -5.278   9.815  69.468  1.00  0.00    -0.035 OA 
HETATM    7  H1  UNL     1      -5.850   9.403  72.203  1.00  0.00     0.000 HD 
ENDROOT
BRANCH   1   8
HETATM    8  C   UNL     1      -6.793  12.265  70.771  1.00  0.00     2.260 C  
BRANCH   8   9
HETATM    9  C   UNL     1      -5.773  12.699  69.714  1.00  0.00    -0.112 C  
BRANCH   9  10
HETATM   10  S   UNL     1      -6.592  13.732  68.418  1.00  0.00    -0.111 S  
HETATM   11  C   UNL     1      -7.796  12.462  67.927  1.00  0.00    -0.145 C  
BRANCH  10  12
HETATM   12  C   UNL     1      -7.705  14.658  69.557  1.00  0.00    -0.004 C  
BRANCH  12  13
HETATM   13  C   UNL     1      -7.345  16.149  69.574  1.00  0.00    -0.112 C  
HETATM   14  O   UNL     1      -7.178  16.646  68.231  1.00  0.00    -0.159 OA 
HETATM   15  C   UNL     1      -7.284  18.066  68.317  1.00  0.00    -0.248 C  
HETATM   16  C   UNL     1      -8.406  18.319  69.328  1.00  0.00     0.253 C  
HETATM   17  H   UNL     1      -8.855  17.871  71.930  1.00  0.00     0.000 HD 
HETATM   18  O   UNL     1      -8.158  19.472  70.144  1.00  0.00     0.591 OA 
HETATM   19  C   UNL     1      -8.433  17.041  70.179  1.00  0.00     2.333 C  
HETATM   20  O   UNL     1      -8.180  17.318  71.554  1.00  0.00     8.323 OA 
HETATM   21  H   UNL     1      -8.853  19.629  70.771  1.00  0.00     0.000 HD 
BRANCH  15  22
HETATM   22  N   UNL     1      -7.483  18.615  66.991  1.00  0.00    -0.217 NA 
HETATM   23  C   UNL     1      -6.507  19.048  66.133  1.00  0.00    -0.207 A  
HETATM   24  C   UNL     1      -8.358  19.797  65.377  1.00  0.00     0.590 A  
HETATM   25  N   UNL     1      -7.001  19.775  65.149  1.00  0.00    -0.375 NA 
HETATM   26  C   UNL     1      -9.421  20.444  64.724  1.00  0.00     2.102 A  
HETATM   27  N   UNL     1     -10.682  20.207  65.153  1.00  0.00     0.030 NA 
HETATM   28  N   UNL     1      -9.243  21.337  63.677  1.00  0.00     2.100 NA 
HETATM   29  H2  UNL     1      -8.694  20.860  62.962  1.00  0.00     0.000 HD 
HETATM   30  C   UNL     1     -10.854  19.402  66.222  1.00  0.00    -0.315 A  
HETATM   31  H1  UNL     1     -10.014  21.807  63.204  1.00  0.00     0.000 HD 
HETATM   32  N   UNL     1      -9.916  18.798  66.984  1.00  0.00    -0.324 NA 
HETATM   33  C   UNL     1      -8.686  19.030  66.485  1.00  0.00    -0.322 A  
ENDBRANCH  15  22
ENDBRANCH  12  13
ENDBRANCH  10  12
ENDBRANCH   9  10
ENDBRANCH   8   9
ENDBRANCH   1   8
TORSDOF 6
ENDMDL
MODEL      350
REMARK 921   NORMALIZED FREE ENERGY PREDICTED BY IDOCK:   16.85 KCAL/MOL
REMARK 922        TOTAL FREE ENERGY PREDICTED BY IDOCK:   21.34 KCAL/MOL
REMARK 923 INTER-LIGAND FREE ENERGY PREDICTED BY IDOCK:   18.52 KCAL/MOL
REMARK 924 INTRA-LIGAND FREE ENERGY PREDICTED BY IDOCK:    2.83 KCAL/MOL
REMARK 927      BINDING AFFINITY PREDICTED BY RF-SCORE:    0.00 PKD
ROOT
HETATM    1  CA  UNL     1      -6.859  10.759  71.018  1.00  0.00     1.290 C  
HETATM    2  C   UNL     1      -6.493  10.007  69.683  1.00  0.00    -0.057 C  
HETATM    3  N   UNL     1      -5.810  10.436  72.051  1.00  0.00    -0.147 NA 
HETATM    4  OXT UNL     1      -7.488   9.649  68.987  1.00  0.00    -0.071 OA 
HETATM    5  H2  UNL     1      -5.921  10.979  72.908  1.00  0.00     0.000 HD 
HETATM    6  O   UNL     1      -5.257   9.845  69.482  1.00  0.00    -0.035 OA 
HETATM    7  H1  UNL     1      -5.829   9.430  72.217  1.00  0.00     0.000 HD 
ENDROOT
BRANCH   1   8
HETATM    8  C   UNL     1      -6.832  12.266  70.771  1.00  0.00     2.260 C  
BRANCH   8   9
HETATM    9  C   UNL     1      -5.820  12.718  69.714  1.00  0.00    -0.123 C  
BRANCH   9  10
HETATM   10  S   UNL     1      -6.666  13.699  68.394  1.00  0.00    -0.115 S  
HETATM   11  C   UNL     1      -7.816  12.376  67.913  1.00  0.00    -0.145 C  
BRANCH  10  12
HETATM   12  C   UNL     1      -7.825  14.598  69.510  1.00  0.00     0.028 C  
BRANCH  12  13
HETATM   13  C   UNL     1      -9.270  14.140  69.274  1.00  0.00     0.345 C  
HETATM   14  O   UNL     1      -9.345  12.701  69.228  1.00  0.00     0.540 OA 
HETATM   15  C   UNL     1     -10.714  12.367  69.445  1.00  0.00     0.165 C  
HETATM   16  C   UNL     1     -11.194  13.344  70.524  1.00  0.00     0.816 C  
HETATM   17  H   UNL     1     -11.530  15.988  70.781  1.00  0.00     0.000 HD 
HETATM   18  O   UNL     1     -12.552  13.756  70.325  1.00  0.00    -0.301 OA 
HETATM   19  C   UNL     1     -10.234  14.537  70.395  1.00  0.00     0.815 C  
HETATM   20  O   UNL     1     -10.932  15.742  70.086  1.00  0.00    -0.294 OA 
HETATM   21  H   UNL     1     -12.850  14.361  70.993  1.00  0.00     0.000 HD 
BRANCH  15  22
HETATM   22  N   UNL     1     -10.822  10.959  69.766  1.00  0.00    -0.226 NA 
HETATM   23  C   UNL     1     -10.981   9.930  68.877  1.00  0.00    -0.179 A  
HETATM   24  C   UNL     1     -11.430   9.139  70.808  1.00  0.00    -0.282 A  
HETATM   25  N   UNL     1     -11.359   8.815  69.473  1.00  0.00     0.132 NA 
HETATM   26  C   UNL     1     -11.827   8.411  71.943  1.00  0.00    -0.336 A  
HETATM   27  N   UNL     1     -11.715   8.997  73.158  1.00  0.00     1.036 NA 
HETATM   28  N   UNL     1     -12.353   7.129  71.881  1.00  0.00    -0.377 NA 
HETATM   29  H2  UNL     1     -11.686   6.552  71.369  1.00  0.00     0.000 HD 
HETATM   30  C   UNL     1     -11.280  10.273  73.216  1.00  0.00     8.462 A  
HETATM   31  H1  UNL     1     -12.641   6.601  72.705  1.00  0.00     0.000 HD 
HETATM   32  N   UNL     1     -10.957  11.101  72.199  1.00  0.00     5.197 NA 
HETATM   33  C   UNL     1     -11.041  10.453  71.020  1.00  0.00     0.120 A  
ENDBRANCH  15  22
ENDBRANCH  12  13
ENDBRANCH  10  12
ENDBRANCH   9  10
ENDBRANCH   8   9
ENDBRANCH   1   8
TORSDOF 6
ENDMDL
