MODEL        1
REMARK 921   NORMALIZED FREE ENERGY PREDICTED BY IDOCK:   -7.03 KCAL/MOL
REMARK 922        TOTAL FREE ENERGY PREDICTED BY IDOCK:   -8.33 KCAL/MOL
REMARK 923 INTER-LIGAND FREE ENERGY PREDICTED BY IDOCK:   -7.85 KCAL/MOL
REMARK 924 INTRA-LIGAND FREE ENERGY PREDICTED BY IDOCK:   -0.47 KCAL/MOL
REMARK 927      BINDING AFFINITY PREDICTED BY RF-SCORE:    0.00 PKD
ROOT
ATOM      1  N6    A A   1      -9.972  19.311  69.078  1.00  0.00    -0.505 NA 
ATOM      2  C6    A A   1      -9.695  18.378  68.089  1.00  0.00    -0.331 A  
ATOM      3  H61   A A   1      -9.517  20.223  69.126  1.00  0.00     0.000 HD 
ATOM      4  H62   A A   1      -9.830  18.852  69.978  1.00  0.00     0.000 HD 
ATOM      5  C5    A A   1     -10.323  17.120  68.023  1.00  0.00    -0.353 A  
ATOM      6  N7    A A   1     -11.263  16.514  68.827  1.00  0.00    -0.315 NA 
ATOM      7  C8    A A   1     -11.453  15.332  68.280  1.00  0.00    -0.347 A  
ATOM      8  N9    A A   1     -10.679  15.149  67.155  1.00  0.00    -0.303 NA 
ATOM      9  N1    A A   1      -8.762  18.677  67.162  1.00  0.00    -0.269 NA 
ATOM     10  C4    A A   1      -9.938  16.282  66.983  1.00  0.00    -0.255 A  
ATOM     11  C2    A A   1      -8.482  17.765  66.207  1.00  0.00    -0.190 A  
ATOM     12  N3    A A   1      -9.013  16.535  66.045  1.00  0.00    -0.462 NA 
ENDROOT
BRANCH   8  13
ATOM     13  C1*   A A   1     -10.680  13.924  66.400  1.00  0.00    -0.281 C  
ATOM     14  O4*   A A   1     -10.537  14.281  65.006  1.00  0.00    -0.375 OA 
ATOM     15  C4*   A A   1     -11.853  14.265  64.400  1.00  0.00    -0.426 C  
ATOM     16  H2*   A A   1     -12.169  10.987  66.278  1.00  0.00     0.000 HD 
ATOM     17  C3*   A A   1     -12.742  13.358  65.252  1.00  0.00    -0.422 C  
ATOM     18  C2*   A A   1     -11.868  12.954  66.444  1.00  0.00    -0.415 C  
ATOM     19  H3*   A A   1     -13.696  11.654  65.017  1.00  0.00     0.000 HD 
ATOM     20  O3*   A A   1     -13.143  12.217  64.488  1.00  0.00    -0.791 OA 
ATOM     21  O2*   A A   1     -11.434  11.588  66.249  1.00  0.00    -0.342 OA 
BRANCH  15  22
ATOM     22  C5*   A A   1     -12.408  15.696  64.326  1.00  0.00     0.087 C  
ATOM     23  O5*   A A   1     -11.384  16.608  63.942  1.00  0.00    -1.558 OA 
ATOM     24  H5*   A A   1     -11.727  17.492  63.897  1.00  0.00     0.000 HD 
ENDBRANCH  15  22
ENDBRANCH   8  13
TORSDOF 2
ENDMDL
MODEL        2
REMARK 921   NORMALIZED FREE ENERGY PREDICTED BY IDOCK:   -6.57 KCAL/MOL
REMARK 922        TOTAL FREE ENERGY PREDICTED BY IDOCK:   -7.81 KCAL/MOL
REMARK 923 INTER-LIGAND FREE ENERGY PREDICTED BY IDOCK:   -7.55 KCAL/MOL
REMARK 924 INTRA-LIGAND FREE ENERGY PREDICTED BY IDOCK:   -0.26 KCAL/MOL
REMARK 927      BINDING AFFINITY PREDICTED BY RF-SCORE:    0.00 PKD
ROOT
ATOM      1  N6    A A   1     -11.646  16.578  63.894  1.00  0.00    -1.578 NA 
ATOM      2  C6    A A   1     -10.981  15.671  64.707  1.00  0.00    -0.400 A  
ATOM      3  H61   A A   1     -11.351  17.549  63.785  1.00  0.00     0.000 HD 
ATOM      4  H62   A A   1     -12.624  16.588  64.185  1.00  0.00     0.000 HD 
ATOM      5  C5    A A   1     -11.388  14.332  64.857  1.00  0.00    -0.372 A  
ATOM      6  N7    A A   1     -12.443  13.623  64.325  1.00  0.00    -0.655 NA 
ATOM      7  C8    A A   1     -12.324  12.419  64.843  1.00  0.00    -0.402 A  
ATOM      8  N9    A A   1     -11.237  12.318  65.683  1.00  0.00    -0.320 NA 
ATOM      9  N1    A A   1      -9.910  16.097  65.407  1.00  0.00    -0.472 NA 
ATOM     10  C4    A A   1     -10.633  13.542  65.714  1.00  0.00    -0.283 A  
ATOM     11  C2    A A   1      -9.270  15.220  66.208  1.00  0.00    -0.315 A  
ATOM     12  N3    A A   1      -9.567  13.924  66.433  1.00  0.00    -0.286 NA 
ENDROOT
BRANCH   8  13
ATOM     13  C1*   A A   1     -10.915  11.113  66.400  1.00  0.00    -0.186 C  
ATOM     14  O4*   A A   1     -11.890  10.969  67.457  1.00  0.00    -0.571 OA 
ATOM     15  C4*   A A   1     -11.300  11.461  68.685  1.00  0.00    -0.265 C  
ATOM     16  H2*   A A   1      -8.325   9.414  67.528  1.00  0.00     0.000 HD 
ATOM     17  C3*   A A   1      -9.780  11.386  68.528  1.00  0.00    -0.197 C  
ATOM     18  C2*   A A   1      -9.553  10.925  67.084  1.00  0.00    -0.165 C  
ATOM     19  H3*   A A   1      -8.297  10.403  69.368  1.00  0.00     0.000 HD 
ATOM     20  O3*   A A   1      -9.241  10.450  69.465  1.00  0.00    -0.194 OA 
ATOM     21  O2*   A A   1      -9.168   9.531  67.105  1.00  0.00    -0.132 OA 
BRANCH  15  22
ATOM     22  C5*   A A   1     -11.771  12.899  68.949  1.00  0.00    -0.327 C  
ATOM     23  O5*   A A   1     -10.673  13.718  69.338  1.00  0.00    -0.428 OA 
ATOM     24  H5*   A A   1     -10.964  14.607  69.501  1.00  0.00     0.000 HD 
ENDBRANCH  15  22
ENDBRANCH   8  13
TORSDOF 2
ENDMDL
MODEL        3
REMARK 921   NORMALIZED FREE ENERGY PREDICTED BY IDOCK:   -6.51 KCAL/MOL
REMARK 922        TOTAL FREE ENERGY PREDICTED BY IDOCK:   -7.75 KCAL/MOL
REMARK 923 INTER-LIGAND FREE ENERGY PREDICTED BY IDOCK:   -7.38 KCAL/MOL
REMARK 924 INTRA-LIGAND FREE ENERGY PREDICTED BY IDOCK:   -0.37 KCAL/MOL
REMARK 927      BINDING AFFINITY PREDICTED BY RF-SCORE:    0.00 PKD
ROOT
ATOM      1  N6    A A   1     -13.035  11.603  62.851  1.00  0.00    -0.792 NA 
ATOM      2  C6    A A   1     -11.957  12.020  63.620  1.00  0.00    -0.515 A  
ATOM      3  H61   A A   1     -13.161  10.638  62.545  1.00  0.00     0.000 HD 
ATOM      4  H62   A A   1     -13.062  12.194  62.019  1.00  0.00     0.000 HD 
ATOM      5  C5    A A   1     -11.784  13.351  64.042  1.00  0.00    -0.416 A  
ATOM      6  N7    A A   1     -12.528  14.491  63.830  1.00  0.00    -0.806 NA 
ATOM      7  C8    A A   1     -11.862  15.439  64.454  1.00  0.00    -0.256 A  
ATOM      8  N9    A A   1     -10.722  14.962  65.063  1.00  0.00    -0.409 NA 
ATOM      9  N1    A A   1     -11.015  11.114  63.955  1.00  0.00    -0.307 NA 
ATOM     10  C4    A A   1     -10.650  13.625  64.797  1.00  0.00    -0.422 A  
ATOM     11  C2    A A   1      -9.960  11.520  64.691  1.00  0.00    -0.261 A  
ATOM     12  N3    A A   1      -9.688  12.759  65.149  1.00  0.00    -0.057 NA 
ENDROOT
BRANCH   8  13
ATOM     13  C1*   A A   1      -9.806  15.811  65.777  1.00  0.00    -0.348 C  
ATOM     14  O4*   A A   1      -9.569  15.197  67.064  1.00  0.00    -0.217 OA 
ATOM     15  C4*   A A   1     -10.415  15.852  68.040  1.00  0.00    -0.274 C  
ATOM     16  H2*   A A   1      -9.160  18.995  66.330  1.00  0.00     0.000 HD 
ATOM     17  C3*   A A   1     -10.761  17.238  67.493  1.00  0.00    -0.278 C  
ATOM     18  C2*   A A   1     -10.145  17.275  66.090  1.00  0.00    -0.302 C  
ATOM     19  H3*   A A   1     -10.414  19.108  67.996  1.00  0.00     0.000 HD 
ATOM     20  O3*   A A   1     -10.199  18.247  68.336  1.00  0.00    -0.366 OA 
ATOM     21  O2*   A A   1      -8.950  18.088  66.137  1.00  0.00    -0.469 OA 
BRANCH  15  22
ATOM     22  C5*   A A   1     -11.675  15.009  68.285  1.00  0.00    -0.314 C  
ATOM     23  O5*   A A   1     -12.583  15.706  69.133  1.00  0.00    -0.573 OA 
ATOM     24  H5*   A A   1     -13.362  15.185  69.284  1.00  0.00     0.000 HD 
ENDBRANCH  15  22
ENDBRANCH   8  13
TORSDOF 2
ENDMDL
MODEL        4
REMARK 921   NORMALIZED FREE ENERGY PREDICTED BY IDOCK:   -6.49 KCAL/MOL
REMARK 922        TOTAL FREE ENERGY PREDICTED BY IDOCK:   -7.72 KCAL/MOL
REMARK 923 INTER-LIGAND FREE ENERGY PREDICTED BY IDOCK:   -7.42 KCAL/MOL
REMARK 924 INTRA-LIGAND FREE ENERGY PREDICTED BY IDOCK:   -0.31 KCAL/MOL
REMARK 927      BINDING AFFINITY PREDICTED BY RF-SCORE:    0.00 PKD
ROOT
ATOM      1  N6    A A   1     -11.639  16.223  63.831  1.00  0.00    -1.573 NA 
ATOM      2  C6    A A   1     -11.827  15.028  64.510  1.00  0.00    -0.371 A  
ATOM      3  H61   A A   1     -11.993  16.390  62.889  1.00  0.00     0.000 HD 
ATOM      4  H62   A A   1     -10.636  16.412  63.818  1.00  0.00     0.000 HD 
ATOM      5  C5    A A   1     -11.339  14.798  65.810  1.00  0.00    -0.336 A  
ATOM      6  N7    A A   1     -10.609  15.585  66.674  1.00  0.00    -0.304 NA 
ATOM      7  C8    A A   1     -10.430  14.829  67.737  1.00  0.00    -0.254 A  
ATOM      8  N9    A A   1     -11.016  13.589  67.599  1.00  0.00    -0.259 NA 
ATOM      9  N1    A A   1     -12.484  14.028  63.887  1.00  0.00    -0.756 NA 
ATOM     10  C4    A A   1     -11.592  13.549  66.362  1.00  0.00    -0.350 A  
ATOM     11  C2    A A   1     -12.656  12.860  64.541  1.00  0.00    -0.350 A  
ATOM     12  N3    A A   1     -12.235  12.526  65.779  1.00  0.00    -0.626 NA 
ENDROOT
BRANCH   8  13
ATOM     13  C1*   A A   1     -10.929  12.569  68.609  1.00  0.00    -0.255 C  
ATOM     14  O4*   A A   1      -9.543  12.167  68.694  1.00  0.00    -0.165 OA 
ATOM     15  C4*   A A   1      -9.377  10.952  67.924  1.00  0.00    -0.156 C  
ATOM     16  H2*   A A   1     -12.548   9.928  69.733  1.00  0.00     0.000 HD 
ATOM     17  C3*   A A   1     -10.747  10.279  67.826  1.00  0.00    -0.275 C  
ATOM     18  C2*   A A   1     -11.718  11.258  68.495  1.00  0.00    -0.308 C  
ATOM     19  H3*   A A   1     -11.571   8.603  68.446  1.00  0.00     0.000 HD 
ATOM     20  O3*   A A   1     -10.720   9.022  68.507  1.00  0.00    -0.186 OA 
ATOM     21  O2*   A A   1     -12.059  10.739  69.803  1.00  0.00    -0.312 OA 
BRANCH  15  22
ATOM     22  C5*   A A   1      -8.811  11.288  66.536  1.00  0.00    -0.179 C  
ATOM     23  O5*   A A   1      -8.169  12.559  66.556  1.00  0.00    -0.404 OA 
ATOM     24  H5*   A A   1      -7.819  12.768  65.698  1.00  0.00     0.000 HD 
ENDBRANCH  15  22
ENDBRANCH   8  13
TORSDOF 2
ENDMDL
MODEL        5
REMARK 921   NORMALIZED FREE ENERGY PREDICTED BY IDOCK:   -6.40 KCAL/MOL
REMARK 922        TOTAL FREE ENERGY PREDICTED BY IDOCK:   -7.62 KCAL/MOL
REMARK 923 INTER-LIGAND FREE ENERGY PREDICTED BY IDOCK:   -6.99 KCAL/MOL
REMARK 924 INTRA-LIGAND FREE ENERGY PREDICTED BY IDOCK:   -0.63 KCAL/MOL
REMARK 927      BINDING AFFINITY PREDICTED BY RF-SCORE:    0.00 PKD
ROOT
ATOM      1  N6    A A   1     -11.654  16.457  63.756  1.00  0.00    -1.515 NA 
ATOM      2  C6    A A   1     -11.043  16.078  64.943  1.00  0.00    -0.370 A  
ATOM      3  H61   A A   1     -11.397  17.301  63.243  1.00  0.00     0.000 HD 
ATOM      4  H62   A A   1     -12.658  16.501  63.931  1.00  0.00     0.000 HD 
ATOM      5  C5    A A   1     -11.398  14.915  65.652  1.00  0.00    -0.325 A  
ATOM      6  N7    A A   1     -12.347  13.944  65.416  1.00  0.00    -0.443 NA 
ATOM      7  C8    A A   1     -12.229  13.115  66.432  1.00  0.00    -0.329 A  
ATOM      8  N9    A A   1     -11.244  13.506  67.312  1.00  0.00    -0.289 NA 
ATOM      9  N1    A A   1     -10.084  16.874  65.459  1.00  0.00    -0.598 NA 
ATOM     10  C4    A A   1     -10.710  14.667  66.832  1.00  0.00    -0.294 A  
ATOM     11  C2    A A   1      -9.499  16.513  66.620  1.00  0.00    -0.258 A  
ATOM     12  N3    A A   1      -9.755  15.431  67.384  1.00  0.00    -0.214 NA 
ENDROOT
BRANCH   8  13
ATOM     13  C1*   A A   1     -10.948  12.785  68.521  1.00  0.00    -0.258 C  
ATOM     14  O4*   A A   1      -9.598  12.281  68.399  1.00  0.00    -0.213 OA 
ATOM     15  C4*   A A   1      -9.670  10.895  67.985  1.00  0.00    -0.165 C  
ATOM     16  H2*   A A   1     -12.335  10.712  70.675  1.00  0.00     0.000 HD 
ATOM     17  C3*   A A   1     -11.045  10.363  68.392  1.00  0.00    -0.268 C  
ATOM     18  C2*   A A   1     -11.787  11.577  68.961  1.00  0.00    -0.343 C  
ATOM     19  H3*   A A   1     -11.750   9.003  69.626  1.00  0.00     0.000 HD 
ATOM     20  O3*   A A   1     -10.896   9.334  69.373  1.00  0.00    -0.223 OA 
ATOM     21  O2*   A A   1     -11.815  11.459  70.403  1.00  0.00    -0.336 OA 
BRANCH  15  22
ATOM     22  C5*   A A   1      -9.449  10.793  66.468  1.00  0.00    -0.169 C  
ATOM     23  O5*   A A   1      -8.764  11.946  65.988  1.00  0.00    -0.383 OA 
ATOM     24  H5*   A A   1      -8.628  11.884  65.050  1.00  0.00     0.000 HD 
ENDBRANCH  15  22
ENDBRANCH   8  13
TORSDOF 2
ENDMDL
MODEL        6
REMARK 921   NORMALIZED FREE ENERGY PREDICTED BY IDOCK:   -6.36 KCAL/MOL
REMARK 922        TOTAL FREE ENERGY PREDICTED BY IDOCK:   -7.58 KCAL/MOL
REMARK 923 INTER-LIGAND FREE ENERGY PREDICTED BY IDOCK:   -6.98 KCAL/MOL
REMARK 924 INTRA-LIGAND FREE ENERGY PREDICTED BY IDOCK:   -0.60 KCAL/MOL
REMARK 927      BINDING AFFINITY PREDICTED BY RF-SCORE:    0.00 PKD
ROOT
ATOM      1  N6    A A   1     -10.919   9.123  69.465  1.00  0.00    -0.386 NA 
ATOM      2  C6    A A   1     -10.649   9.541  68.170  1.00  0.00    -0.217 A  
ATOM      3  H61   A A   1     -10.577   8.242  69.849  1.00  0.00     0.000 HD 
ATOM      4  H62   A A   1     -11.933   9.133  69.583  1.00  0.00     0.000 HD 
ATOM      5  C5    A A   1     -11.122  10.756  67.641  1.00  0.00    -0.319 A  
ATOM      6  N7    A A   1     -11.907  11.753  68.177  1.00  0.00    -0.519 NA 
ATOM      7  C8    A A   1     -12.034  12.631  67.205  1.00  0.00    -0.253 A  
ATOM      8  N9    A A   1     -11.362  12.248  66.065  1.00  0.00    -0.334 NA 
ATOM      9  N1    A A   1      -9.921   8.734  67.369  1.00  0.00    -0.190 NA 
ATOM     10  C4    A A   1     -10.782  11.040  66.324  1.00  0.00    -0.212 A  
ATOM     11  C2    A A   1      -9.669   9.133  66.106  1.00  0.00    -0.287 A  
ATOM     12  N3    A A   1     -10.068  10.267  65.492  1.00  0.00    -0.293 NA 
ENDROOT
BRANCH   8  13
ATOM     13  C1*   A A   1     -11.379  13.022  64.853  1.00  0.00    -0.303 C  
ATOM     14  O4*   A A   1     -10.036  13.514  64.640  1.00  0.00    -0.344 OA 
ATOM     15  C4*   A A   1      -9.976  14.881  65.118  1.00  0.00    -0.242 C  
ATOM     16  H2*   A A   1     -13.245  15.195  63.224  1.00  0.00     0.000 HD 
ATOM     17  C3*   A A   1     -11.401  15.436  65.106  1.00  0.00    -0.281 C  
ATOM     18  C2*   A A   1     -12.285  14.252  64.698  1.00  0.00    -0.454 C  
ATOM     19  H3*   A A   1     -12.382  16.853  64.157  1.00  0.00     0.000 HD 
ATOM     20  O3*   A A   1     -11.496  16.508  64.164  1.00  0.00    -1.059 OA 
ATOM     21  O2*   A A   1     -12.684  14.434  63.320  1.00  0.00    -0.587 OA 
BRANCH  15  22
ATOM     22  C5*   A A   1      -9.367  14.912  66.528  1.00  0.00    -0.282 C  
ATOM     23  O5*   A A   1      -8.531  13.778  66.733  1.00  0.00    -0.419 OA 
ATOM     24  H5*   A A   1      -8.155  13.797  67.605  1.00  0.00     0.000 HD 
ENDBRANCH  15  22
ENDBRANCH   8  13
TORSDOF 2
ENDMDL
MODEL        7
REMARK 921   NORMALIZED FREE ENERGY PREDICTED BY IDOCK:   -6.24 KCAL/MOL
REMARK 922        TOTAL FREE ENERGY PREDICTED BY IDOCK:   -7.44 KCAL/MOL
REMARK 923 INTER-LIGAND FREE ENERGY PREDICTED BY IDOCK:   -7.47 KCAL/MOL
REMARK 924 INTRA-LIGAND FREE ENERGY PREDICTED BY IDOCK:    0.03 KCAL/MOL
REMARK 927      BINDING AFFINITY PREDICTED BY RF-SCORE:    0.00 PKD
ROOT
ATOM      1  N6    A A   1     -11.856  16.331  71.120  1.00  0.00    -0.617 NA 
ATOM      2  C6    A A   1     -11.755  15.171  70.366  1.00  0.00    -0.293 A  
ATOM      3  H61   A A   1     -12.254  16.351  72.059  1.00  0.00     0.000 HD 
ATOM      4  H62   A A   1     -12.364  17.016  70.559  1.00  0.00     0.000 HD 
ATOM      5  C5    A A   1     -11.206  15.143  69.070  1.00  0.00    -0.273 A  
ATOM      6  N7    A A   1     -10.690  16.134  68.265  1.00  0.00    -0.292 NA 
ATOM      7  C8    A A   1     -10.348  15.513  67.156  1.00  0.00    -0.272 A  
ATOM      8  N9    A A   1     -10.616  14.163  67.210  1.00  0.00    -0.275 NA 
ATOM      9  N1    A A   1     -12.229  14.019  70.885  1.00  0.00    -0.351 NA 
ATOM     10  C4    A A   1     -11.180  13.911  68.428  1.00  0.00    -0.264 A  
ATOM     11  C2    A A   1     -12.143  12.893  70.147  1.00  0.00    -0.302 A  
ATOM     12  N3    A A   1     -11.644  12.745  68.903  1.00  0.00    -0.295 NA 
ENDROOT
BRANCH   8  13
ATOM     13  C1*   A A   1     -10.367  13.274  66.108  1.00  0.00    -0.290 C  
ATOM     14  O4*   A A   1     -10.245  14.088  64.920  1.00  0.00    -0.405 OA 
ATOM     15  C4*   A A   1     -11.514  14.059  64.222  1.00  0.00    -0.297 C  
ATOM     16  H2*   A A   1     -11.287  10.340  64.922  1.00  0.00     0.000 HD 
ATOM     17  C3*   A A   1     -12.250  12.790  64.656  1.00  0.00    -0.447 C  
ATOM     18  C2*   A A   1     -11.358  12.163  65.733  1.00  0.00    -0.354 C  
ATOM     19  H3*   A A   1     -12.866  11.127  63.804  1.00  0.00     0.000 HD 
ATOM     20  O3*   A A   1     -12.409  11.915  63.535  1.00  0.00    -0.540 OA 
ATOM     21  O2*   A A   1     -10.673  11.027  65.154  1.00  0.00    -0.263 OA 
BRANCH  15  22
ATOM     22  C5*   A A   1     -12.320  15.323  64.557  1.00  0.00    -0.133 C  
ATOM     23  O5*   A A   1     -11.744  16.462  63.924  1.00  0.00    -1.504 OA 
ATOM     24  H5*   A A   1     -12.242  17.244  64.132  1.00  0.00     0.000 HD 
ENDBRANCH  15  22
ENDBRANCH   8  13
TORSDOF 2
ENDMDL
MODEL        8
REMARK 921   NORMALIZED FREE ENERGY PREDICTED BY IDOCK:   -6.21 KCAL/MOL
REMARK 922        TOTAL FREE ENERGY PREDICTED BY IDOCK:   -7.41 KCAL/MOL
REMARK 923 INTER-LIGAND FREE ENERGY PREDICTED BY IDOCK:   -6.79 KCAL/MOL
REMARK 924 INTRA-LIGAND FREE ENERGY PREDICTED BY IDOCK:   -0.62 KCAL/MOL
REMARK 927      BINDING AFFINITY PREDICTED BY RF-SCORE:    0.00 PKD
ROOT
ATOM      1  N6    A A   1     -11.768  16.244  63.778  1.00  0.00    -1.488 NA 
ATOM      2  C6    A A   1     -11.039  15.760  64.856  1.00  0.00    -0.399 A  
ATOM      3  H61   A A   1     -11.589  17.151  63.347  1.00  0.00     0.000 HD 
ATOM      4  H62   A A   1     -12.753  16.220  64.041  1.00  0.00     0.000 HD 
ATOM      5  C5    A A   1     -11.286  14.508  65.450  1.00  0.00    -0.341 A  
ATOM      6  N7    A A   1     -12.216  13.527  65.183  1.00  0.00    -0.403 NA 
ATOM      7  C8    A A   1     -11.977  12.594  66.080  1.00  0.00    -0.417 A  
ATOM      8  N9    A A   1     -10.932  12.927  66.913  1.00  0.00    -0.261 NA 
ATOM      9  N1    A A   1     -10.067  16.536  65.378  1.00  0.00    -0.585 NA 
ATOM     10  C4    A A   1     -10.486  14.160  66.530  1.00  0.00    -0.280 A  
ATOM     11  C2    A A   1      -9.367  16.073  66.435  1.00  0.00    -0.298 A  
ATOM     12  N3    A A   1      -9.514  14.900  67.085  1.00  0.00    -0.218 NA 
ENDROOT
BRANCH   8  13
ATOM     13  C1*   A A   1     -10.502  12.088  67.999  1.00  0.00    -0.207 C  
ATOM     14  O4*   A A   1      -9.163  11.640  67.689  1.00  0.00    -0.170 OA 
ATOM     15  C4*   A A   1      -9.251  10.305  67.132  1.00  0.00    -0.145 C  
ATOM     16  H2*   A A   1     -11.627   9.753  70.035  1.00  0.00     0.000 HD 
ATOM     17  C3*   A A   1     -10.568   9.693  67.611  1.00  0.00    -0.275 C  
ATOM     18  C2*   A A   1     -11.270  10.815  68.382  1.00  0.00    -0.284 C  
ATOM     19  H3*   A A   1     -11.120   8.187  68.749  1.00  0.00     0.000 HD 
ATOM     20  O3*   A A   1     -10.302   8.567  68.452  1.00  0.00    -0.206 OA 
ATOM     21  O2*   A A   1     -11.150  10.541  69.797  1.00  0.00    -0.254 OA 
BRANCH  15  22
ATOM     22  C5*   A A   1      -9.183  10.377  65.599  1.00  0.00    -0.182 C  
ATOM     23  O5*   A A   1      -8.551  11.584  65.186  1.00  0.00    -0.375 OA 
ATOM     24  H5*   A A   1      -8.509  11.628  64.238  1.00  0.00     0.000 HD 
ENDBRANCH  15  22
ENDBRANCH   8  13
TORSDOF 2
ENDMDL
MODEL        9
REMARK 921   NORMALIZED FREE ENERGY PREDICTED BY IDOCK:   -6.17 KCAL/MOL
REMARK 922        TOTAL FREE ENERGY PREDICTED BY IDOCK:   -7.36 KCAL/MOL
REMARK 923 INTER-LIGAND FREE ENERGY PREDICTED BY IDOCK:   -7.45 KCAL/MOL
REMARK 924 INTRA-LIGAND FREE ENERGY PREDICTED BY IDOCK:    0.09 KCAL/MOL
REMARK 927      BINDING AFFINITY PREDICTED BY RF-SCORE:    0.00 PKD
ROOT
ATOM      1  N6    A A   1     -12.404  14.315  63.328  1.00  0.00    -1.092 NA 
ATOM      2  C6    A A   1     -12.086  14.334  64.678  1.00  0.00    -0.463 A  
ATOM      3  H61   A A   1     -13.017  13.615  62.910  1.00  0.00     0.000 HD 
ATOM      4  H62   A A   1     -11.525  14.299  62.808  1.00  0.00     0.000 HD 
ATOM      5  C5    A A   1     -11.239  15.300  65.254  1.00  0.00    -0.336 A  
ATOM      6  N7    A A   1     -10.550  16.363  64.713  1.00  0.00    -0.643 NA 
ATOM      7  C8    A A   1      -9.911  16.895  65.734  1.00  0.00    -0.184 A  
ATOM      8  N9    A A   1     -10.160  16.224  66.911  1.00  0.00    -0.271 NA 
ATOM      9  N1    A A   1     -12.589  13.367  65.474  1.00  0.00    -0.481 NA 
ATOM     10  C4    A A   1     -11.000  15.189  66.618  1.00  0.00    -0.318 A  
ATOM     11  C2    A A   1     -12.270  13.378  66.785  1.00  0.00    -0.312 A  
ATOM     12  N3    A A   1     -11.473  14.244  67.445  1.00  0.00    -0.328 NA 
ENDROOT
BRANCH   8  13
ATOM     13  C1*   A A   1      -9.548  16.589  68.161  1.00  0.00    -0.226 C  
ATOM     14  O4*   A A   1     -10.410  17.566  68.790  1.00  0.00    -0.353 OA 
ATOM     15  C4*   A A   1      -9.870  18.883  68.522  1.00  0.00    -0.399 C  
ATOM     16  H2*   A A   1      -6.597  17.226  69.483  1.00  0.00     0.000 HD 
ATOM     17  C3*   A A   1      -8.380  18.716  68.217  1.00  0.00    -0.324 C  
ATOM     18  C2*   A A   1      -8.142  17.202  68.218  1.00  0.00    -0.239 C  
ATOM     19  H3*   A A   1      -6.677  19.265  69.035  1.00  0.00     0.000 HD 
ATOM     20  O3*   A A   1      -7.603  19.368  69.225  1.00  0.00    -0.325 OA 
ATOM     21  O2*   A A   1      -7.468  16.847  69.448  1.00  0.00    -0.180 OA 
BRANCH  15  22
ATOM     22  C5*   A A   1     -10.621  19.524  67.346  1.00  0.00    -0.485 C  
ATOM     23  O5*   A A   1      -9.736  20.321  66.566  1.00  0.00    -0.495 OA 
ATOM     24  H5*   A A   1     -10.200  20.717  65.838  1.00  0.00     0.000 HD 
ENDBRANCH  15  22
ENDBRANCH   8  13
TORSDOF 2
ENDMDL
MODEL       10
REMARK 921   NORMALIZED FREE ENERGY PREDICTED BY IDOCK:   -6.14 KCAL/MOL
REMARK 922        TOTAL FREE ENERGY PREDICTED BY IDOCK:   -7.33 KCAL/MOL
REMARK 923 INTER-LIGAND FREE ENERGY PREDICTED BY IDOCK:   -6.93 KCAL/MOL
REMARK 924 INTRA-LIGAND FREE ENERGY PREDICTED BY IDOCK:   -0.41 KCAL/MOL
REMARK 927      BINDING AFFINITY PREDICTED BY RF-SCORE:    0.00 PKD
ROOT
ATOM      1  N6    A A   1     -10.327  17.723  69.156  1.00  0.00    -0.397 NA 
ATOM      2  C6    A A   1     -10.536  17.075  67.947  1.00  0.00    -0.365 A  
ATOM      3  H61   A A   1      -9.899  18.646  69.227  1.00  0.00     0.000 HD 
ATOM      4  H62   A A   1      -9.790  17.091  69.751  1.00  0.00     0.000 HD 
ATOM      5  C5    A A   1     -11.127  15.801  67.850  1.00  0.00    -0.326 A  
ATOM      6  N7    A A   1     -11.594  14.925  68.806  1.00  0.00    -0.308 NA 
ATOM      7  C8    A A   1     -12.016  13.884  68.120  1.00  0.00    -0.350 A  
ATOM      8  N9    A A   1     -11.845  14.049  66.763  1.00  0.00    -0.402 NA 
ATOM      9  N1    A A   1     -10.131  17.680  66.812  1.00  0.00    -0.320 NA 
ATOM     10  C4    A A   1     -11.262  15.270  66.574  1.00  0.00    -0.228 A  
ATOM     11  C2    A A   1     -10.321  17.046  65.636  1.00  0.00    -0.209 A  
ATOM     12  N3    A A   1     -10.869  15.832  65.421  1.00  0.00    -0.370 NA 
ENDROOT
BRANCH   8  13
ATOM     13  C1*   A A   1     -12.193  13.036  65.804  1.00  0.00    -0.453 C  
ATOM     14  O4*   A A   1     -11.667  11.782  66.296  1.00  0.00    -0.482 OA 
ATOM     15  C4*   A A   1     -10.414  11.521  65.618  1.00  0.00    -0.266 C  
ATOM     16  H2*   A A   1     -12.396  12.544  62.551  1.00  0.00     0.000 HD 
ATOM     17  C3*   A A   1     -10.429  12.307  64.305  1.00  0.00    -0.346 C  
ATOM     18  C2*   A A   1     -11.728  13.119  64.344  1.00  0.00    -0.380 C  
ATOM     19  H3*   A A   1     -10.420  11.889  62.383  1.00  0.00     0.000 HD 
ATOM     20  O3*   A A   1     -10.411  11.402  63.198  1.00  0.00    -0.344 OA 
ATOM     21  O2*   A A   1     -12.684  12.492  63.456  1.00  0.00    -0.722 OA 
BRANCH  15  22
ATOM     22  C5*   A A   1      -9.241  11.941  66.516  1.00  0.00    -0.214 C  
ATOM     23  O5*   A A   1      -8.852  13.281  66.232  1.00  0.00    -0.443 OA 
ATOM     24  H5*   A A   1      -8.126  13.541  66.787  1.00  0.00     0.000 HD 
ENDBRANCH  15  22
ENDBRANCH   8  13
TORSDOF 2
ENDMDL
MODEL       11
REMARK 921   NORMALIZED FREE ENERGY PREDICTED BY IDOCK:   -6.12 KCAL/MOL
REMARK 922        TOTAL FREE ENERGY PREDICTED BY IDOCK:   -7.31 KCAL/MOL
REMARK 923 INTER-LIGAND FREE ENERGY PREDICTED BY IDOCK:   -6.84 KCAL/MOL
REMARK 924 INTRA-LIGAND FREE ENERGY PREDICTED BY IDOCK:   -0.47 KCAL/MOL
REMARK 927      BINDING AFFINITY PREDICTED BY RF-SCORE:    0.00 PKD
ROOT
ATOM      1  N6    A A   1     -12.204  11.503  63.088  1.00  0.00    -0.932 NA 
ATOM      2  C6    A A   1     -11.883  12.680  63.750  1.00  0.00    -0.498 A  
ATOM      3  H61   A A   1     -12.915  11.451  62.357  1.00  0.00     0.000 HD 
ATOM      4  H62   A A   1     -12.446  10.811  63.798  1.00  0.00     0.000 HD 
ATOM      5  C5    A A   1     -10.903  12.751  64.758  1.00  0.00    -0.308 A  
ATOM      6  N7    A A   1     -10.092  11.794  65.325  1.00  0.00    -0.254 NA 
ATOM      7  C8    A A   1      -9.396  12.447  66.231  1.00  0.00    -0.189 A  
ATOM      8  N9    A A   1      -9.720  13.785  66.272  1.00  0.00    -0.293 NA 
ATOM      9  N1    A A   1     -12.559  13.804  63.433  1.00  0.00    -0.789 NA 
ATOM     10  C4    A A   1     -10.696  13.995  65.341  1.00  0.00    -0.337 A  
ATOM     11  C2    A A   1     -12.257  14.946  64.085  1.00  0.00    -0.255 A  
ATOM     12  N3    A A   1     -11.347  15.134  65.062  1.00  0.00    -0.384 NA 
ENDROOT
BRANCH   8  13
ATOM     13  C1*   A A   1      -9.123  14.704  67.205  1.00  0.00    -0.206 C  
ATOM     14  O4*   A A   1      -9.305  14.149  68.528  1.00  0.00    -0.202 OA 
ATOM     15  C4*   A A   1     -10.450  14.796  69.135  1.00  0.00    -0.239 C  
ATOM     16  H2*   A A   1      -8.810  17.934  67.779  1.00  0.00     0.000 HD 
ATOM     17  C3*   A A   1     -10.643  16.142  68.435  1.00  0.00    -0.286 C  
ATOM     18  C2*   A A   1      -9.598  16.159  67.314  1.00  0.00    -0.229 C  
ATOM     19  H3*   A A   1     -10.550  18.044  68.930  1.00  0.00     0.000 HD 
ATOM     20  O3*   A A   1     -10.429  17.207  69.365  1.00  0.00    -0.321 OA 
ATOM     21  O2*   A A   1      -8.516  17.033  67.712  1.00  0.00    -0.193 OA 
BRANCH  15  22
ATOM     22  C5*   A A   1     -11.689  13.900  68.992  1.00  0.00    -0.338 C  
ATOM     23  O5*   A A   1     -12.515  14.360  67.927  1.00  0.00    -0.586 OA 
ATOM     24  H5*   A A   1     -13.281  13.806  67.838  1.00  0.00     0.000 HD 
ENDBRANCH  15  22
ENDBRANCH   8  13
TORSDOF 2
ENDMDL
MODEL       12
REMARK 921   NORMALIZED FREE ENERGY PREDICTED BY IDOCK:   -6.12 KCAL/MOL
REMARK 922        TOTAL FREE ENERGY PREDICTED BY IDOCK:   -7.31 KCAL/MOL
REMARK 923 INTER-LIGAND FREE ENERGY PREDICTED BY IDOCK:   -6.70 KCAL/MOL
REMARK 924 INTRA-LIGAND FREE ENERGY PREDICTED BY IDOCK:   -0.61 KCAL/MOL
REMARK 927      BINDING AFFINITY PREDICTED BY RF-SCORE:    0.00 PKD
ROOT
ATOM      1  N6    A A   1     -12.013  11.464  67.691  1.00  0.00    -0.626 NA 
ATOM      2  C6    A A   1     -11.781  12.514  66.813  1.00  0.00    -0.384 A  
ATOM      3  H61   A A   1     -12.278  10.529  67.382  1.00  0.00     0.000 HD 
ATOM      4  H62   A A   1     -12.718  11.776  68.360  1.00  0.00     0.000 HD 
ATOM      5  C5    A A   1     -11.415  13.805  67.239  1.00  0.00    -0.341 A  
ATOM      6  N7    A A   1     -11.221  14.342  68.493  1.00  0.00    -0.253 NA 
ATOM      7  C8    A A   1     -10.911  15.601  68.266  1.00  0.00    -0.315 A  
ATOM      8  N9    A A   1     -10.892  15.900  66.922  1.00  0.00    -0.286 NA 
ATOM      9  N1    A A   1     -11.940  12.297  65.491  1.00  0.00    -0.507 NA 
ATOM     10  C4    A A   1     -11.227  14.760  66.249  1.00  0.00    -0.343 A  
ATOM     11  C2    A A   1     -11.728  13.321  64.637  1.00  0.00    -0.364 A  
ATOM     12  N3    A A   1     -11.379  14.591  64.927  1.00  0.00    -0.375 NA 
ENDROOT
BRANCH   8  13
ATOM     13  C1*   A A   1     -10.617  17.220  66.420  1.00  0.00    -0.179 C  
ATOM     14  O4*   A A   1      -9.367  17.151  65.696  1.00  0.00    -0.515 OA 
ATOM     15  C4*   A A   1      -8.314  17.625  66.570  1.00  0.00    -0.268 C  
ATOM     16  H2*   A A   1     -10.802  20.389  67.304  1.00  0.00     0.000 HD 
ATOM     17  C3*   A A   1      -8.961  18.517  67.630  1.00  0.00    -0.271 C  
ATOM     18  C2*   A A   1     -10.467  18.422  67.363  1.00  0.00    -0.415 C  
ATOM     19  H3*   A A   1      -8.891  20.414  68.146  1.00  0.00     0.000 HD 
ATOM     20  O3*   A A   1      -8.489  19.860  67.487  1.00  0.00    -0.310 OA 
ATOM     21  O2*   A A   1     -10.895  19.645  66.720  1.00  0.00    -0.474 OA 
BRANCH  15  22
ATOM     22  C5*   A A   1      -7.586  16.429  67.203  1.00  0.00    -0.189 C  
ATOM     23  O5*   A A   1      -7.840  15.242  66.458  1.00  0.00    -0.279 OA 
ATOM     24  H5*   A A   1      -7.390  14.502  66.850  1.00  0.00     0.000 HD 
ENDBRANCH  15  22
ENDBRANCH   8  13
TORSDOF 2
ENDMDL
MODEL       13
REMARK 921   NORMALIZED FREE ENERGY PREDICTED BY IDOCK:   -6.05 KCAL/MOL
REMARK 922        TOTAL FREE ENERGY PREDICTED BY IDOCK:   -7.23 KCAL/MOL
REMARK 923 INTER-LIGAND FREE ENERGY PREDICTED BY IDOCK:   -6.75 KCAL/MOL
REMARK 924 INTRA-LIGAND FREE ENERGY PREDICTED BY IDOCK:   -0.48 KCAL/MOL
REMARK 927      BINDING AFFINITY PREDICTED BY RF-SCORE:    0.00 PKD
ROOT
ATOM      1  N6    A A   1     -11.628  16.150  63.906  1.00  0.00    -1.469 NA 
ATOM      2  C6    A A   1     -11.674  14.779  64.113  1.00  0.00    -0.147 A  
ATOM      3  H61   A A   1     -12.197  16.627  63.206  1.00  0.00     0.000 HD 
ATOM      4  H62   A A   1     -10.654  16.399  63.730  1.00  0.00     0.000 HD 
ATOM      5  C5    A A   1     -10.890  14.121  65.079  1.00  0.00    -0.398 A  
ATOM      6  N7    A A   1      -9.952  14.582  65.977  1.00  0.00    -0.307 NA 
ATOM      7  C8    A A   1      -9.538  13.503  66.605  1.00  0.00    -0.278 A  
ATOM      8  N9    A A   1     -10.170  12.364  66.156  1.00  0.00    -0.237 NA 
ATOM      9  N1    A A   1     -12.487  14.035  63.335  1.00  0.00    -0.758 NA 
ATOM     10  C4    A A   1     -11.031  12.742  65.167  1.00  0.00    -0.293 A  
ATOM     11  C2    A A   1     -12.523  12.700  63.526  1.00  0.00    -0.418 A  
ATOM     12  N3    A A   1     -11.821  11.963  64.412  1.00  0.00    -0.289 NA 
ENDROOT
BRANCH   8  13
ATOM     13  C1*   A A   1      -9.864  11.052  66.661  1.00  0.00    -0.200 C  
ATOM     14  O4*   A A   1     -11.084  10.513  67.219  1.00  0.00    -0.292 OA 
ATOM     15  C4*   A A   1     -11.049  10.709  68.653  1.00  0.00    -0.263 C  
ATOM     16  H2*   A A   1      -7.506   9.412  68.277  1.00  0.00     0.000 HD 
ATOM     17  C3*   A A   1      -9.583  10.852  69.063  1.00  0.00    -0.156 C  
ATOM     18  C2*   A A   1      -8.800  10.838  67.746  1.00  0.00    -0.130 C  
ATOM     19  H3*   A A   1      -8.295   9.849  70.162  1.00  0.00     0.000 HD 
ATOM     20  O3*   A A   1      -9.206   9.760  69.907  1.00  0.00    -0.212 OA 
ATOM     21  O2*   A A   1      -8.166   9.545  67.606  1.00  0.00    -0.119 OA 
BRANCH  15  22
ATOM     22  C5*   A A   1     -11.866  11.955  69.028  1.00  0.00    -0.308 C  
ATOM     23  O5*   A A   1     -11.165  12.738  69.989  1.00  0.00    -0.482 OA 
ATOM     24  H5*   A A   1     -11.670  13.508  70.220  1.00  0.00     0.000 HD 
ENDBRANCH  15  22
ENDBRANCH   8  13
TORSDOF 2
ENDMDL
MODEL       14
REMARK 921   NORMALIZED FREE ENERGY PREDICTED BY IDOCK:   -6.04 KCAL/MOL
REMARK 922        TOTAL FREE ENERGY PREDICTED BY IDOCK:   -7.22 KCAL/MOL
REMARK 923 INTER-LIGAND FREE ENERGY PREDICTED BY IDOCK:   -6.76 KCAL/MOL
REMARK 924 INTRA-LIGAND FREE ENERGY PREDICTED BY IDOCK:   -0.46 KCAL/MOL
REMARK 927      BINDING AFFINITY PREDICTED BY RF-SCORE:    0.00 PKD
ROOT
ATOM      1  N6    A A   1      -9.105   9.878  70.193  1.00  0.00    -0.364 NA 
ATOM      2  C6    A A   1     -10.038  10.440  69.332  1.00  0.00    -0.229 A  
ATOM      3  H61   A A   1      -9.281   9.735  71.188  1.00  0.00     0.000 HD 
ATOM      4  H62   A A   1      -8.247  10.425  70.111  1.00  0.00     0.000 HD 
ATOM      5  C5    A A   1      -9.795  10.639  67.960  1.00  0.00    -0.160 A  
ATOM      6  N7    A A   1      -8.694  10.384  67.172  1.00  0.00    -0.130 NA 
ATOM      7  C8    A A   1      -9.046  10.797  65.973  1.00  0.00    -0.185 A  
ATOM      8  N9    A A   1     -10.326  11.305  65.951  1.00  0.00    -0.246 NA 
ATOM      9  N1    A A   1     -11.223  10.841  69.837  1.00  0.00    -0.289 NA 
ATOM     10  C4    A A   1     -10.816  11.223  67.222  1.00  0.00    -0.267 A  
ATOM     11  C2    A A   1     -12.126  11.399  69.004  1.00  0.00    -0.249 A  
ATOM     12  N3    A A   1     -12.005  11.640  67.682  1.00  0.00    -0.625 NA 
ENDROOT
BRANCH   8  13
ATOM     13  C1*   A A   1     -10.927  11.855  64.765  1.00  0.00    -0.312 C  
ATOM     14  O4*   A A   1     -10.055  12.906  64.291  1.00  0.00    -0.339 OA 
ATOM     15  C4*   A A   1     -10.587  14.174  64.746  1.00  0.00    -0.418 C  
ATOM     16  H2*   A A   1     -13.865  12.701  63.535  1.00  0.00     0.000 HD 
ATOM     17  C3*   A A   1     -12.080  13.976  65.016  1.00  0.00    -0.415 C  
ATOM     18  C2*   A A   1     -12.328  12.480  64.791  1.00  0.00    -0.474 C  
ATOM     19  H3*   A A   1     -13.773  14.652  64.278  1.00  0.00     0.000 HD 
ATOM     20  O3*   A A   1     -12.846  14.774  64.110  1.00  0.00    -0.678 OA 
ATOM     21  O2*   A A   1     -12.997  12.315  63.519  1.00  0.00    -0.776 OA 
BRANCH  15  22
ATOM     22  C5*   A A   1      -9.839  14.629  66.008  1.00  0.00    -0.322 C  
ATOM     23  O5*   A A   1     -10.668  14.483  67.157  1.00  0.00    -0.278 OA 
ATOM     24  H5*   A A   1     -10.205  14.765  67.937  1.00  0.00     0.000 HD 
ENDBRANCH  15  22
ENDBRANCH   8  13
TORSDOF 2
ENDMDL
MODEL       15
REMARK 921   NORMALIZED FREE ENERGY PREDICTED BY IDOCK:   -6.04 KCAL/MOL
REMARK 922        TOTAL FREE ENERGY PREDICTED BY IDOCK:   -7.21 KCAL/MOL
REMARK 923 INTER-LIGAND FREE ENERGY PREDICTED BY IDOCK:   -6.75 KCAL/MOL
REMARK 924 INTRA-LIGAND FREE ENERGY PREDICTED BY IDOCK:   -0.47 KCAL/MOL
REMARK 927      BINDING AFFINITY PREDICTED BY RF-SCORE:    0.00 PKD
ROOT
ATOM      1  N6    A A   1     -10.295  17.768  69.281  1.00  0.00    -0.378 NA 
ATOM      2  C6    A A   1     -10.915  16.554  69.024  1.00  0.00    -0.306 A  
ATOM      3  H61   A A   1     -10.211  18.163  70.218  1.00  0.00     0.000 HD 
ATOM      4  H62   A A   1     -10.745  18.471  68.693  1.00  0.00     0.000 HD 
ATOM      5  C5    A A   1     -11.031  16.009  67.731  1.00  0.00    -0.307 A  
ATOM      6  N7    A A   1     -10.632  16.470  66.496  1.00  0.00    -0.262 NA 
ATOM      7  C8    A A   1     -11.030  15.542  65.653  1.00  0.00    -0.303 A  
ATOM      8  N9    A A   1     -11.667  14.499  66.289  1.00  0.00    -0.373 NA 
ATOM      9  N1    A A   1     -11.456  15.874  70.056  1.00  0.00    -0.337 NA 
ATOM     10  C4    A A   1     -11.688  14.790  67.623  1.00  0.00    -0.341 A  
ATOM     11  C2    A A   1     -12.071  14.699  69.806  1.00  0.00    -0.324 A  
ATOM     12  N3    A A   1     -12.245  14.083  68.618  1.00  0.00    -0.284 NA 
ENDROOT
BRANCH   8  13
ATOM     13  C1*   A A   1     -12.227  13.379  65.581  1.00  0.00    -0.463 C  
ATOM     14  O4*   A A   1     -12.049  12.212  66.416  1.00  0.00    -0.630 OA 
ATOM     15  C4*   A A   1     -10.880  11.497  65.947  1.00  0.00    -0.260 C  
ATOM     16  H2*   A A   1     -12.441  12.110  62.547  1.00  0.00     0.000 HD 
ATOM     17  C3*   A A   1     -10.654  11.890  64.487  1.00  0.00    -0.311 C  
ATOM     18  C2*   A A   1     -11.709  12.963  64.197  1.00  0.00    -0.406 C  
ATOM     19  H3*   A A   1     -10.687  10.991  62.737  1.00  0.00     0.000 HD 
ATOM     20  O3*   A A   1     -10.828  10.747  63.645  1.00  0.00    -0.110 OA 
ATOM     21  O2*   A A   1     -12.762  12.367  63.404  1.00  0.00    -0.722 OA 
BRANCH  15  22
ATOM     22  C5*   A A   1      -9.668  11.851  66.823  1.00  0.00    -0.204 C  
ATOM     23  O5*   A A   1      -8.878  12.856  66.195  1.00  0.00    -0.428 OA 
ATOM     24  H5*   A A   1      -8.129  13.075  66.736  1.00  0.00     0.000 HD 
ENDBRANCH  15  22
ENDBRANCH   8  13
TORSDOF 2
ENDMDL
MODEL       16
REMARK 921   NORMALIZED FREE ENERGY PREDICTED BY IDOCK:   -6.03 KCAL/MOL
REMARK 922        TOTAL FREE ENERGY PREDICTED BY IDOCK:   -7.21 KCAL/MOL
REMARK 923 INTER-LIGAND FREE ENERGY PREDICTED BY IDOCK:   -6.96 KCAL/MOL
REMARK 924 INTRA-LIGAND FREE ENERGY PREDICTED BY IDOCK:   -0.25 KCAL/MOL
REMARK 927      BINDING AFFINITY PREDICTED BY RF-SCORE:    0.00 PKD
ROOT
ATOM      1  N6    A A   1     -11.573  16.456  70.879  1.00  0.00    -0.579 NA 
ATOM      2  C6    A A   1     -10.909  16.132  69.704  1.00  0.00    -0.338 A  
ATOM      3  H61   A A   1     -11.377  17.301  71.414  1.00  0.00     0.000 HD 
ATOM      4  H62   A A   1     -11.473  15.663  71.514  1.00  0.00     0.000 HD 
ATOM      5  C5    A A   1     -11.180  14.965  68.965  1.00  0.00    -0.264 A  
ATOM      6  N7    A A   1     -12.057  13.924  69.173  1.00  0.00    -0.356 NA 
ATOM      7  C8    A A   1     -11.849  13.111  68.159  1.00  0.00    -0.348 A  
ATOM      8  N9    A A   1     -10.878  13.582  67.304  1.00  0.00    -0.274 NA 
ATOM      9  N1    A A   1      -9.939  16.960  69.261  1.00  0.00    -0.225 NA 
ATOM     10  C4    A A   1     -10.428  14.765  67.814  1.00  0.00    -0.254 A  
ATOM     11  C2    A A   1      -9.284  16.640  68.126  1.00  0.00    -0.220 A  
ATOM     12  N3    A A   1      -9.453  15.556  67.341  1.00  0.00    -0.210 NA 
ENDROOT
BRANCH   8  13
ATOM     13  C1*   A A   1     -10.444  12.855  66.141  1.00  0.00    -0.269 C  
ATOM     14  O4*   A A   1     -10.268  13.816  65.076  1.00  0.00    -0.364 OA 
ATOM     15  C4*   A A   1     -11.452  13.787  64.242  1.00  0.00    -0.340 C  
ATOM     16  H2*   A A   1     -10.993  10.034  64.527  1.00  0.00     0.000 HD 
ATOM     17  C3*   A A   1     -12.121  12.426  64.440  1.00  0.00    -0.426 C  
ATOM     18  C2*   A A   1     -11.297  11.734  65.531  1.00  0.00    -0.223 C  
ATOM     19  H3*   A A   1     -12.509  10.843  63.338  1.00  0.00     0.000 HD 
ATOM     20  O3*   A A   1     -12.093  11.688  63.215  1.00  0.00    -0.409 OA 
ATOM     21  O2*   A A   1     -10.466  10.728  64.905  1.00  0.00    -0.311 OA 
BRANCH  15  22
ATOM     22  C5*   A A   1     -12.389  14.941  64.628  1.00  0.00    -0.278 C  
ATOM     23  O5*   A A   1     -12.233  16.032  63.725  1.00  0.00    -1.269 OA 
ATOM     24  H5*   A A   1     -12.812  16.745  63.964  1.00  0.00     0.000 HD 
ENDBRANCH  15  22
ENDBRANCH   8  13
TORSDOF 2
ENDMDL
MODEL       17
REMARK 921   NORMALIZED FREE ENERGY PREDICTED BY IDOCK:   -6.02 KCAL/MOL
REMARK 922        TOTAL FREE ENERGY PREDICTED BY IDOCK:   -7.20 KCAL/MOL
REMARK 923 INTER-LIGAND FREE ENERGY PREDICTED BY IDOCK:   -7.01 KCAL/MOL
REMARK 924 INTRA-LIGAND FREE ENERGY PREDICTED BY IDOCK:   -0.19 KCAL/MOL
REMARK 927      BINDING AFFINITY PREDICTED BY RF-SCORE:    0.00 PKD
ROOT
ATOM      1  N6    A A   1     -11.630  11.050  70.721  1.00  0.00    -0.382 NA 
ATOM      2  C6    A A   1     -11.836  12.059  69.790  1.00  0.00    -0.331 A  
ATOM      3  H61   A A   1     -11.772  11.180  71.723  1.00  0.00     0.000 HD 
ATOM      4  H62   A A   1     -10.679  10.704  70.590  1.00  0.00     0.000 HD 
ATOM      5  C5    A A   1     -11.640  11.881  68.408  1.00  0.00    -0.317 A  
ATOM      6  N7    A A   1     -11.223  10.797  67.667  1.00  0.00    -0.368 NA 
ATOM      7  C8    A A   1     -11.212  11.231  66.425  1.00  0.00    -0.121 A  
ATOM      8  N9    A A   1     -11.607  12.547  66.330  1.00  0.00    -0.374 NA 
ATOM      9  N1    A A   1     -12.214  13.277  70.231  1.00  0.00    -0.340 NA 
ATOM     10  C4    A A   1     -11.873  12.983  67.596  1.00  0.00    -0.351 A  
ATOM     11  C2    A A   1     -12.401  14.263  69.329  1.00  0.00    -0.162 A  
ATOM     12  N3    A A   1     -12.244  14.211  67.990  1.00  0.00    -0.246 NA 
ENDROOT
BRANCH   8  13
ATOM     13  C1*   A A   1     -11.643  13.262  65.082  1.00  0.00    -0.308 C  
ATOM     14  O4*   A A   1     -10.274  13.521  64.697  1.00  0.00    -0.387 OA 
ATOM     15  C4*   A A   1      -9.945  14.878  65.082  1.00  0.00    -0.242 C  
ATOM     16  H2*   A A   1     -13.322  15.640  63.536  1.00  0.00     0.000 HD 
ATOM     17  C3*   A A   1     -11.257  15.656  65.191  1.00  0.00    -0.282 C  
ATOM     18  C2*   A A   1     -12.356  14.615  64.952  1.00  0.00    -0.315 C  
ATOM     19  H3*   A A   1     -12.107  17.173  64.270  1.00  0.00     0.000 HD 
ATOM     20  O3*   A A   1     -11.292  16.689  64.202  1.00  0.00    -1.141 OA 
ATOM     21  O2*   A A   1     -12.879  14.803  63.616  1.00  0.00    -0.619 OA 
BRANCH  15  22
ATOM     22  C5*   A A   1      -9.180  14.869  66.414  1.00  0.00    -0.284 C  
ATOM     23  O5*   A A   1      -8.506  13.626  66.592  1.00  0.00    -0.437 OA 
ATOM     24  H5*   A A   1      -8.033  13.621  67.416  1.00  0.00     0.000 HD 
ENDBRANCH  15  22
ENDBRANCH   8  13
TORSDOF 2
ENDMDL
MODEL       18
REMARK 921   NORMALIZED FREE ENERGY PREDICTED BY IDOCK:   -6.01 KCAL/MOL
REMARK 922        TOTAL FREE ENERGY PREDICTED BY IDOCK:   -7.18 KCAL/MOL
REMARK 923 INTER-LIGAND FREE ENERGY PREDICTED BY IDOCK:   -6.58 KCAL/MOL
REMARK 924 INTRA-LIGAND FREE ENERGY PREDICTED BY IDOCK:   -0.60 KCAL/MOL
REMARK 927      BINDING AFFINITY PREDICTED BY RF-SCORE:    0.00 PKD
ROOT
ATOM      1  N6    A A   1      -9.199   9.328  69.090  1.00  0.00    -0.146 NA 
ATOM      2  C6    A A   1     -10.066  10.411  69.102  1.00  0.00    -0.222 A  
ATOM      3  H61   A A   1      -9.312   8.517  69.699  1.00  0.00     0.000 HD 
ATOM      4  H62   A A   1      -8.256   9.690  69.239  1.00  0.00     0.000 HD 
ATOM      5  C5    A A   1      -9.908  11.530  68.262  1.00  0.00    -0.203 A  
ATOM      6  N7    A A   1      -8.959  11.847  67.315  1.00  0.00    -0.171 NA 
ATOM      7  C8    A A   1      -9.320  13.031  66.870  1.00  0.00    -0.241 A  
ATOM      8  N9    A A   1     -10.464  13.492  67.485  1.00  0.00    -0.236 NA 
ATOM      9  N1    A A   1     -11.093  10.407  69.977  1.00  0.00    -0.294 NA 
ATOM     10  C4    A A   1     -10.846  12.546  68.391  1.00  0.00    -0.243 A  
ATOM     11  C2    A A   1     -11.929  11.466  69.998  1.00  0.00    -0.363 A  
ATOM     12  N3    A A   1     -11.877  12.586  69.249  1.00  0.00    -0.313 NA 
ENDROOT
BRANCH   8  13
ATOM     13  C1*   A A   1     -11.039  14.779  67.197  1.00  0.00    -0.333 C  
ATOM     14  O4*   A A   1     -12.310  14.545  66.551  1.00  0.00    -0.346 OA 
ATOM     15  C4*   A A   1     -12.122  14.681  65.121  1.00  0.00    -0.308 C  
ATOM     16  H2*   A A   1     -10.198  17.785  66.139  1.00  0.00     0.000 HD 
ATOM     17  C3*   A A   1     -10.882  15.549  64.901  1.00  0.00    -0.427 C  
ATOM     18  C2*   A A   1     -10.318  15.799  66.304  1.00  0.00    -0.310 C  
ATOM     19  H3*   A A   1     -10.485  17.313  64.125  1.00  0.00     0.000 HD 
ATOM     20  O3*   A A   1     -11.255  16.773  64.262  1.00  0.00    -1.163 OA 
ATOM     21  O2*   A A   1     -10.644  17.154  66.692  1.00  0.00    -0.277 OA 
BRANCH  15  22
ATOM     22  C5*   A A   1     -11.962  13.293  64.484  1.00  0.00    -0.400 C  
ATOM     23  O5*   A A   1     -12.571  12.298  65.301  1.00  0.00    -0.583 OA 
ATOM     24  H5*   A A   1     -12.471  11.439  64.907  1.00  0.00     0.000 HD 
ENDBRANCH  15  22
ENDBRANCH   8  13
TORSDOF 2
ENDMDL
MODEL       19
REMARK 921   NORMALIZED FREE ENERGY PREDICTED BY IDOCK:   -5.96 KCAL/MOL
REMARK 922        TOTAL FREE ENERGY PREDICTED BY IDOCK:   -7.13 KCAL/MOL
REMARK 923 INTER-LIGAND FREE ENERGY PREDICTED BY IDOCK:   -7.06 KCAL/MOL
REMARK 924 INTRA-LIGAND FREE ENERGY PREDICTED BY IDOCK:   -0.07 KCAL/MOL
REMARK 927      BINDING AFFINITY PREDICTED BY RF-SCORE:    0.00 PKD
ROOT
ATOM      1  N6    A A   1     -12.006  10.659  68.295  1.00  0.00    -0.814 NA 
ATOM      2  C6    A A   1     -11.050  11.623  68.006  1.00  0.00    -0.242 A  
ATOM      3  H61   A A   1     -11.886   9.671  68.071  1.00  0.00     0.000 HD 
ATOM      4  H62   A A   1     -12.884  10.964  67.873  1.00  0.00     0.000 HD 
ATOM      5  C5    A A   1     -11.215  12.986  68.315  1.00  0.00    -0.275 A  
ATOM      6  N7    A A   1     -12.248  13.679  68.905  1.00  0.00    -0.287 NA 
ATOM      7  C8    A A   1     -11.843  14.931  68.913  1.00  0.00    -0.301 A  
ATOM      8  N9    A A   1     -10.591  15.077  68.356  1.00  0.00    -0.234 NA 
ATOM      9  N1    A A   1      -9.921  11.242  67.372  1.00  0.00    -0.181 NA 
ATOM     10  C4    A A   1     -10.179  13.839  67.955  1.00  0.00    -0.248 A  
ATOM     11  C2    A A   1      -8.997  12.180  67.078  1.00  0.00    -0.201 A  
ATOM     12  N3    A A   1      -9.045  13.506  67.322  1.00  0.00    -0.216 NA 
ENDROOT
BRANCH   8  13
ATOM     13  C1*   A A   1      -9.945  16.354  68.214  1.00  0.00    -0.243 C  
ATOM     14  O4*   A A   1     -10.754  17.146  67.315  1.00  0.00    -0.302 OA 
ATOM     15  C4*   A A   1     -10.163  17.074  65.994  1.00  0.00    -0.325 C  
ATOM     16  H2*   A A   1      -6.948  17.691  67.907  1.00  0.00     0.000 HD 
ATOM     17  C3*   A A   1      -8.687  16.712  66.170  1.00  0.00    -0.287 C  
ATOM     18  C2*   A A   1      -8.513  16.473  67.673  1.00  0.00    -0.173 C  
ATOM     19  H3*   A A   1      -6.949  17.567  65.822  1.00  0.00     0.000 HD 
ATOM     20  O3*   A A   1      -7.866  17.791  65.714  1.00  0.00    -0.541 OA 
ATOM     21  O2*   A A   1      -7.835  17.618  68.242  1.00  0.00    -0.236 OA 
BRANCH  15  22
ATOM     22  C5*   A A   1     -10.905  16.028  65.149  1.00  0.00    -0.395 C  
ATOM     23  O5*   A A   1     -11.385  16.614  63.942  1.00  0.00    -1.558 OA 
ATOM     24  H5*   A A   1     -11.844  15.967  63.420  1.00  0.00     0.000 HD 
ENDBRANCH  15  22
ENDBRANCH   8  13
TORSDOF 2
ENDMDL
MODEL       20
REMARK 921   NORMALIZED FREE ENERGY PREDICTED BY IDOCK:   -5.93 KCAL/MOL
REMARK 922        TOTAL FREE ENERGY PREDICTED BY IDOCK:   -7.10 KCAL/MOL
REMARK 923 INTER-LIGAND FREE ENERGY PREDICTED BY IDOCK:   -6.47 KCAL/MOL
REMARK 924 INTRA-LIGAND FREE ENERGY PREDICTED BY IDOCK:   -0.62 KCAL/MOL
REMARK 927      BINDING AFFINITY PREDICTED BY RF-SCORE:    0.00 PKD
ROOT
ATOM      1  N6    A A   1     -13.315  13.413  72.256  1.00  0.00    -0.524 NA 
ATOM      2  C6    A A   1     -12.631  13.158  71.076  1.00  0.00    -0.312 A  
ATOM      3  H61   A A   1     -13.603  12.679  72.903  1.00  0.00     0.000 HD 
ATOM      4  H62   A A   1     -14.149  13.951  72.015  1.00  0.00     0.000 HD 
ATOM      5  C5    A A   1     -12.235  14.171  70.183  1.00  0.00    -0.351 A  
ATOM      6  N7    A A   1     -12.402  15.538  70.205  1.00  0.00    -0.405 NA 
ATOM      7  C8    A A   1     -11.838  15.958  69.093  1.00  0.00    -0.330 A  
ATOM      8  N9    A A   1     -11.309  14.922  68.354  1.00  0.00    -0.289 NA 
ATOM      9  N1    A A   1     -12.357  11.877  70.753  1.00  0.00    -0.366 NA 
ATOM     10  C4    A A   1     -11.567  13.767  69.034  1.00  0.00    -0.313 A  
ATOM     11  C2    A A   1     -11.704  11.626  69.599  1.00  0.00    -0.350 A  
ATOM     12  N3    A A   1     -11.279  12.508  68.671  1.00  0.00    -0.258 NA 
ENDROOT
BRANCH   8  13
ATOM     13  C1*   A A   1     -10.672  15.119  67.080  1.00  0.00    -0.307 C  
ATOM     14  O4*   A A   1      -9.322  14.615  67.194  1.00  0.00    -0.207 OA 
ATOM     15  C4*   A A   1      -8.439  15.738  67.434  1.00  0.00    -0.171 C  
ATOM     16  H2*   A A   1     -10.451  17.320  64.637  1.00  0.00     0.000 HD 
ATOM     17  C3*   A A   1      -9.139  16.994  66.912  1.00  0.00    -0.236 C  
ATOM     18  C2*   A A   1     -10.525  16.518  66.464  1.00  0.00    -0.270 C  
ATOM     19  H3*   A A   1      -8.831  18.323  65.495  1.00  0.00     0.000 HD 
ATOM     20  O3*   A A   1      -8.397  17.543  65.819  1.00  0.00    -0.538 OA 
ATOM     21  O2*   A A   1     -10.541  16.455  65.018  1.00  0.00    -0.651 OA 
BRANCH  15  22
ATOM     22  C5*   A A   1      -8.131  15.845  68.935  1.00  0.00    -0.214 C  
ATOM     23  O5*   A A   1      -8.324  14.586  69.573  1.00  0.00    -0.379 OA 
ATOM     24  H5*   A A   1      -8.134  14.652  70.501  1.00  0.00     0.000 HD 
ENDBRANCH  15  22
ENDBRANCH   8  13
TORSDOF 2
ENDMDL
MODEL       21
REMARK 921   NORMALIZED FREE ENERGY PREDICTED BY IDOCK:   -5.90 KCAL/MOL
REMARK 922        TOTAL FREE ENERGY PREDICTED BY IDOCK:   -7.06 KCAL/MOL
REMARK 923 INTER-LIGAND FREE ENERGY PREDICTED BY IDOCK:   -7.22 KCAL/MOL
REMARK 924 INTRA-LIGAND FREE ENERGY PREDICTED BY IDOCK:    0.16 KCAL/MOL
REMARK 927      BINDING AFFINITY PREDICTED BY RF-SCORE:    0.00 PKD
ROOT
ATOM      1  N6    A A   1     -10.778  19.594  65.852  1.00  0.00    -0.478 NA 
ATOM      2  C6    A A   1     -10.513  18.509  66.677  1.00  0.00    -0.398 A  
ATOM      3  H61   A A   1     -10.865  20.549  66.200  1.00  0.00     0.000 HD 
ATOM      4  H62   A A   1     -11.629  19.380  65.332  1.00  0.00     0.000 HD 
ATOM      5  C5    A A   1     -10.393  17.191  66.197  1.00  0.00    -0.322 A  
ATOM      6  N7    A A   1     -10.506  16.655  64.934  1.00  0.00    -0.575 NA 
ATOM      7  C8    A A   1     -10.313  15.365  65.105  1.00  0.00    -0.374 A  
ATOM      8  N9    A A   1     -10.076  15.044  66.424  1.00  0.00    -0.265 NA 
ATOM      9  N1    A A   1     -10.391  18.722  68.004  1.00  0.00    -0.389 NA 
ATOM     10  C4    A A   1     -10.137  16.204  67.140  1.00  0.00    -0.269 A  
ATOM     11  C2    A A   1     -10.147  17.666  68.808  1.00  0.00    -0.377 A  
ATOM     12  N3    A A   1     -10.015  16.368  68.466  1.00  0.00    -0.230 NA 
ENDROOT
BRANCH   8  13
ATOM     13  C1*   A A   1      -9.872  13.692  66.873  1.00  0.00    -0.261 C  
ATOM     14  O4*   A A   1     -10.267  12.817  65.791  1.00  0.00    -0.280 OA 
ATOM     15  C4*   A A   1     -11.612  12.350  66.058  1.00  0.00    -0.401 C  
ATOM     16  H2*   A A   1     -10.230  11.796  69.545  1.00  0.00     0.000 HD 
ATOM     17  C3*   A A   1     -11.851  12.468  67.564  1.00  0.00    -0.323 C  
ATOM     18  C2*   A A   1     -10.589  13.142  68.114  1.00  0.00    -0.245 C  
ATOM     19  H3*   A A   1     -12.186  11.241  69.064  1.00  0.00     0.000 HD 
ATOM     20  O3*   A A   1     -12.037  11.167  68.129  1.00  0.00    -0.633 OA 
ATOM     21  O2*   A A   1      -9.787  12.137  68.776  1.00  0.00    -0.145 OA 
BRANCH  15  22
ATOM     22  C5*   A A   1     -12.621  13.186  65.257  1.00  0.00    -0.472 C  
ATOM     23  O5*   A A   1     -13.328  12.362  64.335  1.00  0.00    -0.789 OA 
ATOM     24  H5*   A A   1     -13.952  12.879  63.839  1.00  0.00     0.000 HD 
ENDBRANCH  15  22
ENDBRANCH   8  13
TORSDOF 2
ENDMDL
MODEL       22
REMARK 921   NORMALIZED FREE ENERGY PREDICTED BY IDOCK:   -5.89 KCAL/MOL
REMARK 922        TOTAL FREE ENERGY PREDICTED BY IDOCK:   -7.05 KCAL/MOL
REMARK 923 INTER-LIGAND FREE ENERGY PREDICTED BY IDOCK:   -6.42 KCAL/MOL
REMARK 924 INTRA-LIGAND FREE ENERGY PREDICTED BY IDOCK:   -0.63 KCAL/MOL
REMARK 927      BINDING AFFINITY PREDICTED BY RF-SCORE:    0.00 PKD
ROOT
ATOM      1  N6    A A   1     -11.880  16.647  72.313  1.00  0.00    -0.582 NA 
ATOM      2  C6    A A   1     -12.071  15.501  71.554  1.00  0.00    -0.393 A  
ATOM      3  H61   A A   1     -12.003  16.671  73.325  1.00  0.00     0.000 HD 
ATOM      4  H62   A A   1     -12.473  17.377  71.916  1.00  0.00     0.000 HD 
ATOM      5  C5    A A   1     -11.903  15.468  70.157  1.00  0.00    -0.356 A  
ATOM      6  N7    A A   1     -11.560  16.442  69.245  1.00  0.00    -0.178 NA 
ATOM      7  C8    A A   1     -11.580  15.826  68.082  1.00  0.00    -0.255 A  
ATOM      8  N9    A A   1     -11.916  14.496  68.202  1.00  0.00    -0.298 NA 
ATOM      9  N1    A A   1     -12.464  14.371  72.178  1.00  0.00    -0.295 NA 
ATOM     10  C4    A A   1     -12.140  14.253  69.527  1.00  0.00    -0.330 A  
ATOM     11  C2    A A   1     -12.663  13.259  71.440  1.00  0.00    -0.309 A  
ATOM     12  N3    A A   1     -12.536  13.109  70.106  1.00  0.00    -0.184 NA 
ENDROOT
BRANCH   8  13
ATOM     13  C1*   A A   1     -12.041  13.618  67.070  1.00  0.00    -0.380 C  
ATOM     14  O4*   A A   1     -11.047  12.580  67.221  1.00  0.00    -0.251 OA 
ATOM     15  C4*   A A   1      -9.903  12.928  66.403  1.00  0.00    -0.268 C  
ATOM     16  H2*   A A   1     -12.570  13.687  63.817  1.00  0.00     0.000 HD 
ATOM     17  C3*   A A   1     -10.392  13.877  65.308  1.00  0.00    -0.378 C  
ATOM     18  C2*   A A   1     -11.868  14.131  65.633  1.00  0.00    -0.375 C  
ATOM     19  H3*   A A   1     -10.542  13.850  63.346  1.00  0.00     0.000 HD 
ATOM     20  O3*   A A   1     -10.238  13.261  64.027  1.00  0.00    -0.366 OA 
ATOM     21  O2*   A A   1     -12.677  13.369  64.707  1.00  0.00    -0.641 OA 
BRANCH  15  22
ATOM     22  C5*   A A   1      -8.819  13.580  67.275  1.00  0.00    -0.224 C  
ATOM     23  O5*   A A   1      -8.971  13.184  68.635  1.00  0.00    -0.357 OA 
ATOM     24  H5*   A A   1      -8.302  13.587  69.174  1.00  0.00     0.000 HD 
ENDBRANCH  15  22
ENDBRANCH   8  13
TORSDOF 2
ENDMDL
MODEL       23
REMARK 921   NORMALIZED FREE ENERGY PREDICTED BY IDOCK:   -5.87 KCAL/MOL
REMARK 922        TOTAL FREE ENERGY PREDICTED BY IDOCK:   -7.03 KCAL/MOL
REMARK 923 INTER-LIGAND FREE ENERGY PREDICTED BY IDOCK:   -6.56 KCAL/MOL
REMARK 924 INTRA-LIGAND FREE ENERGY PREDICTED BY IDOCK:   -0.47 KCAL/MOL
REMARK 927      BINDING AFFINITY PREDICTED BY RF-SCORE:    0.00 PKD
ROOT
ATOM      1  N6    A A   1     -11.830  11.608  67.374  1.00  0.00    -0.630 NA 
ATOM      2  C6    A A   1     -11.707  12.952  67.698  1.00  0.00    -0.370 A  
ATOM      3  H61   A A   1     -12.172  10.906  68.031  1.00  0.00     0.000 HD 
ATOM      4  H62   A A   1     -10.921  11.291  67.036  1.00  0.00     0.000 HD 
ATOM      5  C5    A A   1     -11.234  13.920  66.792  1.00  0.00    -0.318 A  
ATOM      6  N7    A A   1     -10.794  13.828  65.490  1.00  0.00    -0.292 NA 
ATOM      7  C8    A A   1     -10.460  15.060  65.168  1.00  0.00    -0.412 A  
ATOM      8  N9    A A   1     -10.668  15.944  66.203  1.00  0.00    -0.301 NA 
ATOM      9  N1    A A   1     -12.027  13.347  68.948  1.00  0.00    -0.338 NA 
ATOM     10  C4    A A   1     -11.152  15.226  67.259  1.00  0.00    -0.325 A  
ATOM     11  C2    A A   1     -11.895  14.651  69.268  1.00  0.00    -0.321 A  
ATOM     12  N3    A A   1     -11.454  15.662  68.491  1.00  0.00    -0.362 NA 
ENDROOT
BRANCH   8  13
ATOM     13  C1*   A A   1     -10.344  17.343  66.111  1.00  0.00    -0.327 C  
ATOM     14  O4*   A A   1      -8.952  17.437  65.734  1.00  0.00    -0.521 OA 
ATOM     15  C4*   A A   1      -8.175  17.677  66.933  1.00  0.00    -0.225 C  
ATOM     16  H2*   A A   1     -10.908  20.211  67.634  1.00  0.00     0.000 HD 
ATOM     17  C3*   A A   1      -9.112  18.297  67.972  1.00  0.00    -0.290 C  
ATOM     18  C2*   A A   1     -10.496  18.283  67.315  1.00  0.00    -0.398 C  
ATOM     19  H3*   A A   1      -9.271  20.015  68.917  1.00  0.00     0.000 HD 
ATOM     20  O3*   A A   1      -8.689  19.630  68.272  1.00  0.00    -0.326 OA 
ATOM     21  O2*   A A   1     -10.813  19.629  66.889  1.00  0.00    -0.483 OA 
BRANCH  15  22
ATOM     22  C5*   A A   1      -7.568  16.358  67.433  1.00  0.00    -0.158 C  
ATOM     23  O5*   A A   1      -8.286  15.878  68.566  1.00  0.00    -0.166 OA 
ATOM     24  H5*   A A   1      -7.911  15.063  68.875  1.00  0.00     0.000 HD 
ENDBRANCH  15  22
ENDBRANCH   8  13
TORSDOF 2
ENDMDL
MODEL       24
REMARK 921   NORMALIZED FREE ENERGY PREDICTED BY IDOCK:   -5.83 KCAL/MOL
REMARK 922        TOTAL FREE ENERGY PREDICTED BY IDOCK:   -6.98 KCAL/MOL
REMARK 923 INTER-LIGAND FREE ENERGY PREDICTED BY IDOCK:   -6.39 KCAL/MOL
REMARK 924 INTRA-LIGAND FREE ENERGY PREDICTED BY IDOCK:   -0.59 KCAL/MOL
REMARK 927      BINDING AFFINITY PREDICTED BY RF-SCORE:    0.00 PKD
ROOT
ATOM      1  N6    A A   1      -7.428  19.309  67.992  1.00  0.00    -0.268 NA 
ATOM      2  C6    A A   1      -8.478  18.846  67.211  1.00  0.00    -0.277 A  
ATOM      3  H61   A A   1      -7.283  20.297  68.200  1.00  0.00     0.000 HD 
ATOM      4  H62   A A   1      -6.564  18.954  67.582  1.00  0.00     0.000 HD 
ATOM      5  C5    A A   1      -8.679  17.483  66.924  1.00  0.00    -0.251 A  
ATOM      6  N7    A A   1      -7.972  16.353  67.273  1.00  0.00    -0.157 NA 
ATOM      7  C8    A A   1      -8.625  15.366  66.697  1.00  0.00    -0.283 A  
ATOM      8  N9    A A   1      -9.725  15.808  65.995  1.00  0.00    -0.318 NA 
ATOM      9  N1    A A   1      -9.332  19.745  66.679  1.00  0.00    -0.364 NA 
ATOM     10  C4    A A   1      -9.765  17.166  66.119  1.00  0.00    -0.242 A  
ATOM     11  C2    A A   1     -10.346  19.297  65.909  1.00  0.00    -0.421 A  
ATOM     12  N3    A A   1     -10.635  18.025  65.565  1.00  0.00    -0.601 NA 
ENDROOT
BRANCH   8  13
ATOM     13  C1*   A A   1     -10.579  14.924  65.247  1.00  0.00    -0.401 C  
ATOM     14  O4*   A A   1     -11.901  15.015  65.826  1.00  0.00    -0.198 OA 
ATOM     15  C4*   A A   1     -12.080  13.891  66.721  1.00  0.00    -0.439 C  
ATOM     16  H2*   A A   1     -10.581  11.948  63.831  1.00  0.00     0.000 HD 
ATOM     17  C3*   A A   1     -11.109  12.794  66.282  1.00  0.00    -0.288 C  
ATOM     18  C2*   A A   1     -10.289  13.420  65.149  1.00  0.00    -0.336 C  
ATOM     19  H3*   A A   1     -11.238  10.970  65.556  1.00  0.00     0.000 HD 
ATOM     20  O3*   A A   1     -11.841  11.652  65.829  1.00  0.00    -0.307 OA 
ATOM     21  O2*   A A   1     -10.761  12.879  63.892  1.00  0.00    -0.406 OA 
BRANCH  15  22
ATOM     22  C5*   A A   1     -11.818  14.332  68.169  1.00  0.00    -0.339 C  
ATOM     23  O5*   A A   1     -12.136  15.711  68.333  1.00  0.00    -0.497 OA 
ATOM     24  H5*   A A   1     -11.974  15.984  69.228  1.00  0.00     0.000 HD 
ENDBRANCH  15  22
ENDBRANCH   8  13
TORSDOF 2
ENDMDL
MODEL       25
REMARK 921   NORMALIZED FREE ENERGY PREDICTED BY IDOCK:   -5.76 KCAL/MOL
REMARK 922        TOTAL FREE ENERGY PREDICTED BY IDOCK:   -6.91 KCAL/MOL
REMARK 923 INTER-LIGAND FREE ENERGY PREDICTED BY IDOCK:   -6.29 KCAL/MOL
REMARK 924 INTRA-LIGAND FREE ENERGY PREDICTED BY IDOCK:   -0.61 KCAL/MOL
REMARK 927      BINDING AFFINITY PREDICTED BY RF-SCORE:    0.00 PKD
ROOT
ATOM      1  N6    A A   1     -10.045  10.597  62.908  1.00  0.00    -0.709 NA 
ATOM      2  C6    A A   1     -10.960  11.342  63.639  1.00  0.00    -0.363 A  
ATOM      3  H61   A A   1     -10.236  10.247  61.969  1.00  0.00     0.000 HD 
ATOM      4  H62   A A   1      -9.775   9.798  63.482  1.00  0.00     0.000 HD 
ATOM      5  C5    A A   1     -10.696  11.824  64.935  1.00  0.00    -0.295 A  
ATOM      6  N7    A A   1      -9.601  11.700  65.761  1.00  0.00    -0.230 NA 
ATOM      7  C8    A A   1      -9.941  12.344  66.858  1.00  0.00    -0.215 A  
ATOM      8  N9    A A   1     -11.206  12.882  66.775  1.00  0.00    -0.286 NA 
ATOM      9  N1    A A   1     -12.169  11.594  63.096  1.00  0.00    -0.240 NA 
ATOM     10  C4    A A   1     -11.710  12.546  65.552  1.00  0.00    -0.409 A  
ATOM     11  C2    A A   1     -13.064  12.306  63.811  1.00  0.00    -0.038 A  
ATOM     12  N3    A A   1     -12.927  12.815  65.053  1.00  0.00    -0.828 NA 
ENDROOT
BRANCH   8  13
ATOM     13  C1*   A A   1     -11.820  13.601  67.859  1.00  0.00    -0.366 C  
ATOM     14  O4*   A A   1     -12.120  14.930  67.376  1.00  0.00    -0.246 OA 
ATOM     15  C4*   A A   1     -11.069  15.821  67.822  1.00  0.00    -0.313 C  
ATOM     16  H2*   A A   1     -11.579  14.021  71.119  1.00  0.00     0.000 HD 
ATOM     17  C3*   A A   1     -10.413  15.182  69.047  1.00  0.00    -0.248 C  
ATOM     18  C2*   A A   1     -11.092  13.816  69.194  1.00  0.00    -0.240 C  
ATOM     19  H3*   A A   1     -10.228  15.606  70.960  1.00  0.00     0.000 HD 
ATOM     20  O3*   A A   1     -10.635  16.002  70.198  1.00  0.00    -0.306 OA 
ATOM     21  O2*   A A   1     -12.030  13.888  70.293  1.00  0.00    -0.306 OA 
BRANCH  15  22
ATOM     22  C5*   A A   1     -10.056  16.038  66.687  1.00  0.00    -0.279 C  
ATOM     23  O5*   A A   1     -10.685  15.864  65.420  1.00  0.00    -0.376 OA 
ATOM     24  H5*   A A   1     -10.059  15.999  64.719  1.00  0.00     0.000 HD 
ENDBRANCH  15  22
ENDBRANCH   8  13
TORSDOF 2
ENDMDL
MODEL       26
REMARK 921   NORMALIZED FREE ENERGY PREDICTED BY IDOCK:   -5.75 KCAL/MOL
REMARK 922        TOTAL FREE ENERGY PREDICTED BY IDOCK:   -6.89 KCAL/MOL
REMARK 923 INTER-LIGAND FREE ENERGY PREDICTED BY IDOCK:   -6.42 KCAL/MOL
REMARK 924 INTRA-LIGAND FREE ENERGY PREDICTED BY IDOCK:   -0.48 KCAL/MOL
REMARK 927      BINDING AFFINITY PREDICTED BY RF-SCORE:    0.00 PKD
ROOT
ATOM      1  N6    A A   1     -10.071  10.342  62.334  1.00  0.00    -0.717 NA 
ATOM      2  C6    A A   1      -9.978  10.715  63.668  1.00  0.00    -0.301 A  
ATOM      3  H61   A A   1      -9.383   9.745  61.874  1.00  0.00     0.000 HD 
ATOM      4  H62   A A   1     -10.149  11.198  61.783  1.00  0.00     0.000 HD 
ATOM      5  C5    A A   1     -10.926  11.539  64.302  1.00  0.00    -0.341 A  
ATOM      6  N7    A A   1     -12.069  12.155  63.842  1.00  0.00    -0.468 NA 
ATOM      7  C8    A A   1     -12.533  12.810  64.885  1.00  0.00    -0.497 A  
ATOM      8  N9    A A   1     -11.742  12.643  66.000  1.00  0.00    -0.396 NA 
ATOM      9  N1    A A   1      -8.916  10.292  64.384  1.00  0.00    -0.207 NA 
ATOM     10  C4    A A   1     -10.698  11.840  65.639  1.00  0.00    -0.280 A  
ATOM     11  C2    A A   1      -8.817  10.665  65.677  1.00  0.00    -0.186 A  
ATOM     12  N3    A A   1      -9.656  11.447  66.387  1.00  0.00    -0.200 NA 
ENDROOT
BRANCH   8  13
ATOM     13  C1*   A A   1     -12.017  13.288  67.256  1.00  0.00    -0.343 C  
ATOM     14  O4*   A A   1     -12.177  14.700  66.986  1.00  0.00    -0.307 OA 
ATOM     15  C4*   A A   1     -10.928  15.363  67.299  1.00  0.00    -0.317 C  
ATOM     16  H2*   A A   1     -11.113  13.224  70.424  1.00  0.00     0.000 HD 
ATOM     17  C3*   A A   1     -10.173  14.478  68.292  1.00  0.00    -0.234 C  
ATOM     18  C2*   A A   1     -11.031  13.215  68.429  1.00  0.00    -0.262 C  
ATOM     19  H3*   A A   1      -9.571  14.608  70.160  1.00  0.00     0.000 HD 
ATOM     20  O3*   A A   1     -10.040  15.158  69.543  1.00  0.00    -0.231 OA 
ATOM     21  O2*   A A   1     -11.724  13.270  69.698  1.00  0.00    -0.293 OA 
BRANCH  15  22
ATOM     22  C5*   A A   1     -10.121  15.586  66.011  1.00  0.00    -0.332 C  
ATOM     23  O5*   A A   1      -9.086  14.614  65.899  1.00  0.00    -0.503 OA 
ATOM     24  H5*   A A   1      -8.587  14.752  65.103  1.00  0.00     0.000 HD 
ENDBRANCH  15  22
ENDBRANCH   8  13
TORSDOF 2
ENDMDL
MODEL       27
REMARK 921   NORMALIZED FREE ENERGY PREDICTED BY IDOCK:   -5.73 KCAL/MOL
REMARK 922        TOTAL FREE ENERGY PREDICTED BY IDOCK:   -6.88 KCAL/MOL
REMARK 923 INTER-LIGAND FREE ENERGY PREDICTED BY IDOCK:   -6.47 KCAL/MOL
REMARK 924 INTRA-LIGAND FREE ENERGY PREDICTED BY IDOCK:   -0.41 KCAL/MOL
REMARK 927      BINDING AFFINITY PREDICTED BY RF-SCORE:    0.00 PKD
ROOT
ATOM      1  N6    A A   1     -12.768  12.470  64.871  1.00  0.00    -0.754 NA 
ATOM      2  C6    A A   1     -12.077  13.673  64.839  1.00  0.00    -0.397 A  
ATOM      3  H61   A A   1     -13.631  12.309  64.352  1.00  0.00     0.000 HD 
ATOM      4  H62   A A   1     -12.956  12.252  65.850  1.00  0.00     0.000 HD 
ATOM      5  C5    A A   1     -10.886  13.894  65.555  1.00  0.00    -0.306 A  
ATOM      6  N7    A A   1     -10.157  13.091  66.405  1.00  0.00    -0.272 NA 
ATOM      7  C8    A A   1      -9.150  13.847  66.789  1.00  0.00    -0.223 A  
ATOM      8  N9    A A   1      -9.194  15.101  66.223  1.00  0.00    -0.300 NA 
ATOM      9  N1    A A   1     -12.584  14.689  64.110  1.00  0.00    -0.790 NA 
ATOM     10  C4    A A   1     -10.310  15.153  65.438  1.00  0.00    -0.388 A  
ATOM     11  C2    A A   1     -11.920  15.864  64.088  1.00  0.00     0.095 A  
ATOM     12  N3    A A   1     -10.780  16.192  64.731  1.00  0.00    -0.654 NA 
ENDROOT
BRANCH   8  13
ATOM     13  C1*   A A   1      -8.225  16.123  66.515  1.00  0.00    -0.308 C  
ATOM     14  O4*   A A   1      -7.929  16.041  67.928  1.00  0.00    -0.134 OA 
ATOM     15  C4*   A A   1      -8.708  17.052  68.612  1.00  0.00    -0.261 C  
ATOM     16  H2*   A A   1      -7.490  19.249  65.772  1.00  0.00     0.000 HD 
ATOM     17  C3*   A A   1      -9.058  18.134  67.589  1.00  0.00    -0.259 C  
ATOM     18  C2*   A A   1      -8.519  17.607  66.255  1.00  0.00    -0.202 C  
ATOM     19  H3*   A A   1      -8.650  20.040  67.319  1.00  0.00     0.000 HD 
ATOM     20  O3*   A A   1      -8.433  19.367  67.955  1.00  0.00    -0.296 OA 
ATOM     21  O2*   A A   1      -7.308  18.330  65.934  1.00  0.00    -0.403 OA 
BRANCH  15  22
ATOM     22  C5*   A A   1      -9.969  16.416  69.216  1.00  0.00    -0.259 C  
ATOM     23  O5*   A A   1     -11.083  16.597  68.347  1.00  0.00    -0.359 OA 
ATOM     24  H5*   A A   1     -11.862  16.204  68.721  1.00  0.00     0.000 HD 
ENDBRANCH  15  22
ENDBRANCH   8  13
TORSDOF 2
ENDMDL
MODEL       28
REMARK 921   NORMALIZED FREE ENERGY PREDICTED BY IDOCK:   -5.68 KCAL/MOL
REMARK 922        TOTAL FREE ENERGY PREDICTED BY IDOCK:   -6.82 KCAL/MOL
REMARK 923 INTER-LIGAND FREE ENERGY PREDICTED BY IDOCK:   -6.21 KCAL/MOL
REMARK 924 INTRA-LIGAND FREE ENERGY PREDICTED BY IDOCK:   -0.61 KCAL/MOL
REMARK 927      BINDING AFFINITY PREDICTED BY RF-SCORE:    0.00 PKD
ROOT
ATOM      1  N6    A A   1     -10.352  10.544  65.257  1.00  0.00    -0.267 NA 
ATOM      2  C6    A A   1     -11.017  11.724  65.561  1.00  0.00    -0.290 A  
ATOM      3  H61   A A   1     -10.243  10.196  64.304  1.00  0.00     0.000 HD 
ATOM      4  H62   A A   1     -10.786   9.800  65.805  1.00  0.00     0.000 HD 
ATOM      5  C5    A A   1     -11.169  12.203  66.875  1.00  0.00    -0.320 A  
ATOM      6  N7    A A   1     -10.769  11.699  68.093  1.00  0.00    -0.203 NA 
ATOM      7  C8    A A   1     -11.211  12.573  68.973  1.00  0.00    -0.268 A  
ATOM      8  N9    A A   1     -11.875  13.622  68.376  1.00  0.00    -0.358 NA 
ATOM      9  N1    A A   1     -11.569  12.431  64.553  1.00  0.00    -0.333 NA 
ATOM     10  C4    A A   1     -11.869  13.393  67.030  1.00  0.00    -0.394 A  
ATOM     11  C2    A A   1     -12.227  13.572  64.848  1.00  0.00    -0.410 A  
ATOM     12  N3    A A   1     -12.437  14.125  66.061  1.00  0.00    -0.464 NA 
ENDROOT
BRANCH   8  13
ATOM     13  C1*   A A   1     -12.483  14.688  69.127  1.00  0.00     0.022 C  
ATOM     14  O4*   A A   1     -11.735  15.893  68.842  1.00  0.00    -0.390 OA 
ATOM     15  C4*   A A   1     -10.800  16.110  69.927  1.00  0.00    -0.355 C  
ATOM     16  H2*   A A   1     -13.821  15.310  72.074  1.00  0.00     0.000 HD 
ATOM     17  C3*   A A   1     -11.340  15.376  71.155  1.00  0.00    -0.378 C  
ATOM     18  C2*   A A   1     -12.586  14.634  70.657  1.00  0.00    -0.357 C  
ATOM     19  H3*   A A   1     -12.003  15.863  72.942  1.00  0.00     0.000 HD 
ATOM     20  O3*   A A   1     -11.668  16.319  72.179  1.00  0.00    -0.495 OA 
ATOM     21  O2*   A A   1     -13.757  15.344  71.126  1.00  0.00    -0.495 OA 
BRANCH  15  22
ATOM     22  C5*   A A   1      -9.410  15.595  69.525  1.00  0.00    -0.263 C  
ATOM     23  O5*   A A   1      -9.307  15.496  68.108  1.00  0.00    -0.194 OA 
ATOM     24  H5*   A A   1      -8.448  15.177  67.859  1.00  0.00     0.000 HD 
ENDBRANCH  15  22
ENDBRANCH   8  13
TORSDOF 2
ENDMDL
MODEL       29
REMARK 921   NORMALIZED FREE ENERGY PREDICTED BY IDOCK:   -5.68 KCAL/MOL
REMARK 922        TOTAL FREE ENERGY PREDICTED BY IDOCK:   -6.82 KCAL/MOL
REMARK 923 INTER-LIGAND FREE ENERGY PREDICTED BY IDOCK:   -6.21 KCAL/MOL
REMARK 924 INTRA-LIGAND FREE ENERGY PREDICTED BY IDOCK:   -0.61 KCAL/MOL
REMARK 927      BINDING AFFINITY PREDICTED BY RF-SCORE:    0.00 PKD
ROOT
ATOM      1  N6    A A   1      -9.358   9.724  70.579  1.00  0.00    -0.350 NA 
ATOM      2  C6    A A   1      -9.312   9.849  69.197  1.00  0.00    -0.193 A  
ATOM      3  H61   A A   1      -8.704   9.148  71.108  1.00  0.00     0.000 HD 
ATOM      4  H62   A A   1     -10.300   9.421  70.826  1.00  0.00     0.000 HD 
ATOM      5  C5    A A   1     -10.215  10.644  68.467  1.00  0.00    -0.175 A  
ATOM      6  N7    A A   1     -11.285  11.420  68.857  1.00  0.00    -0.224 NA 
ATOM      7  C8    A A   1     -11.762  11.911  67.733  1.00  0.00    -0.292 A  
ATOM      8  N9    A A   1     -11.046  11.489  66.634  1.00  0.00    -0.302 NA 
ATOM      9  N1    A A   1      -8.377   9.154  68.517  1.00  0.00    -0.122 NA 
ATOM     10  C4    A A   1     -10.057  10.664  67.087  1.00  0.00    -0.207 A  
ATOM     11  C2    A A   1      -8.340   9.263  67.173  1.00  0.00    -0.124 A  
ATOM     12  N3    A A   1      -9.148   9.987  66.371  1.00  0.00    -0.147 NA 
ENDROOT
BRANCH   8  13
ATOM     13  C1*   A A   1     -11.393  11.859  65.288  1.00  0.00    -0.275 C  
ATOM     14  O4*   A A   1     -10.288  12.624  64.755  1.00  0.00    -0.299 OA 
ATOM     15  C4*   A A   1     -10.615  14.030  64.871  1.00  0.00    -0.424 C  
ATOM     16  H2*   A A   1     -13.958  12.889  63.493  1.00  0.00     0.000 HD 
ATOM     17  C3*   A A   1     -12.139  14.144  64.948  1.00  0.00    -0.428 C  
ATOM     18  C2*   A A   1     -12.643  12.697  64.983  1.00  0.00    -0.430 C  
ATOM     19  H3*   A A   1     -13.578  14.912  63.849  1.00  0.00     0.000 HD 
ATOM     20  O3*   A A   1     -12.631  14.841  63.801  1.00  0.00    -0.806 OA 
ATOM     21  O2*   A A   1     -13.184  12.371  63.681  1.00  0.00    -0.655 OA 
BRANCH  15  22
ATOM     22  C5*   A A   1      -9.940  14.620  66.119  1.00  0.00    -0.304 C  
ATOM     23  O5*   A A   1      -8.760  13.888  66.438  1.00  0.00    -0.451 OA 
ATOM     24  H5*   A A   1      -8.342  14.252  67.209  1.00  0.00     0.000 HD 
ENDBRANCH  15  22
ENDBRANCH   8  13
TORSDOF 2
ENDMDL
MODEL       30
REMARK 921   NORMALIZED FREE ENERGY PREDICTED BY IDOCK:   -5.66 KCAL/MOL
REMARK 922        TOTAL FREE ENERGY PREDICTED BY IDOCK:   -6.80 KCAL/MOL
REMARK 923 INTER-LIGAND FREE ENERGY PREDICTED BY IDOCK:   -6.36 KCAL/MOL
REMARK 924 INTRA-LIGAND FREE ENERGY PREDICTED BY IDOCK:   -0.44 KCAL/MOL
REMARK 927      BINDING AFFINITY PREDICTED BY RF-SCORE:    0.00 PKD
ROOT
ATOM      1  N6    A A   1     -10.917   9.470  71.551  1.00  0.00    -0.357 NA 
ATOM      2  C6    A A   1     -10.900   9.594  70.169  1.00  0.00    -0.280 A  
ATOM      3  H61   A A   1     -10.619   8.625  72.038  1.00  0.00     0.000 HD 
ATOM      4  H62   A A   1     -11.864   9.685  71.864  1.00  0.00     0.000 HD 
ATOM      5  C5    A A   1     -11.312  10.760  69.497  1.00  0.00    -0.289 A  
ATOM      6  N7    A A   1     -11.806  11.962  69.953  1.00  0.00    -0.340 NA 
ATOM      7  C8    A A   1     -12.033  12.661  68.861  1.00  0.00    -0.242 A  
ATOM      8  N9    A A   1     -11.704  11.965  67.719  1.00  0.00    -0.516 NA 
ATOM      9  N1    A A   1     -10.498   8.539  69.431  1.00  0.00    -0.220 NA 
ATOM     10  C4    A A   1     -11.252  10.737  68.109  1.00  0.00    -0.302 A  
ATOM     11  C2    A A   1     -10.493   8.653  68.086  1.00  0.00    -0.187 A  
ATOM     12  N3    A A   1     -10.864   9.711  67.337  1.00  0.00    -0.240 NA 
ENDROOT
BRANCH   8  13
ATOM     13  C1*   A A   1     -11.896  12.499  66.397  1.00  0.00    -0.381 C  
ATOM     14  O4*   A A   1     -10.638  12.371  65.697  1.00  0.00    -0.253 OA 
ATOM     15  C4*   A A   1      -9.958  13.648  65.753  1.00  0.00    -0.261 C  
ATOM     16  H2*   A A   1     -13.382  14.988  64.828  1.00  0.00     0.000 HD 
ATOM     17  C3*   A A   1     -11.018  14.725  65.989  1.00  0.00    -0.328 C  
ATOM     18  C2*   A A   1     -12.330  13.955  66.176  1.00  0.00    -0.465 C  
ATOM     19  H3*   A A   1     -11.740  16.268  65.005  1.00  0.00     0.000 HD 
ATOM     20  O3*   A A   1     -11.081  15.598  64.858  1.00  0.00    -0.411 OA 
ATOM     21  O2*   A A   1     -13.112  14.087  64.966  1.00  0.00    -0.742 OA 
BRANCH  15  22
ATOM     22  C5*   A A   1      -8.910  13.630  66.877  1.00  0.00    -0.187 C  
ATOM     23  O5*   A A   1      -8.139  12.434  66.818  1.00  0.00    -0.357 OA 
ATOM     24  H5*   A A   1      -7.491  12.422  67.512  1.00  0.00     0.000 HD 
ENDBRANCH  15  22
ENDBRANCH   8  13
TORSDOF 2
ENDMDL
MODEL       31
REMARK 921   NORMALIZED FREE ENERGY PREDICTED BY IDOCK:   -5.66 KCAL/MOL
REMARK 922        TOTAL FREE ENERGY PREDICTED BY IDOCK:   -6.79 KCAL/MOL
REMARK 923 INTER-LIGAND FREE ENERGY PREDICTED BY IDOCK:   -6.39 KCAL/MOL
REMARK 924 INTRA-LIGAND FREE ENERGY PREDICTED BY IDOCK:   -0.41 KCAL/MOL
REMARK 927      BINDING AFFINITY PREDICTED BY RF-SCORE:    0.00 PKD
ROOT
ATOM      1  N6    A A   1      -7.647  21.234  66.975  1.00  0.00    -0.768 NA 
ATOM      2  C6    A A   1      -8.633  20.278  67.177  1.00  0.00    -0.338 A  
ATOM      3  H61   A A   1      -7.835  22.149  66.564  1.00  0.00     0.000 HD 
ATOM      4  H62   A A   1      -6.908  20.798  66.423  1.00  0.00     0.000 HD 
ATOM      5  C5    A A   1      -8.374  19.016  67.744  1.00  0.00    -0.288 A  
ATOM      6  N7    A A   1      -7.212  18.426  68.192  1.00  0.00    -0.253 NA 
ATOM      7  C8    A A   1      -7.584  17.231  68.597  1.00  0.00    -0.260 A  
ATOM      8  N9    A A   1      -8.936  17.023  68.434  1.00  0.00    -0.239 NA 
ATOM      9  N1    A A   1      -9.894  20.558  66.788  1.00  0.00    -0.396 NA 
ATOM     10  C4    A A   1      -9.456  18.155  67.875  1.00  0.00    -0.281 A  
ATOM     11  C2    A A   1     -10.850  19.625  66.971  1.00  0.00    -0.399 A  
ATOM     12  N3    A A   1     -10.722  18.389  67.498  1.00  0.00    -0.414 NA 
ENDROOT
BRANCH   8  13
ATOM     13  C1*   A A   1      -9.580  15.781  68.768  1.00  0.00    -0.216 C  
ATOM     14  O4*   A A   1      -9.062  14.775  67.868  1.00  0.00    -0.177 OA 
ATOM     15  C4*   A A   1     -10.016  14.596  66.793  1.00  0.00    -0.261 C  
ATOM     16  H2*   A A   1     -12.518  14.569  69.643  1.00  0.00     0.000 HD 
ATOM     17  C3*   A A   1     -11.380  15.064  67.306  1.00  0.00    -0.332 C  
ATOM     18  C2*   A A   1     -11.106  15.625  68.705  1.00  0.00    -0.317 C  
ATOM     19  H3*   A A   1     -13.132  14.248  67.672  1.00  0.00     0.000 HD 
ATOM     20  O3*   A A   1     -12.285  13.958  67.354  1.00  0.00    -0.378 OA 
ATOM     21  O2*   A A   1     -11.573  14.665  69.681  1.00  0.00    -0.273 OA 
BRANCH  15  22
ATOM     22  C5*   A A   1      -9.569  15.398  65.562  1.00  0.00    -0.218 C  
ATOM     23  O5*   A A   1     -10.596  16.296  65.153  1.00  0.00    -0.576 OA 
ATOM     24  H5*   A A   1     -10.319  16.791  64.392  1.00  0.00     0.000 HD 
ENDBRANCH  15  22
ENDBRANCH   8  13
TORSDOF 2
ENDMDL
MODEL       32
REMARK 921   NORMALIZED FREE ENERGY PREDICTED BY IDOCK:   -5.64 KCAL/MOL
REMARK 922        TOTAL FREE ENERGY PREDICTED BY IDOCK:   -6.77 KCAL/MOL
REMARK 923 INTER-LIGAND FREE ENERGY PREDICTED BY IDOCK:   -6.46 KCAL/MOL
REMARK 924 INTRA-LIGAND FREE ENERGY PREDICTED BY IDOCK:   -0.31 KCAL/MOL
REMARK 927      BINDING AFFINITY PREDICTED BY RF-SCORE:    0.00 PKD
ROOT
ATOM      1  N6    A A   1     -13.062  15.214  70.559  1.00  0.00    -0.646 NA 
ATOM      2  C6    A A   1     -12.147  15.232  69.516  1.00  0.00    -0.290 A  
ATOM      3  H61   A A   1     -13.348  16.053  71.065  1.00  0.00     0.000 HD 
ATOM      4  H62   A A   1     -12.723  14.543  71.250  1.00  0.00     0.000 HD 
ATOM      5  C5    A A   1     -11.754  14.074  68.819  1.00  0.00    -0.353 A  
ATOM      6  N7    A A   1     -12.101  12.749  68.961  1.00  0.00    -0.219 NA 
ATOM      7  C8    A A   1     -11.398  12.124  68.041  1.00  0.00    -0.295 A  
ATOM      8  N9    A A   1     -10.613  12.987  67.309  1.00  0.00    -0.241 NA 
ATOM      9  N1    A A   1     -11.587  16.410  69.169  1.00  0.00    -0.202 NA 
ATOM     10  C4    A A   1     -10.820  14.242  67.805  1.00  0.00    -0.253 A  
ATOM     11  C2    A A   1     -10.688  16.427  68.164  1.00  0.00    -0.336 A  
ATOM     12  N3    A A   1     -10.234  15.390  67.430  1.00  0.00    -0.246 NA 
ENDROOT
BRANCH   8  13
ATOM     13  C1*   A A   1      -9.725  12.542  66.269  1.00  0.00    -0.254 C  
ATOM     14  O4*   A A   1      -9.933  13.405  65.128  1.00  0.00    -0.257 OA 
ATOM     15  C4*   A A   1     -10.818  12.727  64.204  1.00  0.00    -0.406 C  
ATOM     16  H2*   A A   1      -8.542   9.779  64.915  1.00  0.00     0.000 HD 
ATOM     17  C3*   A A   1     -10.715  11.227  64.485  1.00  0.00    -0.323 C  
ATOM     18  C2*   A A   1      -9.798  11.115  65.707  1.00  0.00    -0.235 C  
ATOM     19  H3*   A A   1     -10.093   9.626  63.524  1.00  0.00     0.000 HD 
ATOM     20  O3*   A A   1     -10.157  10.558  63.350  1.00  0.00    -0.271 OA 
ATOM     21  O2*   A A   1      -8.497  10.663  65.262  1.00  0.00    -0.169 OA 
BRANCH  15  22
ATOM     22  C5*   A A   1     -12.254  13.240  64.388  1.00  0.00    -0.390 C  
ATOM     23  O5*   A A   1     -12.638  14.050  63.281  1.00  0.00    -1.073 OA 
ATOM     24  H5*   A A   1     -13.526  14.368  63.394  1.00  0.00     0.000 HD 
ENDBRANCH  15  22
ENDBRANCH   8  13
TORSDOF 2
ENDMDL
MODEL       33
REMARK 921   NORMALIZED FREE ENERGY PREDICTED BY IDOCK:   -5.60 KCAL/MOL
REMARK 922        TOTAL FREE ENERGY PREDICTED BY IDOCK:   -6.72 KCAL/MOL
REMARK 923 INTER-LIGAND FREE ENERGY PREDICTED BY IDOCK:   -6.11 KCAL/MOL
REMARK 924 INTRA-LIGAND FREE ENERGY PREDICTED BY IDOCK:   -0.62 KCAL/MOL
REMARK 927      BINDING AFFINITY PREDICTED BY RF-SCORE:    0.00 PKD
ROOT
ATOM      1  N6    A A   1      -8.721  16.849  65.835  1.00  0.00    -0.524 NA 
ATOM      2  C6    A A   1      -9.640  15.815  65.729  1.00  0.00    -0.320 A  
ATOM      3  H61   A A   1      -8.824  17.738  65.346  1.00  0.00     0.000 HD 
ATOM      4  H62   A A   1      -7.806  16.470  65.588  1.00  0.00     0.000 HD 
ATOM      5  C5    A A   1      -9.497  14.588  66.403  1.00  0.00    -0.291 A  
ATOM      6  N7    A A   1      -8.519  14.106  67.245  1.00  0.00    -0.208 NA 
ATOM      7  C8    A A   1      -8.917  12.889  67.549  1.00  0.00    -0.193 A  
ATOM      8  N9    A A   1     -10.110  12.564  66.943  1.00  0.00    -0.222 NA 
ATOM      9  N1    A A   1     -10.707  15.980  64.920  1.00  0.00    -0.631 NA 
ATOM     10  C4    A A   1     -10.490  13.639  66.193  1.00  0.00    -0.297 A  
ATOM     11  C2    A A   1     -11.595  14.971  64.805  1.00  0.00    -0.395 A  
ATOM     12  N3    A A   1     -11.563  13.758  65.396  1.00  0.00    -0.313 NA 
ENDROOT
BRANCH   8  13
ATOM     13  C1*   A A   1     -10.734  11.276  67.090  1.00  0.00    -0.253 C  
ATOM     14  O4*   A A   1     -12.043  11.496  67.661  1.00  0.00    -0.623 OA 
ATOM     15  C4*   A A   1     -11.962  11.248  69.086  1.00  0.00    -0.336 C  
ATOM     16  H2*   A A   1     -10.040   8.176  67.969  1.00  0.00     0.000 HD 
ATOM     17  C3*   A A   1     -10.761  10.331  69.325  1.00  0.00    -0.234 C  
ATOM     18  C2*   A A   1     -10.103  10.172  67.950  1.00  0.00    -0.176 C  
ATOM     19  H3*   A A   1     -10.461   8.503  69.989  1.00  0.00     0.000 HD 
ATOM     20  O3*   A A   1     -11.206   9.073  69.840  1.00  0.00    -0.195 OA 
ATOM     21  O2*   A A   1     -10.430   8.860  67.437  1.00  0.00    -0.258 OA 
BRANCH  15  22
ATOM     22  C5*   A A   1     -11.816  12.579  69.838  1.00  0.00    -0.303 C  
ATOM     23  O5*   A A   1     -12.260  13.661  69.024  1.00  0.00    -0.334 OA 
ATOM     24  H5*   A A   1     -12.170  14.484  69.489  1.00  0.00     0.000 HD 
ENDBRANCH  15  22
ENDBRANCH   8  13
TORSDOF 2
ENDMDL
MODEL       34
REMARK 921   NORMALIZED FREE ENERGY PREDICTED BY IDOCK:   -5.59 KCAL/MOL
REMARK 922        TOTAL FREE ENERGY PREDICTED BY IDOCK:   -6.72 KCAL/MOL
REMARK 923 INTER-LIGAND FREE ENERGY PREDICTED BY IDOCK:   -6.36 KCAL/MOL
REMARK 924 INTRA-LIGAND FREE ENERGY PREDICTED BY IDOCK:   -0.37 KCAL/MOL
REMARK 927      BINDING AFFINITY PREDICTED BY RF-SCORE:    0.00 PKD
ROOT
ATOM      1  N6    A A   1      -7.652  21.373  66.955  1.00  0.00    -0.772 NA 
ATOM      2  C6    A A   1      -7.596  20.154  67.616  1.00  0.00    -0.304 A  
ATOM      3  H61   A A   1      -6.851  22.001  66.876  1.00  0.00     0.000 HD 
ATOM      4  H62   A A   1      -8.418  21.907  67.366  1.00  0.00     0.000 HD 
ATOM      5  C5    A A   1      -8.700  19.288  67.725  1.00  0.00    -0.306 A  
ATOM      6  N7    A A   1     -10.000  19.391  67.282  1.00  0.00    -0.345 NA 
ATOM      7  C8    A A   1     -10.578  18.284  67.698  1.00  0.00    -0.405 A  
ATOM      8  N9    A A   1      -9.708  17.469  68.387  1.00  0.00    -0.301 NA 
ATOM      9  N1    A A   1      -6.437  19.792  68.205  1.00  0.00    -0.247 NA 
ATOM     10  C4    A A   1      -8.501  18.105  68.426  1.00  0.00    -0.299 A  
ATOM     11  C2    A A   1      -6.385  18.613  68.859  1.00  0.00    -0.237 A  
ATOM     12  N3    A A   1      -7.371  17.708  69.031  1.00  0.00    -0.233 NA 
ENDROOT
BRANCH   8  13
ATOM     13  C1*   A A   1     -10.109  16.219  68.975  1.00  0.00    -0.259 C  
ATOM     14  O4*   A A   1      -9.335  15.177  68.338  1.00  0.00    -0.187 OA 
ATOM     15  C4*   A A   1     -10.154  14.574  67.306  1.00  0.00    -0.247 C  
ATOM     16  H2*   A A   1     -12.796  14.625  70.024  1.00  0.00     0.000 HD 
ATOM     17  C3*   A A   1     -11.617  14.839  67.665  1.00  0.00    -0.354 C  
ATOM     18  C2*   A A   1     -11.564  15.732  68.910  1.00  0.00    -0.394 C  
ATOM     19  H3*   A A   1     -13.190  13.766  68.161  1.00  0.00     0.000 HD 
ATOM     20  O3*   A A   1     -12.281  13.602  67.938  1.00  0.00    -0.320 OA 
ATOM     21  O2*   A A   1     -11.896  14.926  70.064  1.00  0.00    -0.270 OA 
BRANCH  15  22
ATOM     22  C5*   A A   1      -9.789  15.170  65.938  1.00  0.00    -0.341 C  
ATOM     23  O5*   A A   1      -9.715  14.144  64.953  1.00  0.00    -0.538 OA 
ATOM     24  H5*   A A   1      -9.490  14.513  64.107  1.00  0.00     0.000 HD 
ENDBRANCH  15  22
ENDBRANCH   8  13
TORSDOF 2
ENDMDL
MODEL       35
REMARK 921   NORMALIZED FREE ENERGY PREDICTED BY IDOCK:   -5.59 KCAL/MOL
REMARK 922        TOTAL FREE ENERGY PREDICTED BY IDOCK:   -6.72 KCAL/MOL
REMARK 923 INTER-LIGAND FREE ENERGY PREDICTED BY IDOCK:   -6.24 KCAL/MOL
REMARK 924 INTRA-LIGAND FREE ENERGY PREDICTED BY IDOCK:   -0.48 KCAL/MOL
REMARK 927      BINDING AFFINITY PREDICTED BY RF-SCORE:    0.00 PKD
ROOT
ATOM      1  N6    A A   1     -12.486  14.901  63.885  1.00  0.00    -1.056 NA 
ATOM      2  C6    A A   1     -12.016  13.646  64.248  1.00  0.00    -0.445 A  
ATOM      3  H61   A A   1     -12.554  15.211  62.916  1.00  0.00     0.000 HD 
ATOM      4  H62   A A   1     -11.927  15.592  64.388  1.00  0.00     0.000 HD 
ATOM      5  C5    A A   1     -11.921  13.219  65.586  1.00  0.00    -0.412 A  
ATOM      6  N7    A A   1     -12.212  13.845  66.778  1.00  0.00    -0.426 NA 
ATOM      7  C8    A A   1     -11.903  12.958  67.700  1.00  0.00    -0.346 A  
ATOM      8  N9    A A   1     -11.429  11.785  67.156  1.00  0.00    -0.456 NA 
ATOM      9  N1    A A   1     -11.605  12.805  63.276  1.00  0.00    -0.442 NA 
ATOM     10  C4    A A   1     -11.422  11.940  65.800  1.00  0.00    -0.265 A  
ATOM     11  C2    A A   1     -11.136  11.590  63.628  1.00  0.00    -0.385 A  
ATOM     12  N3    A A   1     -10.997  11.074  64.867  1.00  0.00    -0.142 NA 
ENDROOT
BRANCH   8  13
ATOM     13  C1*   A A   1     -10.990  10.675  67.959  1.00  0.00    -0.282 C  
ATOM     14  O4*   A A   1     -10.019  11.186  68.901  1.00  0.00    -0.201 OA 
ATOM     15  C4*   A A   1      -8.696  10.904  68.382  1.00  0.00    -0.147 C  
ATOM     16  H2*   A A   1     -10.194   7.487  67.711  1.00  0.00     0.000 HD 
ATOM     17  C3*   A A   1      -8.823   9.730  67.411  1.00  0.00    -0.132 C  
ATOM     18  C2*   A A   1     -10.326   9.442  67.330  1.00  0.00    -0.263 C  
ATOM     19  H3*   A A   1      -8.180   7.873  67.313  1.00  0.00     0.000 HD 
ATOM     20  O3*   A A   1      -8.102   8.603  67.916  1.00  0.00    -0.106 OA 
ATOM     21  O2*   A A   1     -10.605   8.250  68.101  1.00  0.00    -0.191 OA 
BRANCH  15  22
ATOM     22  C5*   A A   1      -8.132  12.154  67.689  1.00  0.00    -0.158 C  
ATOM     23  O5*   A A   1      -8.255  12.036  66.275  1.00  0.00    -0.388 OA 
ATOM     24  H5*   A A   1      -7.906  12.808  65.847  1.00  0.00     0.000 HD 
ENDBRANCH  15  22
ENDBRANCH   8  13
TORSDOF 2
ENDMDL
MODEL       36
REMARK 921   NORMALIZED FREE ENERGY PREDICTED BY IDOCK:   -5.59 KCAL/MOL
REMARK 922        TOTAL FREE ENERGY PREDICTED BY IDOCK:   -6.71 KCAL/MOL
REMARK 923 INTER-LIGAND FREE ENERGY PREDICTED BY IDOCK:   -6.82 KCAL/MOL
REMARK 924 INTRA-LIGAND FREE ENERGY PREDICTED BY IDOCK:    0.11 KCAL/MOL
REMARK 927      BINDING AFFINITY PREDICTED BY RF-SCORE:    0.00 PKD
ROOT
ATOM      1  N6    A A   1     -11.966  10.303  68.853  1.00  0.00    -0.649 NA 
ATOM      2  C6    A A   1     -11.882  11.642  69.207  1.00  0.00    -0.331 A  
ATOM      3  H61   A A   1     -12.506   9.620  69.384  1.00  0.00     0.000 HD 
ATOM      4  H62   A A   1     -11.013   9.946  68.778  1.00  0.00     0.000 HD 
ATOM      5  C5    A A   1     -11.136  12.584  68.474  1.00  0.00    -0.262 A  
ATOM      6  N7    A A   1     -10.356  12.468  67.345  1.00  0.00    -0.215 NA 
ATOM      7  C8    A A   1      -9.894  13.682  67.136  1.00  0.00    -0.242 A  
ATOM      8  N9    A A   1     -10.344  14.580  68.079  1.00  0.00    -0.227 NA 
ATOM      9  N1    A A   1     -12.520  12.057  70.321  1.00  0.00    -0.156 NA 
ATOM     10  C4    A A   1     -11.132  13.888  68.953  1.00  0.00    -0.266 A  
ATOM     11  C2    A A   1     -12.428  13.356  70.674  1.00  0.00    -0.311 A  
ATOM     12  N3    A A   1     -11.746  14.343  70.056  1.00  0.00    -0.283 NA 
ENDROOT
BRANCH   8  13
ATOM     13  C1*   A A   1      -9.950  15.963  68.089  1.00  0.00    -0.222 C  
ATOM     14  O4*   A A   1     -10.935  16.695  67.325  1.00  0.00    -0.212 OA 
ATOM     15  C4*   A A   1     -10.409  16.900  65.991  1.00  0.00    -0.325 C  
ATOM     16  H2*   A A   1      -7.268  17.867  67.881  1.00  0.00     0.000 HD 
ATOM     17  C3*   A A   1      -8.885  16.803  66.077  1.00  0.00    -0.183 C  
ATOM     18  C2*   A A   1      -8.594  16.416  67.530  1.00  0.00    -0.173 C  
ATOM     19  H3*   A A   1      -7.353  18.005  65.798  1.00  0.00     0.000 HD 
ATOM     20  O3*   A A   1      -8.300  18.065  65.745  1.00  0.00    -0.508 OA 
ATOM     21  O2*   A A   1      -8.108  17.587  68.226  1.00  0.00    -0.248 OA 
BRANCH  15  22
ATOM     22  C5*   A A   1     -10.991  15.847  65.035  1.00  0.00    -0.412 C  
ATOM     23  O5*   A A   1     -11.631  16.478  63.930  1.00  0.00    -1.598 OA 
ATOM     24  H5*   A A   1     -11.990  15.828  63.340  1.00  0.00     0.000 HD 
ENDBRANCH  15  22
ENDBRANCH   8  13
TORSDOF 2
ENDMDL
MODEL       37
REMARK 921   NORMALIZED FREE ENERGY PREDICTED BY IDOCK:   -5.58 KCAL/MOL
REMARK 922        TOTAL FREE ENERGY PREDICTED BY IDOCK:   -6.70 KCAL/MOL
REMARK 923 INTER-LIGAND FREE ENERGY PREDICTED BY IDOCK:   -6.14 KCAL/MOL
REMARK 924 INTRA-LIGAND FREE ENERGY PREDICTED BY IDOCK:   -0.56 KCAL/MOL
REMARK 927      BINDING AFFINITY PREDICTED BY RF-SCORE:    0.00 PKD
ROOT
ATOM      1  N6    A A   1     -12.269  11.065  69.092  1.00  0.00    -0.612 NA 
ATOM      2  C6    A A   1     -11.863  11.890  68.052  1.00  0.00    -0.253 A  
ATOM      3  H61   A A   1     -12.404  10.060  68.984  1.00  0.00     0.000 HD 
ATOM      4  H62   A A   1     -13.136  11.451  69.466  1.00  0.00     0.000 HD 
ATOM      5  C5    A A   1     -11.677  13.277  68.201  1.00  0.00    -0.362 A  
ATOM      6  N7    A A   1     -11.839  14.120  69.278  1.00  0.00    -0.317 NA 
ATOM      7  C8    A A   1     -11.536  15.313  68.811  1.00  0.00    -0.362 A  
ATOM      8  N9    A A   1     -11.182  15.278  67.481  1.00  0.00    -0.326 NA 
ATOM      9  N1    A A   1     -11.664  11.344  66.835  1.00  0.00    -0.467 NA 
ATOM     10  C4    A A   1     -11.280  13.980  67.070  1.00  0.00    -0.313 A  
ATOM     11  C2    A A   1     -11.282  12.147  65.820  1.00  0.00    -0.339 A  
ATOM     12  N3    A A   1     -11.076  13.480  65.841  1.00  0.00    -0.284 NA 
ENDROOT
BRANCH   8  13
ATOM     13  C1*   A A   1     -10.844  16.459  66.732  1.00  0.00    -0.098 C  
ATOM     14  O4*   A A   1      -9.701  16.132  65.910  1.00  0.00    -0.319 OA 
ATOM     15  C4*   A A   1      -8.511  16.618  66.578  1.00  0.00    -0.292 C  
ATOM     16  H2*   A A   1     -10.621  19.730  67.066  1.00  0.00     0.000 HD 
ATOM     17  C3*   A A   1      -8.941  17.739  67.526  1.00  0.00    -0.244 C  
ATOM     18  C2*   A A   1     -10.470  17.773  67.432  1.00  0.00    -0.364 C  
ATOM     19  H3*   A A   1      -8.630  19.674  67.695  1.00  0.00     0.000 HD 
ATOM     20  O3*   A A   1      -8.364  18.978  67.106  1.00  0.00    -0.270 OA 
ATOM     21  O2*   A A   1     -10.852  18.916  66.633  1.00  0.00    -0.347 OA 
BRANCH  15  22
ATOM     22  C5*   A A   1      -7.831  15.467  67.333  1.00  0.00    -0.188 C  
ATOM     23  O5*   A A   1      -8.149  14.218  66.726  1.00  0.00    -0.382 OA 
ATOM     24  H5*   A A   1      -7.729  13.506  67.193  1.00  0.00     0.000 HD 
ENDBRANCH  15  22
ENDBRANCH   8  13
TORSDOF 2
ENDMDL
MODEL       38
REMARK 921   NORMALIZED FREE ENERGY PREDICTED BY IDOCK:   -5.57 KCAL/MOL
REMARK 922        TOTAL FREE ENERGY PREDICTED BY IDOCK:   -6.69 KCAL/MOL
REMARK 923 INTER-LIGAND FREE ENERGY PREDICTED BY IDOCK:   -6.18 KCAL/MOL
REMARK 924 INTRA-LIGAND FREE ENERGY PREDICTED BY IDOCK:   -0.52 KCAL/MOL
REMARK 927      BINDING AFFINITY PREDICTED BY RF-SCORE:    0.00 PKD
ROOT
ATOM      1  N6    A A   1     -11.899  14.442  71.405  1.00  0.00    -0.460 NA 
ATOM      2  C6    A A   1     -11.980  13.442  70.446  1.00  0.00    -0.285 A  
ATOM      3  H61   A A   1     -11.951  14.258  72.407  1.00  0.00     0.000 HD 
ATOM      4  H62   A A   1     -12.616  15.134  71.184  1.00  0.00     0.000 HD 
ATOM      5  C5    A A   1     -11.909  13.697  69.063  1.00  0.00    -0.352 A  
ATOM      6  N7    A A   1     -11.774  14.865  68.345  1.00  0.00    -0.318 NA 
ATOM      7  C8    A A   1     -11.789  14.481  67.086  1.00  0.00    -0.387 A  
ATOM      8  N9    A A   1     -11.924  13.116  66.959  1.00  0.00    -0.376 NA 
ATOM      9  N1    A A   1     -12.163  12.170  70.854  1.00  0.00    -0.305 NA 
ATOM     10  C4    A A   1     -12.016  12.599  68.219  1.00  0.00    -0.222 A  
ATOM     11  C2    A A   1     -12.255  11.198  69.922  1.00  0.00    -0.314 A  
ATOM     12  N3    A A   1     -12.203  11.320  68.580  1.00  0.00    -0.553 NA 
ENDROOT
BRANCH   8  13
ATOM     13  C1*   A A   1     -12.005  12.456  65.683  1.00  0.00    -0.386 C  
ATOM     14  O4*   A A   1     -11.256  11.224  65.790  1.00  0.00    -0.164 OA 
ATOM     15  C4*   A A   1      -9.942  11.444  65.220  1.00  0.00    -0.258 C  
ATOM     16  H2*   A A   1     -11.933  13.103  62.452  1.00  0.00     0.000 HD 
ATOM     17  C3*   A A   1     -10.053  12.622  64.251  1.00  0.00    -0.266 C  
ATOM     18  C2*   A A   1     -11.493  13.125  64.400  1.00  0.00    -0.366 C  
ATOM     19  H3*   A A   1      -9.858  12.910  62.314  1.00  0.00     0.000 HD 
ATOM     20  O3*   A A   1      -9.790  12.179  62.917  1.00  0.00    -0.270 OA 
ATOM     21  O2*   A A   1     -12.250  12.689  63.247  1.00  0.00    -0.536 OA 
BRANCH  15  22
ATOM     22  C5*   A A   1      -8.929  11.725  66.340  1.00  0.00    -0.201 C  
ATOM     23  O5*   A A   1      -9.296  11.029  67.528  1.00  0.00    -0.157 OA 
ATOM     24  H5*   A A   1      -8.670  11.203  68.220  1.00  0.00     0.000 HD 
ENDBRANCH  15  22
ENDBRANCH   8  13
TORSDOF 2
ENDMDL
MODEL       39
REMARK 921   NORMALIZED FREE ENERGY PREDICTED BY IDOCK:   -5.54 KCAL/MOL
REMARK 922        TOTAL FREE ENERGY PREDICTED BY IDOCK:   -6.66 KCAL/MOL
REMARK 923 INTER-LIGAND FREE ENERGY PREDICTED BY IDOCK:   -6.34 KCAL/MOL
REMARK 924 INTRA-LIGAND FREE ENERGY PREDICTED BY IDOCK:   -0.32 KCAL/MOL
REMARK 927      BINDING AFFINITY PREDICTED BY RF-SCORE:    0.00 PKD
ROOT
ATOM      1  N6    A A   1      -7.300  19.799  68.875  1.00  0.00    -0.324 NA 
ATOM      2  C6    A A   1      -7.368  18.434  68.638  1.00  0.00    -0.295 A  
ATOM      3  H61   A A   1      -6.431  20.281  69.108  1.00  0.00     0.000 HD 
ATOM      4  H62   A A   1      -7.974  20.015  69.610  1.00  0.00     0.000 HD 
ATOM      5  C5    A A   1      -8.566  17.769  68.318  1.00  0.00    -0.277 A  
ATOM      6  N7    A A   1      -9.862  18.216  68.181  1.00  0.00    -0.324 NA 
ATOM      7  C8    A A   1     -10.555  17.135  67.893  1.00  0.00    -0.376 A  
ATOM      8  N9    A A   1      -9.763  16.009  67.835  1.00  0.00    -0.220 NA 
ATOM      9  N1    A A   1      -6.239  17.703  68.746  1.00  0.00    -0.189 NA 
ATOM     10  C4    A A   1      -8.486  16.396  68.118  1.00  0.00    -0.188 A  
ATOM     11  C2    A A   1      -6.306  16.373  68.529  1.00  0.00    -0.129 A  
ATOM     12  N3    A A   1      -7.389  15.630  68.220  1.00  0.00    -0.113 NA 
ENDROOT
BRANCH   8  13
ATOM     13  C1*   A A   1     -10.292  14.697  67.573  1.00  0.00    -0.234 C  
ATOM     14  O4*   A A   1      -9.840  14.307  66.257  1.00  0.00    -0.284 OA 
ATOM     15  C4*   A A   1     -10.912  14.562  65.317  1.00  0.00    -0.360 C  
ATOM     16  H2*   A A   1     -13.026  12.904  67.993  1.00  0.00     0.000 HD 
ATOM     17  C3*   A A   1     -12.222  14.577  66.107  1.00  0.00    -0.251 C  
ATOM     18  C2*   A A   1     -11.804  14.426  67.573  1.00  0.00    -0.386 C  
ATOM     19  H3*   A A   1     -13.868  13.501  66.176  1.00  0.00     0.000 HD 
ATOM     20  O3*   A A   1     -13.054  13.492  65.686  1.00  0.00    -0.483 OA 
ATOM     21  O2*   A A   1     -12.090  13.071  67.992  1.00  0.00    -0.318 OA 
BRANCH  15  22
ATOM     22  C5*   A A   1     -10.668  15.899  64.600  1.00  0.00    -0.078 C  
ATOM     23  O5*   A A   1     -11.783  16.234  63.780  1.00  0.00    -1.511 OA 
ATOM     24  H5*   A A   1     -11.632  17.060  63.337  1.00  0.00     0.000 HD 
ENDBRANCH  15  22
ENDBRANCH   8  13
TORSDOF 2
ENDMDL
MODEL       40
REMARK 921   NORMALIZED FREE ENERGY PREDICTED BY IDOCK:   -5.51 KCAL/MOL
REMARK 922        TOTAL FREE ENERGY PREDICTED BY IDOCK:   -6.63 KCAL/MOL
REMARK 923 INTER-LIGAND FREE ENERGY PREDICTED BY IDOCK:   -6.21 KCAL/MOL
REMARK 924 INTRA-LIGAND FREE ENERGY PREDICTED BY IDOCK:   -0.42 KCAL/MOL
REMARK 927      BINDING AFFINITY PREDICTED BY RF-SCORE:    0.00 PKD
ROOT
ATOM      1  N6    A A   1     -10.121  19.045  69.272  1.00  0.00    -0.474 NA 
ATOM      2  C6    A A   1     -10.318  18.093  68.281  1.00  0.00    -0.363 A  
ATOM      3  H61   A A   1      -9.703  19.958  69.091  1.00  0.00     0.000 HD 
ATOM      4  H62   A A   1      -9.579  18.603  70.015  1.00  0.00     0.000 HD 
ATOM      5  C5    A A   1     -10.894  16.833  68.530  1.00  0.00    -0.345 A  
ATOM      6  N7    A A   1     -11.356  16.242  69.685  1.00  0.00    -0.302 NA 
ATOM      7  C8    A A   1     -11.763  15.050  69.304  1.00  0.00    -0.323 A  
ATOM      8  N9    A A   1     -11.588  14.846  67.953  1.00  0.00    -0.339 NA 
ATOM      9  N1    A A   1      -9.914  18.376  67.025  1.00  0.00    -0.324 NA 
ATOM     10  C4    A A   1     -11.018  15.977  67.443  1.00  0.00    -0.237 A  
ATOM     11  C2    A A   1     -10.093  17.447  66.063  1.00  0.00    -0.262 A  
ATOM     12  N3    A A   1     -10.627  16.214  66.182  1.00  0.00    -0.306 NA 
ENDROOT
BRANCH   8  13
ATOM     13  C1*   A A   1     -11.922  13.608  67.301  1.00  0.00    -0.381 C  
ATOM     14  O4*   A A   1     -11.061  12.587  67.856  1.00  0.00    -0.221 OA 
ATOM     15  C4*   A A   1      -9.955  12.384  66.943  1.00  0.00    -0.215 C  
ATOM     16  H2*   A A   1     -12.710  12.401  64.337  1.00  0.00     0.000 HD 
ATOM     17  C3*   A A   1     -10.407  12.856  65.560  1.00  0.00    -0.291 C  
ATOM     18  C2*   A A   1     -11.805  13.445  65.779  1.00  0.00    -0.377 C  
ATOM     19  H3*   A A   1     -10.724  12.040  63.798  1.00  0.00     0.000 HD 
ATOM     20  O3*   A A   1     -10.443  11.747  64.657  1.00  0.00    -0.269 OA 
ATOM     21  O2*   A A   1     -12.781  12.501  65.280  1.00  0.00    -0.654 OA 
BRANCH  15  22
ATOM     22  C5*   A A   1      -8.726  13.164  67.433  1.00  0.00    -0.206 C  
ATOM     23  O5*   A A   1      -8.305  14.100  66.446  1.00  0.00    -0.321 OA 
ATOM     24  H5*   A A   1      -7.545  14.582  66.749  1.00  0.00     0.000 HD 
ENDBRANCH  15  22
ENDBRANCH   8  13
TORSDOF 2
ENDMDL
MODEL       41
REMARK 921   NORMALIZED FREE ENERGY PREDICTED BY IDOCK:   -5.50 KCAL/MOL
REMARK 922        TOTAL FREE ENERGY PREDICTED BY IDOCK:   -6.62 KCAL/MOL
REMARK 923 INTER-LIGAND FREE ENERGY PREDICTED BY IDOCK:   -6.20 KCAL/MOL
REMARK 924 INTRA-LIGAND FREE ENERGY PREDICTED BY IDOCK:   -0.42 KCAL/MOL
REMARK 927      BINDING AFFINITY PREDICTED BY RF-SCORE:    0.00 PKD
ROOT
ATOM      1  N6    A A   1     -12.653  13.764  66.898  1.00  0.00    -0.378 NA 
ATOM      2  C6    A A   1     -11.537  14.556  66.662  1.00  0.00    -0.375 A  
ATOM      3  H61   A A   1     -13.020  13.103  66.214  1.00  0.00     0.000 HD 
ATOM      4  H62   A A   1     -13.418  14.386  67.162  1.00  0.00     0.000 HD 
ATOM      5  C5    A A   1     -11.031  15.470  67.606  1.00  0.00    -0.315 A  
ATOM      6  N7    A A   1     -11.449  15.816  68.872  1.00  0.00    -0.357 NA 
ATOM      7  C8    A A   1     -10.595  16.739  69.260  1.00  0.00    -0.336 A  
ATOM      8  N9    A A   1      -9.640  17.002  68.302  1.00  0.00    -0.263 NA 
ATOM      9  N1    A A   1     -10.925  14.468  65.463  1.00  0.00    -0.319 NA 
ATOM     10  C4    A A   1      -9.914  16.204  67.228  1.00  0.00    -0.248 A  
ATOM     11  C2    A A   1      -9.848  15.247  65.228  1.00  0.00    -0.215 A  
ATOM     12  N3    A A   1      -9.278  16.154  66.048  1.00  0.00    -0.346 NA 
ENDROOT
BRANCH   8  13
ATOM     13  C1*   A A   1      -8.617  17.998  68.473  1.00  0.00    -0.297 C  
ATOM     14  O4*   A A   1      -9.283  19.266  68.670  1.00  0.00    -0.360 OA 
ATOM     15  C4*   A A   1      -9.292  19.972  67.405  1.00  0.00    -0.371 C  
ATOM     16  H2*   A A   1      -5.665  18.871  67.296  1.00  0.00     0.000 HD 
ATOM     17  C3*   A A   1      -8.148  19.413  66.558  1.00  0.00    -0.303 C  
ATOM     18  C2*   A A   1      -7.565  18.263  67.387  1.00  0.00    -0.214 C  
ATOM     19  H3*   A A   1      -6.464  20.086  65.796  1.00  0.00     0.000 HD 
ATOM     20  O3*   A A   1      -7.174  20.434  66.323  1.00  0.00    -0.265 OA 
ATOM     21  O2*   A A   1      -6.317  18.707  67.968  1.00  0.00    -0.201 OA 
BRANCH  15  22
ATOM     22  C5*   A A   1     -10.651  19.786  66.716  1.00  0.00    -0.467 C  
ATOM     23  O5*   A A   1     -10.532  18.887  65.617  1.00  0.00    -0.569 OA 
ATOM     24  H5*   A A   1     -11.373  18.772  65.190  1.00  0.00     0.000 HD 
ENDBRANCH  15  22
ENDBRANCH   8  13
TORSDOF 2
ENDMDL
MODEL       42
REMARK 921   NORMALIZED FREE ENERGY PREDICTED BY IDOCK:   -5.48 KCAL/MOL
REMARK 922        TOTAL FREE ENERGY PREDICTED BY IDOCK:   -6.59 KCAL/MOL
REMARK 923 INTER-LIGAND FREE ENERGY PREDICTED BY IDOCK:   -6.39 KCAL/MOL
REMARK 924 INTRA-LIGAND FREE ENERGY PREDICTED BY IDOCK:   -0.20 KCAL/MOL
REMARK 927      BINDING AFFINITY PREDICTED BY RF-SCORE:    0.00 PKD
ROOT
ATOM      1  N6    A A   1     -13.133  10.094  71.824  1.00  0.00    -0.436 NA 
ATOM      2  C6    A A   1     -12.987  11.441  71.523  1.00  0.00    -0.399 A  
ATOM      3  H61   A A   1     -13.733   9.753  72.575  1.00  0.00     0.000 HD 
ATOM      4  H62   A A   1     -12.199   9.715  71.984  1.00  0.00     0.000 HD 
ATOM      5  C5    A A   1     -12.159  11.911  70.486  1.00  0.00    -0.331 A  
ATOM      6  N7    A A   1     -11.339  11.258  69.592  1.00  0.00    -0.278 NA 
ATOM      7  C8    A A   1     -10.801  12.222  68.875  1.00  0.00    -0.196 A  
ATOM      8  N9    A A   1     -11.239  13.468  69.264  1.00  0.00    -0.254 NA 
ATOM      9  N1    A A   1     -13.648  12.346  72.274  1.00  0.00    -0.427 NA 
ATOM     10  C4    A A   1     -12.102  13.287  70.307  1.00  0.00    -0.335 A  
ATOM     11  C2    A A   1     -13.498  13.656  71.991  1.00  0.00    -0.484 A  
ATOM     12  N3    A A   1     -12.736  14.221  71.032  1.00  0.00    -0.339 NA 
ENDROOT
BRANCH   8  13
ATOM     13  C1*   A A   1     -10.768  14.685  68.658  1.00  0.00    -0.250 C  
ATOM     14  O4*   A A   1     -11.825  15.175  67.803  1.00  0.00    -0.310 OA 
ATOM     15  C4*   A A   1     -11.528  14.775  66.443  1.00  0.00    -0.319 C  
ATOM     16  H2*   A A   1      -8.055  16.007  67.335  1.00  0.00     0.000 HD 
ATOM     17  C3*   A A   1     -10.020  14.531  66.355  1.00  0.00    -0.292 C  
ATOM     18  C2*   A A   1      -9.505  14.710  67.786  1.00  0.00    -0.205 C  
ATOM     19  H3*   A A   1      -8.491  15.328  65.408  1.00  0.00     0.000 HD 
ATOM     20  O3*   A A   1      -9.427  15.479  65.463  1.00  0.00    -0.279 OA 
ATOM     21  O2*   A A   1      -8.837  15.991  67.874  1.00  0.00    -0.179 OA 
BRANCH  15  22
ATOM     22  C5*   A A   1     -12.327  13.512  66.086  1.00  0.00    -0.407 C  
ATOM     23  O5*   A A   1     -13.528  13.861  65.403  1.00  0.00    -0.672 OA 
ATOM     24  H5*   A A   1     -14.022  13.081  65.182  1.00  0.00     0.000 HD 
ENDBRANCH  15  22
ENDBRANCH   8  13
TORSDOF 2
ENDMDL
MODEL       43
REMARK 921   NORMALIZED FREE ENERGY PREDICTED BY IDOCK:   -5.48 KCAL/MOL
REMARK 922        TOTAL FREE ENERGY PREDICTED BY IDOCK:   -6.59 KCAL/MOL
REMARK 923 INTER-LIGAND FREE ENERGY PREDICTED BY IDOCK:   -6.23 KCAL/MOL
REMARK 924 INTRA-LIGAND FREE ENERGY PREDICTED BY IDOCK:   -0.36 KCAL/MOL
REMARK 927      BINDING AFFINITY PREDICTED BY RF-SCORE:    0.00 PKD
ROOT
ATOM      1  N6    A A   1      -9.977  20.327  65.214  1.00  0.00    -0.306 NA 
ATOM      2  C6    A A   1     -10.090  19.583  66.380  1.00  0.00    -0.455 A  
ATOM      3  H61   A A   1      -9.827  21.336  65.210  1.00  0.00     0.000 HD 
ATOM      4  H62   A A   1     -10.808  20.140  64.651  1.00  0.00     0.000 HD 
ATOM      5  C5    A A   1     -10.297  18.190  66.385  1.00  0.00    -0.394 A  
ATOM      6  N7    A A   1     -10.447  17.276  65.366  1.00  0.00    -0.646 NA 
ATOM      7  C8    A A   1     -10.631  16.126  65.980  1.00  0.00    -0.295 A  
ATOM      8  N9    A A   1     -10.603  16.257  67.351  1.00  0.00    -0.312 NA 
ATOM      9  N1    A A   1     -10.026  20.225  67.565  1.00  0.00    -0.421 NA 
ATOM     10  C4    A A   1     -10.402  17.579  67.628  1.00  0.00    -0.360 A  
ATOM     11  C2    A A   1     -10.149  19.505  68.699  1.00  0.00    -0.442 A  
ATOM     12  N3    A A   1     -10.351  18.177  68.828  1.00  0.00    -0.327 NA 
ENDROOT
BRANCH   8  13
ATOM     13  C1*   A A   1     -10.816  15.150  68.244  1.00  0.00    -0.262 C  
ATOM     14  O4*   A A   1      -9.580  14.933  68.961  1.00  0.00    -0.213 OA 
ATOM     15  C4*   A A   1      -8.870  13.847  68.319  1.00  0.00    -0.185 C  
ATOM     16  H2*   A A   1     -12.286  12.203  68.370  1.00  0.00     0.000 HD 
ATOM     17  C3*   A A   1      -9.900  13.010  67.559  1.00  0.00    -0.209 C  
ATOM     18  C2*   A A   1     -11.224  13.765  67.723  1.00  0.00    -0.288 C  
ATOM     19  H3*   A A   1     -10.612  11.178  67.653  1.00  0.00     0.000 HD 
ATOM     20  O3*   A A   1      -9.973  11.698  68.125  1.00  0.00    -0.182 OA 
ATOM     21  O2*   A A   1     -12.033  13.060  68.693  1.00  0.00    -0.319 OA 
BRANCH  15  22
ATOM     22  C5*   A A   1      -7.795  14.412  67.378  1.00  0.00    -0.190 C  
ATOM     23  O5*   A A   1      -6.896  13.383  66.976  1.00  0.00    -0.425 OA 
ATOM     24  H5*   A A   1      -6.231  13.733  66.395  1.00  0.00     0.000 HD 
ENDBRANCH  15  22
ENDBRANCH   8  13
TORSDOF 2
ENDMDL
MODEL       44
REMARK 921   NORMALIZED FREE ENERGY PREDICTED BY IDOCK:   -5.47 KCAL/MOL
REMARK 922        TOTAL FREE ENERGY PREDICTED BY IDOCK:   -6.59 KCAL/MOL
REMARK 923 INTER-LIGAND FREE ENERGY PREDICTED BY IDOCK:   -6.21 KCAL/MOL
REMARK 924 INTRA-LIGAND FREE ENERGY PREDICTED BY IDOCK:   -0.38 KCAL/MOL
REMARK 927      BINDING AFFINITY PREDICTED BY RF-SCORE:    0.00 PKD
ROOT
ATOM      1  N6    A A   1     -10.703  15.873  64.700  1.00  0.00    -0.794 NA 
ATOM      2  C6    A A   1     -11.273  14.645  65.003  1.00  0.00    -0.386 A  
ATOM      3  H61   A A   1     -11.081  16.503  63.992  1.00  0.00     0.000 HD 
ATOM      4  H62   A A   1      -9.724  15.705  64.467  1.00  0.00     0.000 HD 
ATOM      5  C5    A A   1     -10.751  13.775  65.979  1.00  0.00    -0.284 A  
ATOM      6  N7    A A   1      -9.652  13.867  66.803  1.00  0.00    -0.273 NA 
ATOM      7  C8    A A   1      -9.658  12.742  67.487  1.00  0.00    -0.192 A  
ATOM      8  N9    A A   1     -10.716  11.930  67.144  1.00  0.00    -0.230 NA 
ATOM      9  N1    A A   1     -12.363  14.251  64.311  1.00  0.00    -0.667 NA 
ATOM     10  C4    A A   1     -11.420  12.572  66.167  1.00  0.00    -0.377 A  
ATOM     11  C2    A A   1     -12.911  13.051  64.595  1.00  0.00    -0.207 A  
ATOM     12  N3    A A   1     -12.501  12.138  65.500  1.00  0.00    -0.393 NA 
ENDROOT
BRANCH   8  13
ATOM     13  C1*   A A   1     -10.921  10.630  67.725  1.00  0.00    -0.306 C  
ATOM     14  O4*   A A   1     -12.214  10.649  68.371  1.00  0.00    -0.372 OA 
ATOM     15  C4*   A A   1     -12.008  10.881  69.786  1.00  0.00    -0.351 C  
ATOM     16  H2*   A A   1      -9.302   8.262  69.348  1.00  0.00     0.000 HD 
ATOM     17  C3*   A A   1     -10.581  10.446  70.121  1.00  0.00    -0.188 C  
ATOM     18  C2*   A A   1      -9.958  10.059  68.775  1.00  0.00    -0.172 C  
ATOM     19  H3*   A A   1      -9.724   9.064  71.230  1.00  0.00     0.000 HD 
ATOM     20  O3*   A A   1     -10.611   9.335  71.021  1.00  0.00    -0.263 OA 
ATOM     21  O2*   A A   1      -9.899   8.615  68.698  1.00  0.00    -0.161 OA 
BRANCH  15  22
ATOM     22  C5*   A A   1     -12.238  12.366  70.108  1.00  0.00    -0.229 C  
ATOM     23  O5*   A A   1     -12.796  12.511  71.410  1.00  0.00    -0.366 OA 
ATOM     24  H5*   A A   1     -12.938  13.429  71.609  1.00  0.00     0.000 HD 
ENDBRANCH  15  22
ENDBRANCH   8  13
TORSDOF 2
ENDMDL
MODEL       45
REMARK 921   NORMALIZED FREE ENERGY PREDICTED BY IDOCK:   -5.45 KCAL/MOL
REMARK 922        TOTAL FREE ENERGY PREDICTED BY IDOCK:   -6.56 KCAL/MOL
REMARK 923 INTER-LIGAND FREE ENERGY PREDICTED BY IDOCK:   -6.16 KCAL/MOL
REMARK 924 INTRA-LIGAND FREE ENERGY PREDICTED BY IDOCK:   -0.40 KCAL/MOL
REMARK 927      BINDING AFFINITY PREDICTED BY RF-SCORE:    0.00 PKD
ROOT
ATOM      1  N6    A A   1      -7.169  11.038  69.739  1.00  0.00    -0.341 NA 
ATOM      2  C6    A A   1      -8.403  10.829  69.138  1.00  0.00    -0.105 A  
ATOM      3  H61   A A   1      -6.713  10.343  70.330  1.00  0.00     0.000 HD 
ATOM      4  H62   A A   1      -7.234  11.902  70.278  1.00  0.00     0.000 HD 
ATOM      5  C5    A A   1      -9.032  11.788  68.322  1.00  0.00    -0.180 A  
ATOM      6  N7    A A   1      -8.664  13.060  67.942  1.00  0.00    -0.179 NA 
ATOM      7  C8    A A   1      -9.660  13.480  67.191  1.00  0.00    -0.241 A  
ATOM      8  N9    A A   1     -10.653  12.534  67.066  1.00  0.00    -0.231 NA 
ATOM      9  N1    A A   1      -9.044   9.665  69.369  1.00  0.00    -0.175 NA 
ATOM     10  C4    A A   1     -10.271  11.447  67.798  1.00  0.00    -0.181 A  
ATOM     11  C2    A A   1     -10.250   9.466  68.797  1.00  0.00    -0.203 A  
ATOM     12  N3    A A   1     -10.947  10.306  68.004  1.00  0.00    -0.283 NA 
ENDROOT
BRANCH   8  13
ATOM     13  C1*   A A   1     -11.864  12.768  66.325  1.00  0.00    -0.423 C  
ATOM     14  O4*   A A   1     -12.095  11.601  65.503  1.00  0.00    -0.195 OA 
ATOM     15  C4*   A A   1     -11.616  11.889  64.167  1.00  0.00    -0.351 C  
ATOM     16  H2*   A A   1     -13.462  15.156  64.711  1.00  0.00     0.000 HD 
ATOM     17  C3*   A A   1     -11.606  13.409  63.999  1.00  0.00    -0.385 C  
ATOM     18  C2*   A A   1     -12.003  13.963  65.372  1.00  0.00    -0.381 C  
ATOM     19  H3*   A A   1     -12.539  14.736  62.885  1.00  0.00     0.000 HD 
ATOM     20  O3*   A A   1     -12.545  13.792  62.990  1.00  0.00    -0.721 OA 
ATOM     21  O2*   A A   1     -13.376  14.416  65.301  1.00  0.00    -0.574 OA 
BRANCH  15  22
ATOM     22  C5*   A A   1     -10.215  11.289  63.976  1.00  0.00    -0.348 C  
ATOM     23  O5*   A A   1      -9.371  12.207  63.289  1.00  0.00    -0.668 OA 
ATOM     24  H5*   A A   1      -8.504  11.836  63.171  1.00  0.00     0.000 HD 
ENDBRANCH  15  22
ENDBRANCH   8  13
TORSDOF 2
ENDMDL
MODEL       46
REMARK 921   NORMALIZED FREE ENERGY PREDICTED BY IDOCK:   -5.44 KCAL/MOL
REMARK 922        TOTAL FREE ENERGY PREDICTED BY IDOCK:   -6.55 KCAL/MOL
REMARK 923 INTER-LIGAND FREE ENERGY PREDICTED BY IDOCK:   -6.33 KCAL/MOL
REMARK 924 INTRA-LIGAND FREE ENERGY PREDICTED BY IDOCK:   -0.22 KCAL/MOL
REMARK 927      BINDING AFFINITY PREDICTED BY RF-SCORE:    0.00 PKD
ROOT
ATOM      1  N6    A A   1     -12.440  11.567  62.729  1.00  0.00    -0.711 NA 
ATOM      2  C6    A A   1     -11.632  11.774  63.837  1.00  0.00    -0.377 A  
ATOM      3  H61   A A   1     -12.238  10.867  62.015  1.00  0.00     0.000 HD 
ATOM      4  H62   A A   1     -12.543  12.465  62.254  1.00  0.00     0.000 HD 
ATOM      5  C5    A A   1     -11.911  12.741  64.822  1.00  0.00    -0.374 A  
ATOM      6  N7    A A   1     -12.928  13.661  64.950  1.00  0.00    -0.719 NA 
ATOM      7  C8    A A   1     -12.651  14.306  66.063  1.00  0.00    -0.309 A  
ATOM      8  N9    A A   1     -11.501  13.841  66.662  1.00  0.00    -0.331 NA 
ATOM      9  N1    A A   1     -10.510  11.035  63.966  1.00  0.00    -0.371 NA 
ATOM     10  C4    A A   1     -11.006  12.845  65.871  1.00  0.00    -0.276 A  
ATOM     11  C2    A A   1      -9.716  11.244  65.036  1.00  0.00    -0.251 A  
ATOM     12  N3    A A   1      -9.878  12.136  66.035  1.00  0.00    -0.240 NA 
ENDROOT
BRANCH   8  13
ATOM     13  C1*   A A   1     -10.967  14.409  67.871  1.00  0.00    -0.262 C  
ATOM     14  O4*   A A   1     -10.433  13.319  68.657  1.00  0.00    -0.251 OA 
ATOM     15  C4*   A A   1     -11.418  12.959  69.656  1.00  0.00    -0.181 C  
ATOM     16  H2*   A A   1     -11.628  16.714  70.131  1.00  0.00     0.000 HD 
ATOM     17  C3*   A A   1     -12.322  14.174  69.871  1.00  0.00    -0.327 C  
ATOM     18  C2*   A A   1     -11.850  15.206  68.841  1.00  0.00    -0.310 C  
ATOM     19  H3*   A A   1     -12.731  15.416  71.341  1.00  0.00     0.000 HD 
ATOM     20  O3*   A A   1     -12.169  14.661  71.207  1.00  0.00    -0.313 OA 
ATOM     21  O2*   A A   1     -11.082  16.220  69.531  1.00  0.00    -0.316 OA 
BRANCH  15  22
ATOM     22  C5*   A A   1     -12.217  11.736  69.181  1.00  0.00    -0.108 C  
ATOM     23  O5*   A A   1     -12.297  10.761  70.217  1.00  0.00    -0.308 OA 
ATOM     24  H5*   A A   1     -12.791  10.005  69.923  1.00  0.00     0.000 HD 
ENDBRANCH  15  22
ENDBRANCH   8  13
TORSDOF 2
ENDMDL
MODEL       47
REMARK 921   NORMALIZED FREE ENERGY PREDICTED BY IDOCK:   -5.44 KCAL/MOL
REMARK 922        TOTAL FREE ENERGY PREDICTED BY IDOCK:   -6.55 KCAL/MOL
REMARK 923 INTER-LIGAND FREE ENERGY PREDICTED BY IDOCK:   -6.42 KCAL/MOL
REMARK 924 INTRA-LIGAND FREE ENERGY PREDICTED BY IDOCK:   -0.13 KCAL/MOL
REMARK 927      BINDING AFFINITY PREDICTED BY RF-SCORE:    0.00 PKD
ROOT
ATOM      1  N6    A A   1     -10.879   7.927  66.896  1.00  0.00    -0.453 NA 
ATOM      2  C6    A A   1     -10.374   9.180  66.580  1.00  0.00    -0.199 A  
ATOM      3  H61   A A   1     -10.555   7.068  66.451  1.00  0.00     0.000 HD 
ATOM      4  H62   A A   1     -11.892   7.968  66.778  1.00  0.00     0.000 HD 
ATOM      5  C5    A A   1     -10.821  10.365  67.193  1.00  0.00    -0.238 A  
ATOM      6  N7    A A   1     -11.781  10.602  68.152  1.00  0.00    -0.466 NA 
ATOM      7  C8    A A   1     -11.770  11.908  68.314  1.00  0.00    -0.321 A  
ATOM      8  N9    A A   1     -10.842  12.526  67.504  1.00  0.00    -0.227 NA 
ATOM      9  N1    A A   1      -9.430   9.273  65.620  1.00  0.00    -0.258 NA 
ATOM     10  C4    A A   1     -10.234  11.550  66.769  1.00  0.00    -0.219 A  
ATOM     11  C2    A A   1      -8.948  10.492  65.303  1.00  0.00    -0.189 A  
ATOM     12  N3    A A   1      -9.298  11.689  65.817  1.00  0.00    -0.226 NA 
ENDROOT
BRANCH   8  13
ATOM     13  C1*   A A   1     -10.664  13.953  67.470  1.00  0.00    -0.267 C  
ATOM     14  O4*   A A   1     -11.922  14.531  67.054  1.00  0.00    -0.404 OA 
ATOM     15  C4*   A A   1     -11.838  14.821  65.637  1.00  0.00    -0.212 C  
ATOM     16  H2*   A A   1      -8.457  16.241  66.601  1.00  0.00     0.000 HD 
ATOM     17  C3*   A A   1     -10.357  14.955  65.281  1.00  0.00    -0.396 C  
ATOM     18  C2*   A A   1      -9.606  14.608  66.571  1.00  0.00    -0.289 C  
ATOM     19  H3*   A A   1      -9.159  16.377  64.638  1.00  0.00     0.000 HD 
ATOM     20  O3*   A A   1     -10.079  16.293  64.859  1.00  0.00    -0.412 OA 
ATOM     21  O2*   A A   1      -9.113  15.835  67.157  1.00  0.00    -0.200 OA 
BRANCH  15  22
ATOM     22  C5*   A A   1     -12.514  13.698  64.836  1.00  0.00    -0.384 C  
ATOM     23  O5*   A A   1     -12.394  13.943  63.438  1.00  0.00    -1.063 OA 
ATOM     24  H5*   A A   1     -12.812  13.249  62.943  1.00  0.00     0.000 HD 
ENDBRANCH  15  22
ENDBRANCH   8  13
TORSDOF 2
ENDMDL
MODEL       48
REMARK 921   NORMALIZED FREE ENERGY PREDICTED BY IDOCK:   -5.43 KCAL/MOL
REMARK 922        TOTAL FREE ENERGY PREDICTED BY IDOCK:   -6.53 KCAL/MOL
REMARK 923 INTER-LIGAND FREE ENERGY PREDICTED BY IDOCK:   -6.58 KCAL/MOL
REMARK 924 INTRA-LIGAND FREE ENERGY PREDICTED BY IDOCK:    0.05 KCAL/MOL
REMARK 927      BINDING AFFINITY PREDICTED BY RF-SCORE:    0.00 PKD
ROOT
ATOM      1  N6    A A   1      -7.621  18.646  68.782  1.00  0.00    -0.310 NA 
ATOM      2  C6    A A   1      -8.699  17.819  68.498  1.00  0.00    -0.283 A  
ATOM      3  H61   A A   1      -7.723  19.565  69.212  1.00  0.00     0.000 HD 
ATOM      4  H62   A A   1      -7.096  18.772  67.916  1.00  0.00     0.000 HD 
ATOM      5  C5    A A   1      -8.558  16.551  67.903  1.00  0.00    -0.183 A  
ATOM      6  N7    A A   1      -7.453  15.854  67.468  1.00  0.00    -0.151 NA 
ATOM      7  C8    A A   1      -7.941  14.732  66.984  1.00  0.00    -0.104 A  
ATOM      8  N9    A A   1      -9.313  14.672  67.090  1.00  0.00    -0.214 NA 
ATOM      9  N1    A A   1      -9.943  18.261  68.777  1.00  0.00    -0.376 NA 
ATOM     10  C4    A A   1      -9.726  15.838  67.666  1.00  0.00    -0.222 A  
ATOM     11  C2    A A   1     -10.992  17.463  68.489  1.00  0.00    -0.072 A  
ATOM     12  N3    A A   1     -10.981  16.239  67.922  1.00  0.00    -0.333 NA 
ENDROOT
BRANCH   8  13
ATOM     13  C1*   A A   1     -10.086  13.563  66.597  1.00  0.00    -0.277 C  
ATOM     14  O4*   A A   1     -10.065  13.634  65.154  1.00  0.00    -0.324 OA 
ATOM     15  C4*   A A   1     -11.298  14.256  64.715  1.00  0.00    -0.382 C  
ATOM     16  H2*   A A   1     -12.848  11.880  67.230  1.00  0.00     0.000 HD 
ATOM     17  C3*   A A   1     -12.332  14.062  65.825  1.00  0.00    -0.480 C  
ATOM     18  C2*   A A   1     -11.565  13.388  66.968  1.00  0.00    -0.356 C  
ATOM     19  H3*   A A   1     -14.043  13.116  66.043  1.00  0.00     0.000 HD 
ATOM     20  O3*   A A   1     -13.400  13.237  65.354  1.00  0.00    -0.496 OA 
ATOM     21  O2*   A A   1     -11.933  11.989  67.000  1.00  0.00    -0.609 OA 
BRANCH  15  22
ATOM     22  C5*   A A   1     -11.053  15.744  64.423  1.00  0.00    -0.157 C  
ATOM     23  O5*   A A   1     -12.140  16.291  63.683  1.00  0.00    -1.254 OA 
ATOM     24  H5*   A A   1     -11.989  17.211  63.501  1.00  0.00     0.000 HD 
ENDBRANCH  15  22
ENDBRANCH   8  13
TORSDOF 2
ENDMDL
MODEL       49
REMARK 921   NORMALIZED FREE ENERGY PREDICTED BY IDOCK:   -5.42 KCAL/MOL
REMARK 922        TOTAL FREE ENERGY PREDICTED BY IDOCK:   -6.53 KCAL/MOL
REMARK 923 INTER-LIGAND FREE ENERGY PREDICTED BY IDOCK:   -6.12 KCAL/MOL
REMARK 924 INTRA-LIGAND FREE ENERGY PREDICTED BY IDOCK:   -0.41 KCAL/MOL
REMARK 927      BINDING AFFINITY PREDICTED BY RF-SCORE:    0.00 PKD
ROOT
ATOM      1  N6    A A   1     -12.293  12.250  70.851  1.00  0.00    -0.366 NA 
ATOM      2  C6    A A   1     -12.044  13.427  70.159  1.00  0.00    -0.344 A  
ATOM      3  H61   A A   1     -12.594  12.230  71.826  1.00  0.00     0.000 HD 
ATOM      4  H62   A A   1     -11.455  11.671  70.779  1.00  0.00     0.000 HD 
ATOM      5  C5    A A   1     -11.629  13.453  68.815  1.00  0.00    -0.325 A  
ATOM      6  N7    A A   1     -11.362  12.449  67.911  1.00  0.00    -0.268 NA 
ATOM      7  C8    A A   1     -10.994  13.080  66.816  1.00  0.00    -0.276 A  
ATOM      8  N9    A A   1     -11.013  14.448  66.972  1.00  0.00    -0.298 NA 
ATOM      9  N1    A A   1     -12.180  14.600  70.811  1.00  0.00    -0.301 NA 
ATOM     10  C4    A A   1     -11.406  14.705  68.254  1.00  0.00    -0.297 A  
ATOM     11  C2    A A   1     -11.926  15.745  70.143  1.00  0.00    -0.347 A  
ATOM     12  N3    A A   1     -11.522  15.894  68.864  1.00  0.00    -0.371 NA 
ENDROOT
BRANCH   8  13
ATOM     13  C1*   A A   1     -10.615  15.357  65.930  1.00  0.00    -0.339 C  
ATOM     14  O4*   A A   1      -9.239  15.060  65.605  1.00  0.00    -0.170 OA 
ATOM     15  C4*   A A   1      -8.395  16.012  66.299  1.00  0.00    -0.252 C  
ATOM     16  H2*   A A   1     -10.945  18.504  65.009  1.00  0.00     0.000 HD 
ATOM     17  C3*   A A   1      -9.247  17.246  66.601  1.00  0.00    -0.257 C  
ATOM     18  C2*   A A   1     -10.659  16.878  66.132  1.00  0.00    -0.194 C  
ATOM     19  H3*   A A   1      -9.265  19.141  66.075  1.00  0.00     0.000 HD 
ATOM     20  O3*   A A   1      -8.736  18.375  65.887  1.00  0.00    -0.497 OA 
ATOM     21  O2*   A A   1     -10.918  17.563  64.884  1.00  0.00    -0.887 OA 
BRANCH  15  22
ATOM     22  C5*   A A   1      -7.842  15.376  67.583  1.00  0.00    -0.157 C  
ATOM     23  O5*   A A   1      -8.525  15.887  68.724  1.00  0.00    -0.177 OA 
ATOM     24  H5*   A A   1      -8.183  15.494  69.518  1.00  0.00     0.000 HD 
ENDBRANCH  15  22
ENDBRANCH   8  13
TORSDOF 2
ENDMDL
MODEL       50
REMARK 921   NORMALIZED FREE ENERGY PREDICTED BY IDOCK:   -5.38 KCAL/MOL
REMARK 922        TOTAL FREE ENERGY PREDICTED BY IDOCK:   -6.48 KCAL/MOL
REMARK 923 INTER-LIGAND FREE ENERGY PREDICTED BY IDOCK:   -6.41 KCAL/MOL
REMARK 924 INTRA-LIGAND FREE ENERGY PREDICTED BY IDOCK:   -0.07 KCAL/MOL
REMARK 927      BINDING AFFINITY PREDICTED BY RF-SCORE:    0.00 PKD
ROOT
ATOM      1  N6    A A   1     -14.303  15.180  72.260  1.00  0.00    -0.509 NA 
ATOM      2  C6    A A   1     -13.522  14.196  71.669  1.00  0.00    -0.369 A  
ATOM      3  H61   A A   1     -14.956  14.990  73.021  1.00  0.00     0.000 HD 
ATOM      4  H62   A A   1     -14.829  15.639  71.515  1.00  0.00     0.000 HD 
ATOM      5  C5    A A   1     -12.622  14.458  70.619  1.00  0.00    -0.357 A  
ATOM      6  N7    A A   1     -12.305  15.615  69.942  1.00  0.00    -0.311 NA 
ATOM      7  C8    A A   1     -11.412  15.241  69.051  1.00  0.00    -0.324 A  
ATOM      8  N9    A A   1     -11.135  13.894  69.124  1.00  0.00    -0.252 NA 
ATOM      9  N1    A A   1     -13.649  12.924  72.101  1.00  0.00    -0.536 NA 
ATOM     10  C4    A A   1     -11.914  13.374  70.117  1.00  0.00    -0.326 A  
ATOM     11  C2    A A   1     -12.900  11.965  71.519  1.00  0.00    -0.316 A  
ATOM     12  N3    A A   1     -12.013  12.095  70.512  1.00  0.00    -0.298 NA 
ENDROOT
BRANCH   8  13
ATOM     13  C1*   A A   1     -10.220  13.236  68.230  1.00  0.00    -0.250 C  
ATOM     14  O4*   A A   1     -10.258  13.952  66.975  1.00  0.00    -0.250 OA 
ATOM     15  C4*   A A   1     -11.133  13.234  66.072  1.00  0.00    -0.283 C  
ATOM     16  H2*   A A   1      -9.214  10.224  67.349  1.00  0.00     0.000 HD 
ATOM     17  C3*   A A   1     -11.198  11.783  66.551  1.00  0.00    -0.321 C  
ATOM     18  C2*   A A   1     -10.389  11.758  67.852  1.00  0.00    -0.193 C  
ATOM     19  H3*   A A   1     -10.665  10.019  65.861  1.00  0.00     0.000 HD 
ATOM     20  O3*   A A   1     -10.625  10.921  65.564  1.00  0.00    -0.243 OA 
ATOM     21  O2*   A A   1      -9.110  11.139  67.583  1.00  0.00    -0.144 OA 
BRANCH  15  22
ATOM     22  C5*   A A   1     -12.523  13.890  66.064  1.00  0.00    -0.461 C  
ATOM     23  O5*   A A   1     -12.904  14.229  64.734  1.00  0.00    -0.671 OA 
ATOM     24  H5*   A A   1     -13.762  14.634  64.729  1.00  0.00     0.000 HD 
ENDBRANCH  15  22
ENDBRANCH   8  13
TORSDOF 2
ENDMDL
MODEL       51
REMARK 921   NORMALIZED FREE ENERGY PREDICTED BY IDOCK:   -5.38 KCAL/MOL
REMARK 922        TOTAL FREE ENERGY PREDICTED BY IDOCK:   -6.48 KCAL/MOL
REMARK 923 INTER-LIGAND FREE ENERGY PREDICTED BY IDOCK:   -6.08 KCAL/MOL
REMARK 924 INTRA-LIGAND FREE ENERGY PREDICTED BY IDOCK:   -0.40 KCAL/MOL
REMARK 927      BINDING AFFINITY PREDICTED BY RF-SCORE:    0.00 PKD
ROOT
ATOM      1  N6    A A   1     -13.137  12.184  71.561  1.00  0.00    -0.344 NA 
ATOM      2  C6    A A   1     -12.711  13.489  71.355  1.00  0.00    -0.336 A  
ATOM      3  H61   A A   1     -13.454  11.838  72.467  1.00  0.00     0.000 HD 
ATOM      4  H62   A A   1     -12.390  11.566  71.243  1.00  0.00     0.000 HD 
ATOM      5  C5    A A   1     -12.274  13.965  70.105  1.00  0.00    -0.358 A  
ATOM      6  N7    A A   1     -12.140  13.352  68.879  1.00  0.00    -0.309 NA 
ATOM      7  C8    A A   1     -11.666  14.293  68.090  1.00  0.00    -0.350 A  
ATOM      8  N9    A A   1     -11.492  15.489  68.751  1.00  0.00    -0.335 NA 
ATOM      9  N1    A A   1     -12.688  14.334  72.406  1.00  0.00    -0.315 NA 
ATOM     10  C4    A A   1     -11.865  15.292  70.049  1.00  0.00    -0.334 A  
ATOM     11  C2    A A   1     -12.262  15.599  72.210  1.00  0.00    -0.439 A  
ATOM     12  N3    A A   1     -11.821  16.165  71.067  1.00  0.00    -0.386 NA 
ENDROOT
BRANCH   8  13
ATOM     13  C1*   A A   1     -10.952  16.660  68.114  1.00  0.00    -0.327 C  
ATOM     14  O4*   A A   1      -9.992  16.210  67.132  1.00  0.00    -0.242 OA 
ATOM     15  C4*   A A   1      -8.668  16.321  67.711  1.00  0.00    -0.179 C  
ATOM     16  H2*   A A   1      -9.942  19.720  68.808  1.00  0.00     0.000 HD 
ATOM     17  C3*   A A   1      -8.741  17.362  68.830  1.00  0.00    -0.223 C  
ATOM     18  C2*   A A   1     -10.222  17.746  68.918  1.00  0.00    -0.345 C  
ATOM     19  H3*   A A   1      -7.973  19.136  69.191  1.00  0.00     0.000 HD 
ATOM     20  O3*   A A   1      -7.928  18.490  68.496  1.00  0.00    -0.308 OA 
ATOM     21  O2*   A A   1     -10.393  19.048  68.310  1.00  0.00    -0.373 OA 
BRANCH  15  22
ATOM     22  C5*   A A   1      -8.215  14.952  68.240  1.00  0.00    -0.145 C  
ATOM     23  O5*   A A   1      -8.420  14.870  69.647  1.00  0.00    -0.427 OA 
ATOM     24  H5*   A A   1      -8.139  14.024  69.974  1.00  0.00     0.000 HD 
ENDBRANCH  15  22
ENDBRANCH   8  13
TORSDOF 2
ENDMDL
MODEL       52
REMARK 921   NORMALIZED FREE ENERGY PREDICTED BY IDOCK:   -5.29 KCAL/MOL
REMARK 922        TOTAL FREE ENERGY PREDICTED BY IDOCK:   -6.39 KCAL/MOL
REMARK 923 INTER-LIGAND FREE ENERGY PREDICTED BY IDOCK:   -6.26 KCAL/MOL
REMARK 924 INTRA-LIGAND FREE ENERGY PREDICTED BY IDOCK:   -0.12 KCAL/MOL
REMARK 927      BINDING AFFINITY PREDICTED BY RF-SCORE:    0.00 PKD
ROOT
ATOM      1  N6    A A   1     -10.829  11.125  62.953  1.00  0.00    -0.806 NA 
ATOM      2  C6    A A   1     -11.047  12.277  63.695  1.00  0.00    -0.469 A  
ATOM      3  H61   A A   1     -11.312  10.927  62.077  1.00  0.00     0.000 HD 
ATOM      4  H62   A A   1     -10.984  10.329  63.573  1.00  0.00     0.000 HD 
ATOM      5  C5    A A   1     -10.380  12.550  64.904  1.00  0.00    -0.300 A  
ATOM      6  N7    A A   1      -9.448  11.837  65.625  1.00  0.00    -0.221 NA 
ATOM      7  C8    A A   1      -9.206  12.584  66.681  1.00  0.00    -0.223 A  
ATOM      8  N9    A A   1      -9.939  13.751  66.673  1.00  0.00    -0.272 NA 
ATOM      9  N1    A A   1     -11.960  13.166  63.253  1.00  0.00    -0.507 NA 
ATOM     10  C4    A A   1     -10.708  13.738  65.545  1.00  0.00    -0.302 A  
ATOM     11  C2    A A   1     -12.183  14.281  63.980  1.00  0.00    -0.299 A  
ATOM     12  N3    A A   1     -11.611  14.646  65.146  1.00  0.00    -0.362 NA 
ENDROOT
BRANCH   8  13
ATOM     13  C1*   A A   1      -9.878  14.717  67.737  1.00  0.00    -0.216 C  
ATOM     14  O4*   A A   1      -9.769  13.982  68.977  1.00  0.00    -0.098 OA 
ATOM     15  C4*   A A   1     -11.087  13.903  69.572  1.00  0.00    -0.128 C  
ATOM     16  H2*   A A   1     -11.204  17.585  68.675  1.00  0.00     0.000 HD 
ATOM     17  C3*   A A   1     -11.917  15.058  69.009  1.00  0.00    -0.264 C  
ATOM     18  C2*   A A   1     -11.011  15.726  67.969  1.00  0.00    -0.330 C  
ATOM     19  H3*   A A   1     -12.777  16.682  69.711  1.00  0.00     0.000 HD 
ATOM     20  O3*   A A   1     -12.262  15.964  70.061  1.00  0.00    -0.325 OA 
ATOM     21  O2*   A A   1     -10.503  16.959  68.531  1.00  0.00    -0.316 OA 
BRANCH  15  22
ATOM     22  C5*   A A   1     -11.722  12.541  69.251  1.00  0.00    -0.321 C  
ATOM     23  O5*   A A   1     -11.533  11.637  70.335  1.00  0.00    -0.501 OA 
ATOM     24  H5*   A A   1     -11.925  10.795  70.136  1.00  0.00     0.000 HD 
ENDBRANCH  15  22
ENDBRANCH   8  13
TORSDOF 2
ENDMDL
MODEL       53
REMARK 921   NORMALIZED FREE ENERGY PREDICTED BY IDOCK:   -5.28 KCAL/MOL
REMARK 922        TOTAL FREE ENERGY PREDICTED BY IDOCK:   -6.37 KCAL/MOL
REMARK 923 INTER-LIGAND FREE ENERGY PREDICTED BY IDOCK:   -5.75 KCAL/MOL
REMARK 924 INTRA-LIGAND FREE ENERGY PREDICTED BY IDOCK:   -0.63 KCAL/MOL
REMARK 927      BINDING AFFINITY PREDICTED BY RF-SCORE:    0.00 PKD
ROOT
ATOM      1  N6    A A   1     -12.348  14.340  63.429  1.00  0.00    -1.126 NA 
ATOM      2  C6    A A   1     -12.147  13.670  64.628  1.00  0.00    -0.412 A  
ATOM      3  H61   A A   1     -12.848  15.226  63.363  1.00  0.00     0.000 HD 
ATOM      4  H62   A A   1     -12.799  13.687  62.787  1.00  0.00     0.000 HD 
ATOM      5  C5    A A   1     -11.457  12.447  64.718  1.00  0.00    -0.325 A  
ATOM      6  N7    A A   1     -10.868  11.647  63.764  1.00  0.00    -0.391 NA 
ATOM      7  C8    A A   1     -10.396  10.621  64.440  1.00  0.00    -0.276 A  
ATOM      8  N9    A A   1     -10.650  10.725  65.790  1.00  0.00    -0.182 NA 
ATOM      9  N1    A A   1     -12.661  14.201  65.757  1.00  0.00    -0.486 NA 
ATOM     10  C4    A A   1     -11.343  11.885  65.984  1.00  0.00    -0.316 A  
ATOM     11  C2    A A   1     -12.478  13.544  66.922  1.00  0.00    -0.110 A  
ATOM     12  N3    A A   1     -11.841  12.373  67.130  1.00  0.00    -0.534 NA 
ENDROOT
BRANCH   8  13
ATOM     13  C1*   A A   1     -10.267   9.711  66.736  1.00  0.00    -0.239 C  
ATOM     14  O4*   A A   1      -9.300  10.305  67.632  1.00  0.00    -0.144 OA 
ATOM     15  C4*   A A   1      -7.977   9.920  67.188  1.00  0.00    -0.109 C  
ATOM     16  H2*   A A   1      -9.575   6.493  66.907  1.00  0.00     0.000 HD 
ATOM     17  C3*   A A   1      -8.122   8.638  66.367  1.00  0.00    -0.100 C  
ATOM     18  C2*   A A   1      -9.632   8.389  66.283  1.00  0.00    -0.216 C  
ATOM     19  H3*   A A   1      -7.541   6.764  66.517  1.00  0.00     0.000 HD 
ATOM     20  O3*   A A   1      -7.451   7.561  67.027  1.00  0.00    -0.094 OA 
ATOM     21  O2*   A A   1      -9.968   7.312  67.188  1.00  0.00    -0.178 OA 
BRANCH  15  22
ATOM     22  C5*   A A   1      -7.355  11.055  66.360  1.00  0.00    -0.128 C  
ATOM     23  O5*   A A   1      -8.003  12.291  66.646  1.00  0.00    -0.381 OA 
ATOM     24  H5*   A A   1      -7.620  12.993  66.134  1.00  0.00     0.000 HD 
ENDBRANCH  15  22
ENDBRANCH   8  13
TORSDOF 2
ENDMDL
MODEL       54
REMARK 921   NORMALIZED FREE ENERGY PREDICTED BY IDOCK:   -5.28 KCAL/MOL
REMARK 922        TOTAL FREE ENERGY PREDICTED BY IDOCK:   -6.37 KCAL/MOL
REMARK 923 INTER-LIGAND FREE ENERGY PREDICTED BY IDOCK:   -5.75 KCAL/MOL
REMARK 924 INTRA-LIGAND FREE ENERGY PREDICTED BY IDOCK:   -0.62 KCAL/MOL
REMARK 927      BINDING AFFINITY PREDICTED BY RF-SCORE:    0.00 PKD
ROOT
ATOM      1  N6    A A   1     -12.784  15.487  63.713  1.00  0.00    -0.634 NA 
ATOM      2  C6    A A   1     -11.964  14.673  64.481  1.00  0.00    -0.460 A  
ATOM      3  H61   A A   1     -13.604  15.139  63.214  1.00  0.00     0.000 HD 
ATOM      4  H62   A A   1     -12.191  15.961  63.031  1.00  0.00     0.000 HD 
ATOM      5  C5    A A   1     -10.833  15.153  65.169  1.00  0.00    -0.422 A  
ATOM      6  N7    A A   1     -10.269  16.406  65.256  1.00  0.00    -0.589 NA 
ATOM      7  C8    A A   1      -9.214  16.240  66.025  1.00  0.00    -0.316 A  
ATOM      8  N9    A A   1      -9.073  14.935  66.441  1.00  0.00    -0.278 NA 
ATOM      9  N1    A A   1     -12.245  13.355  64.552  1.00  0.00    -0.473 NA 
ATOM     10  C4    A A   1     -10.097  14.221  65.889  1.00  0.00    -0.326 A  
ATOM     11  C2    A A   1     -11.440  12.561  65.288  1.00  0.00    -0.333 A  
ATOM     12  N3    A A   1     -10.336  12.904  65.983  1.00  0.00    -0.277 NA 
ENDROOT
BRANCH   8  13
ATOM     13  C1*   A A   1      -7.977  14.492  67.260  1.00  0.00    -0.191 C  
ATOM     14  O4*   A A   1      -8.541  13.964  68.482  1.00  0.00    -0.172 OA 
ATOM     15  C4*   A A   1      -8.451  14.990  69.501  1.00  0.00    -0.084 C  
ATOM     16  H2*   A A   1      -4.927  15.365  68.154  1.00  0.00     0.000 HD 
ATOM     17  C3*   A A   1      -7.332  15.948  69.091  1.00  0.00    -0.198 C  
ATOM     18  C2*   A A   1      -6.873  15.457  67.714  1.00  0.00    -0.167 C  
ATOM     19  H3*   A A   1      -5.574  16.486  69.794  1.00  0.00     0.000 HD 
ATOM     20  O3*   A A   1      -6.270  15.890  70.048  1.00  0.00    -0.174 OA 
ATOM     21  O2*   A A   1      -5.611  14.767  67.874  1.00  0.00    -0.148 OA 
BRANCH  15  22
ATOM     22  C5*   A A   1      -9.800  15.716  69.628  1.00  0.00    -0.280 C  
ATOM     23  O5*   A A   1     -10.842  14.930  69.057  1.00  0.00    -0.228 OA 
ATOM     24  H5*   A A   1     -11.675  15.379  69.136  1.00  0.00     0.000 HD 
ENDBRANCH  15  22
ENDBRANCH   8  13
TORSDOF 2
ENDMDL
MODEL       55
REMARK 921   NORMALIZED FREE ENERGY PREDICTED BY IDOCK:   -5.23 KCAL/MOL
REMARK 922        TOTAL FREE ENERGY PREDICTED BY IDOCK:   -6.31 KCAL/MOL
REMARK 923 INTER-LIGAND FREE ENERGY PREDICTED BY IDOCK:   -5.94 KCAL/MOL
REMARK 924 INTRA-LIGAND FREE ENERGY PREDICTED BY IDOCK:   -0.37 KCAL/MOL
REMARK 927      BINDING AFFINITY PREDICTED BY RF-SCORE:    0.00 PKD
ROOT
ATOM      1  N6    A A   1     -14.164   8.778  73.145  1.00  0.00    -1.172 NA 
ATOM      2  C6    A A   1     -13.209   9.244  72.252  1.00  0.00    -0.460 A  
ATOM      3  H61   A A   1     -14.931   9.354  73.491  1.00  0.00     0.000 HD 
ATOM      4  H62   A A   1     -13.667   8.412  73.958  1.00  0.00     0.000 HD 
ATOM      5  C5    A A   1     -12.150   8.449  71.776  1.00  0.00    -0.328 A  
ATOM      6  N7    A A   1     -11.784   7.146  72.036  1.00  0.00    -0.280 NA 
ATOM      7  C8    A A   1     -10.698   6.959  71.317  1.00  0.00    -0.223 A  
ATOM      8  N9    A A   1     -10.348   8.082  70.600  1.00  0.00    -0.200 NA 
ATOM      9  N1    A A   1     -13.282  10.527  71.841  1.00  0.00    -0.452 NA 
ATOM     10  C4    A A   1     -11.262   9.052  70.894  1.00  0.00    -0.287 A  
ATOM     11  C2    A A   1     -12.347  10.985  70.983  1.00  0.00    -0.385 A  
ATOM     12  N3    A A   1     -11.293  10.323  70.463  1.00  0.00    -0.323 NA 
ENDROOT
BRANCH   8  13
ATOM     13  C1*   A A   1      -9.177   8.141  69.767  1.00  0.00    -0.151 C  
ATOM     14  O4*   A A   1      -9.623   8.417  68.420  1.00  0.00    -0.145 OA 
ATOM     15  C4*   A A   1      -9.669   7.164  67.694  1.00  0.00    -0.143 C  
ATOM     16  H2*   A A   1      -6.278   6.642  69.308  1.00  0.00     0.000 HD 
ATOM     17  C3*   A A   1      -8.721   6.191  68.396  1.00  0.00    -0.115 C  
ATOM     18  C2*   A A   1      -8.224   6.945  69.635  1.00  0.00    -0.131 C  
ATOM     19  H3*   A A   1      -7.051   5.247  67.959  1.00  0.00     0.000 HD 
ATOM     20  O3*   A A   1      -7.640   5.852  67.523  1.00  0.00    -0.090 OA 
ATOM     21  O2*   A A   1      -6.868   7.383  69.389  1.00  0.00    -0.050 OA 
BRANCH  15  22
ATOM     22  C5*   A A   1     -11.109   6.631  67.667  1.00  0.00    -0.271 C  
ATOM     23  O5*   A A   1     -11.365   5.952  66.442  1.00  0.00    -0.730 OA 
ATOM     24  H5*   A A   1     -12.255   5.622  66.425  1.00  0.00     0.000 HD 
ENDBRANCH  15  22
ENDBRANCH   8  13
TORSDOF 2
ENDMDL
MODEL       56
REMARK 921   NORMALIZED FREE ENERGY PREDICTED BY IDOCK:   -5.22 KCAL/MOL
REMARK 922        TOTAL FREE ENERGY PREDICTED BY IDOCK:   -6.30 KCAL/MOL
REMARK 923 INTER-LIGAND FREE ENERGY PREDICTED BY IDOCK:   -5.74 KCAL/MOL
REMARK 924 INTRA-LIGAND FREE ENERGY PREDICTED BY IDOCK:   -0.56 KCAL/MOL
REMARK 927      BINDING AFFINITY PREDICTED BY RF-SCORE:    0.00 PKD
ROOT
ATOM      1  N6    A A   1      -7.039  19.176  68.894  1.00  0.00    -0.326 NA 
ATOM      2  C6    A A   1      -8.267  18.700  68.457  1.00  0.00    -0.341 A  
ATOM      3  H61   A A   1      -6.887  20.143  69.181  1.00  0.00     0.000 HD 
ATOM      4  H62   A A   1      -6.354  18.962  68.168  1.00  0.00     0.000 HD 
ATOM      5  C5    A A   1      -8.477  17.366  68.061  1.00  0.00    -0.235 A  
ATOM      6  N7    A A   1      -7.630  16.282  67.982  1.00  0.00    -0.134 NA 
ATOM      7  C8    A A   1      -8.385  15.306  67.525  1.00  0.00    -0.175 A  
ATOM      8  N9    A A   1      -9.684  15.710  67.309  1.00  0.00    -0.218 NA 
ATOM      9  N1    A A   1      -9.303  19.561  68.381  1.00  0.00    -0.355 NA 
ATOM     10  C4    A A   1      -9.757  17.034  67.635  1.00  0.00    -0.257 A  
ATOM     11  C2    A A   1     -10.495  19.103  67.944  1.00  0.00    -0.399 A  
ATOM     12  N3    A A   1     -10.813  17.856  67.538  1.00  0.00    -0.313 NA 
ENDROOT
BRANCH   8  13
ATOM     13  C1*   A A   1     -10.694  14.835  66.775  1.00  0.00    -0.309 C  
ATOM     14  O4*   A A   1     -11.907  15.074  67.525  1.00  0.00    -0.320 OA 
ATOM     15  C4*   A A   1     -12.022  14.045  68.537  1.00  0.00    -0.348 C  
ATOM     16  H2*   A A   1     -11.094  11.761  65.657  1.00  0.00     0.000 HD 
ATOM     17  C3*   A A   1     -11.198  12.844  68.069  1.00  0.00    -0.268 C  
ATOM     18  C2*   A A   1     -10.518  13.310  66.777  1.00  0.00    -0.270 C  
ATOM     19  H3*   A A   1     -11.548  10.982  67.541  1.00  0.00     0.000 HD 
ATOM     20  O3*   A A   1     -12.060  11.728  67.832  1.00  0.00    -0.592 OA 
ATOM     21  O2*   A A   1     -11.203  12.705  65.656  1.00  0.00    -0.290 OA 
BRANCH  15  22
ATOM     22  C5*   A A   1     -11.521  14.583  69.886  1.00  0.00    -0.270 C  
ATOM     23  O5*   A A   1     -11.647  16.001  69.932  1.00  0.00    -0.324 OA 
ATOM     24  H5*   A A   1     -11.337  16.334  70.766  1.00  0.00     0.000 HD 
ENDBRANCH  15  22
ENDBRANCH   8  13
TORSDOF 2
ENDMDL
MODEL       57
REMARK 921   NORMALIZED FREE ENERGY PREDICTED BY IDOCK:   -5.22 KCAL/MOL
REMARK 922        TOTAL FREE ENERGY PREDICTED BY IDOCK:   -6.30 KCAL/MOL
REMARK 923 INTER-LIGAND FREE ENERGY PREDICTED BY IDOCK:   -5.97 KCAL/MOL
REMARK 924 INTRA-LIGAND FREE ENERGY PREDICTED BY IDOCK:   -0.32 KCAL/MOL
REMARK 927      BINDING AFFINITY PREDICTED BY RF-SCORE:    0.00 PKD
ROOT
ATOM      1  N6    A A   1      -7.719   9.277  67.263  1.00  0.00    -0.095 NA 
ATOM      2  C6    A A   1      -7.933  10.648  67.252  1.00  0.00    -0.116 A  
ATOM      3  H61   A A   1      -6.796   8.858  67.380  1.00  0.00     0.000 HD 
ATOM      4  H62   A A   1      -8.119   8.900  66.403  1.00  0.00     0.000 HD 
ATOM      5  C5    A A   1      -9.206  11.226  67.091  1.00  0.00    -0.163 A  
ATOM      6  N7    A A   1     -10.454  10.672  66.903  1.00  0.00    -0.240 NA 
ATOM      7  C8    A A   1     -11.260  11.707  66.797  1.00  0.00    -0.308 A  
ATOM      8  N9    A A   1     -10.590  12.904  66.913  1.00  0.00    -0.252 NA 
ATOM      9  N1    A A   1      -6.869  11.469  67.374  1.00  0.00    -0.094 NA 
ATOM     10  C4    A A   1      -9.268  12.613  67.089  1.00  0.00    -0.214 A  
ATOM     11  C2    A A   1      -7.073  12.802  67.350  1.00  0.00    -0.132 A  
ATOM     12  N3    A A   1      -8.238  13.466  67.201  1.00  0.00    -0.151 NA 
ENDROOT
BRANCH   8  13
ATOM     13  C1*   A A   1     -11.246  14.179  66.795  1.00  0.00    -0.323 C  
ATOM     14  O4*   A A   1     -12.375  14.000  65.910  1.00  0.00    -0.444 OA 
ATOM     15  C4*   A A   1     -11.989  14.452  64.589  1.00  0.00    -0.464 C  
ATOM     16  H2*   A A   1     -10.572  17.393  66.516  1.00  0.00     0.000 HD 
ATOM     17  C3*   A A   1     -10.827  15.432  64.759  1.00  0.00    -0.364 C  
ATOM     18  C2*   A A   1     -10.509  15.414  66.258  1.00  0.00    -0.303 C  
ATOM     19  H3*   A A   1     -10.502  17.344  64.429  1.00  0.00     0.000 HD 
ATOM     20  O3*   A A   1     -11.224  16.735  64.324  1.00  0.00    -1.163 OA 
ATOM     21  O2*   A A   1     -11.028  16.629  66.848  1.00  0.00    -0.132 OA 
BRANCH  15  22
ATOM     22  C5*   A A   1     -11.591  13.246  63.724  1.00  0.00    -0.375 C  
ATOM     23  O5*   A A   1     -10.191  13.005  63.821  1.00  0.00    -0.642 OA 
ATOM     24  H5*   A A   1      -9.945  12.260  63.286  1.00  0.00     0.000 HD 
ENDBRANCH  15  22
ENDBRANCH   8  13
TORSDOF 2
ENDMDL
MODEL       58
REMARK 921   NORMALIZED FREE ENERGY PREDICTED BY IDOCK:   -5.21 KCAL/MOL
REMARK 922        TOTAL FREE ENERGY PREDICTED BY IDOCK:   -6.29 KCAL/MOL
REMARK 923 INTER-LIGAND FREE ENERGY PREDICTED BY IDOCK:   -6.08 KCAL/MOL
REMARK 924 INTRA-LIGAND FREE ENERGY PREDICTED BY IDOCK:   -0.21 KCAL/MOL
REMARK 927      BINDING AFFINITY PREDICTED BY RF-SCORE:    0.00 PKD
ROOT
ATOM      1  N6    A A   1     -10.980  11.473  64.908  1.00  0.00    -0.283 NA 
ATOM      2  C6    A A   1     -10.202  12.376  65.620  1.00  0.00    -0.262 A  
ATOM      3  H61   A A   1     -10.881  10.462  64.997  1.00  0.00     0.000 HD 
ATOM      4  H62   A A   1     -10.885  11.703  63.918  1.00  0.00     0.000 HD 
ATOM      5  C5    A A   1     -10.338  13.771  65.497  1.00  0.00    -0.321 A  
ATOM      6  N7    A A   1     -11.165  14.553  64.721  1.00  0.00    -0.389 NA 
ATOM      7  C8    A A   1     -10.823  15.789  65.018  1.00  0.00    -0.443 A  
ATOM      8  N9    A A   1      -9.815  15.840  65.955  1.00  0.00    -0.325 NA 
ATOM      9  N1    A A   1      -9.251  11.896  66.448  1.00  0.00    -0.214 NA 
ATOM     10  C4    A A   1      -9.482  14.553  66.263  1.00  0.00    -0.283 A  
ATOM     11  C2    A A   1      -8.485  12.771  67.131  1.00  0.00    -0.181 A  
ATOM     12  N3    A A   1      -8.521  14.120  67.093  1.00  0.00    -0.210 NA 
ENDROOT
BRANCH   8  13
ATOM     13  C1*   A A   1      -9.241  17.076  66.416  1.00  0.00    -0.271 C  
ATOM     14  O4*   A A   1      -8.952  16.915  67.823  1.00  0.00    -0.220 OA 
ATOM     15  C4*   A A   1     -10.030  17.519  68.578  1.00  0.00    -0.344 C  
ATOM     16  H2*   A A   1      -9.573  20.339  66.085  1.00  0.00     0.000 HD 
ATOM     17  C3*   A A   1     -10.705  18.550  67.672  1.00  0.00    -0.364 C  
ATOM     18  C2*   A A   1     -10.007  18.403  66.316  1.00  0.00    -0.366 C  
ATOM     19  H3*   A A   1     -10.947  20.502  67.650  1.00  0.00     0.000 HD 
ATOM     20  O3*   A A   1     -10.527  19.862  68.213  1.00  0.00    -0.426 OA 
ATOM     21  O2*   A A   1      -9.099  19.517  66.147  1.00  0.00    -0.360 OA 
BRANCH  15  22
ATOM     22  C5*   A A   1     -11.016  16.434  69.036  1.00  0.00    -0.325 C  
ATOM     23  O5*   A A   1     -11.341  16.606  70.412  1.00  0.00    -0.493 OA 
ATOM     24  H5*   A A   1     -11.951  15.935  70.695  1.00  0.00     0.000 HD 
ENDBRANCH  15  22
ENDBRANCH   8  13
TORSDOF 2
ENDMDL
MODEL       59
REMARK 921   NORMALIZED FREE ENERGY PREDICTED BY IDOCK:   -5.19 KCAL/MOL
REMARK 922        TOTAL FREE ENERGY PREDICTED BY IDOCK:   -6.27 KCAL/MOL
REMARK 923 INTER-LIGAND FREE ENERGY PREDICTED BY IDOCK:   -5.81 KCAL/MOL
REMARK 924 INTRA-LIGAND FREE ENERGY PREDICTED BY IDOCK:   -0.45 KCAL/MOL
REMARK 927      BINDING AFFINITY PREDICTED BY RF-SCORE:    0.00 PKD
ROOT
ATOM      1  N6    A A   1     -10.947   7.208  73.350  1.00  0.00    -0.555 NA 
ATOM      2  C6    A A   1     -11.576   8.117  72.512  1.00  0.00    -0.404 A  
ATOM      3  H61   A A   1     -11.442   6.677  74.068  1.00  0.00     0.000 HD 
ATOM      4  H62   A A   1     -10.179   7.698  73.810  1.00  0.00     0.000 HD 
ATOM      5  C5    A A   1     -10.894   8.849  71.523  1.00  0.00    -0.326 A  
ATOM      6  N7    A A   1      -9.567   8.888  71.154  1.00  0.00    -0.246 NA 
ATOM      7  C8    A A   1      -9.521   9.774  70.181  1.00  0.00    -0.229 A  
ATOM      8  N9    A A   1     -10.760  10.306  69.903  1.00  0.00    -0.280 NA 
ATOM      9  N1    A A   1     -12.899   8.332  72.668  1.00  0.00    -0.149 NA 
ATOM     10  C4    A A   1     -11.651   9.733  70.764  1.00  0.00    -0.339 A  
ATOM     11  C2    A A   1     -13.510   9.225  71.863  1.00  0.00    -0.430 A  
ATOM     12  N3    A A   1     -12.963   9.982  70.889  1.00  0.00    -0.346 NA 
ENDROOT
BRANCH   8  13
ATOM     13  C1*   A A   1     -10.966  11.322  68.905  1.00  0.00    -0.223 C  
ATOM     14  O4*   A A   1     -11.569  10.681  67.759  1.00  0.00    -0.501 OA 
ATOM     15  C4*   A A   1     -10.525  10.412  66.791  1.00  0.00    -0.225 C  
ATOM     16  H2*   A A   1      -9.500  13.971  67.603  1.00  0.00     0.000 HD 
ATOM     17  C3*   A A   1      -9.376  11.382  67.073  1.00  0.00    -0.174 C  
ATOM     18  C2*   A A   1      -9.796  12.138  68.338  1.00  0.00    -0.200 C  
ATOM     19  H3*   A A   1      -8.494  12.872  66.139  1.00  0.00     0.000 HD 
ATOM     20  O3*   A A   1      -9.208  12.270  65.964  1.00  0.00    -0.192 OA 
ATOM     21  O2*   A A   1     -10.224  13.466  67.954  1.00  0.00    -0.229 OA 
BRANCH  15  22
ATOM     22  C5*   A A   1     -10.072   8.949  66.907  1.00  0.00    -0.273 C  
ATOM     23  O5*   A A   1     -11.053   8.179  67.596  1.00  0.00    -0.492 OA 
ATOM     24  H5*   A A   1     -10.773   7.274  67.668  1.00  0.00     0.000 HD 
ENDBRANCH  15  22
ENDBRANCH   8  13
TORSDOF 2
ENDMDL
MODEL       60
REMARK 921   NORMALIZED FREE ENERGY PREDICTED BY IDOCK:   -5.18 KCAL/MOL
REMARK 922        TOTAL FREE ENERGY PREDICTED BY IDOCK:   -6.26 KCAL/MOL
REMARK 923 INTER-LIGAND FREE ENERGY PREDICTED BY IDOCK:   -6.02 KCAL/MOL
REMARK 924 INTRA-LIGAND FREE ENERGY PREDICTED BY IDOCK:   -0.24 KCAL/MOL
REMARK 927      BINDING AFFINITY PREDICTED BY RF-SCORE:    0.00 PKD
ROOT
ATOM      1  N6    A A   1     -13.672  15.030  71.280  1.00  0.00    -0.503 NA 
ATOM      2  C6    A A   1     -12.890  14.096  70.615  1.00  0.00    -0.290 A  
ATOM      3  H61   A A   1     -14.238  14.802  72.097  1.00  0.00     0.000 HD 
ATOM      4  H62   A A   1     -14.291  15.455  70.589  1.00  0.00     0.000 HD 
ATOM      5  C5    A A   1     -12.109  14.411  69.487  1.00  0.00    -0.322 A  
ATOM      6  N7    A A   1     -11.929  15.584  68.788  1.00  0.00    -0.304 NA 
ATOM      7  C8    A A   1     -11.101  15.264  67.816  1.00  0.00    -0.318 A  
ATOM      8  N9    A A   1     -10.737  13.936  67.858  1.00  0.00    -0.238 NA 
ATOM      9  N1    A A   1     -12.898  12.819  71.053  1.00  0.00    -0.236 NA 
ATOM     10  C4    A A   1     -11.386  13.371  68.917  1.00  0.00    -0.287 A  
ATOM     11  C2    A A   1     -12.148  11.907  70.400  1.00  0.00    -0.333 A  
ATOM     12  N3    A A   1     -11.368  12.089  69.314  1.00  0.00    -0.265 NA 
ENDROOT
BRANCH   8  13
ATOM     13  C1*   A A   1      -9.869  13.334  66.880  1.00  0.00    -0.247 C  
ATOM     14  O4*   A A   1     -10.379  13.695  65.576  1.00  0.00    -0.290 OA 
ATOM     15  C4*   A A   1     -11.163  12.585  65.075  1.00  0.00    -0.306 C  
ATOM     16  H2*   A A   1      -8.206  10.550  66.296  1.00  0.00     0.000 HD 
ATOM     17  C3*   A A   1     -10.687  11.323  65.796  1.00  0.00    -0.223 C  
ATOM     18  C2*   A A   1      -9.659  11.815  66.821  1.00  0.00    -0.200 C  
ATOM     19  H3*   A A   1      -9.801   9.637  65.304  1.00  0.00     0.000 HD 
ATOM     20  O3*   A A   1     -10.096  10.421  64.856  1.00  0.00    -0.322 OA 
ATOM     21  O2*   A A   1      -8.336  11.491  66.333  1.00  0.00    -0.172 OA 
BRANCH  15  22
ATOM     22  C5*   A A   1     -12.656  12.849  65.323  1.00  0.00    -0.439 C  
ATOM     23  O5*   A A   1     -12.984  14.194  64.986  1.00  0.00    -0.721 OA 
ATOM     24  H5*   A A   1     -13.907  14.357  65.139  1.00  0.00     0.000 HD 
ENDBRANCH  15  22
ENDBRANCH   8  13
TORSDOF 2
ENDMDL
MODEL       61
REMARK 921   NORMALIZED FREE ENERGY PREDICTED BY IDOCK:   -5.10 KCAL/MOL
REMARK 922        TOTAL FREE ENERGY PREDICTED BY IDOCK:   -6.17 KCAL/MOL
REMARK 923 INTER-LIGAND FREE ENERGY PREDICTED BY IDOCK:   -5.73 KCAL/MOL
REMARK 924 INTRA-LIGAND FREE ENERGY PREDICTED BY IDOCK:   -0.44 KCAL/MOL
REMARK 927      BINDING AFFINITY PREDICTED BY RF-SCORE:    0.00 PKD
ROOT
ATOM      1  N6    A A   1     -11.992  12.434  66.918  1.00  0.00    -0.575 NA 
ATOM      2  C6    A A   1     -11.684  13.411  67.855  1.00  0.00    -0.361 A  
ATOM      3  H61   A A   1     -12.642  11.671  67.104  1.00  0.00     0.000 HD 
ATOM      4  H62   A A   1     -11.112  12.018  66.612  1.00  0.00     0.000 HD 
ATOM      5  C5    A A   1     -10.786  14.465  67.599  1.00  0.00    -0.263 A  
ATOM      6  N7    A A   1     -10.031  14.786  66.492  1.00  0.00    -0.261 NA 
ATOM      7  C8    A A   1      -9.370  15.867  66.847  1.00  0.00    -0.225 A  
ATOM      8  N9    A A   1      -9.666  16.261  68.133  1.00  0.00    -0.225 NA 
ATOM      9  N1    A A   1     -12.248  13.334  69.078  1.00  0.00    -0.213 NA 
ATOM     10  C4    A A   1     -10.564  15.363  68.635  1.00  0.00    -0.239 A  
ATOM     11  C2    A A   1     -11.939  14.276  69.994  1.00  0.00    -0.334 A  
ATOM     12  N3    A A   1     -11.098  15.322  69.865  1.00  0.00    -0.270 NA 
ENDROOT
BRANCH   8  13
ATOM     13  C1*   A A   1      -9.044  17.393  68.764  1.00  0.00    -0.227 C  
ATOM     14  O4*   A A   1     -10.066  18.401  68.940  1.00  0.00    -0.388 OA 
ATOM     15  C4*   A A   1      -9.947  19.359  67.861  1.00  0.00    -0.380 C  
ATOM     16  H2*   A A   1      -6.257  19.151  68.706  1.00  0.00     0.000 HD 
ATOM     17  C3*   A A   1      -8.514  19.279  67.331  1.00  0.00    -0.288 C  
ATOM     18  C2*   A A   1      -7.866  18.130  68.111  1.00  0.00    -0.280 C  
ATOM     19  H3*   A A   1      -6.950  20.469  67.241  1.00  0.00     0.000 HD 
ATOM     20  O3*   A A   1      -7.840  20.518  67.570  1.00  0.00    -0.313 OA 
ATOM     21  O2*   A A   1      -6.986  18.695  69.111  1.00  0.00    -0.290 OA 
BRANCH  15  22
ATOM     22  C5*   A A   1     -10.974  19.037  66.765  1.00  0.00    -0.115 C  
ATOM     23  O5*   A A   1     -10.356  19.061  65.482  1.00  0.00    -0.485 OA 
ATOM     24  H5*   A A   1     -10.991  18.862  64.804  1.00  0.00     0.000 HD 
ENDBRANCH  15  22
ENDBRANCH   8  13
TORSDOF 2
ENDMDL
MODEL       62
REMARK 921   NORMALIZED FREE ENERGY PREDICTED BY IDOCK:   -5.09 KCAL/MOL
REMARK 922        TOTAL FREE ENERGY PREDICTED BY IDOCK:   -6.16 KCAL/MOL
REMARK 923 INTER-LIGAND FREE ENERGY PREDICTED BY IDOCK:   -5.70 KCAL/MOL
REMARK 924 INTRA-LIGAND FREE ENERGY PREDICTED BY IDOCK:   -0.47 KCAL/MOL
REMARK 927      BINDING AFFINITY PREDICTED BY RF-SCORE:    0.00 PKD
ROOT
ATOM      1  N6    A A   1     -11.899  12.250  68.923  1.00  0.00    -0.314 NA 
ATOM      2  C6    A A   1     -11.976  11.324  69.954  1.00  0.00    -0.365 A  
ATOM      3  H61   A A   1     -12.659  12.891  68.693  1.00  0.00     0.000 HD 
ATOM      4  H62   A A   1     -11.664  11.739  68.071  1.00  0.00     0.000 HD 
ATOM      5  C5    A A   1     -10.928  10.439  70.270  1.00  0.00    -0.284 A  
ATOM      6  N7    A A   1      -9.685  10.243  69.711  1.00  0.00    -0.194 NA 
ATOM      7  C8    A A   1      -9.156   9.266  70.417  1.00  0.00    -0.247 A  
ATOM      8  N9    A A   1     -10.002   8.824  71.410  1.00  0.00    -0.255 NA 
ATOM      9  N1    A A   1     -13.117  11.248  70.670  1.00  0.00    -0.002 NA 
ATOM     10  C4    A A   1     -11.150   9.558  71.321  1.00  0.00    -0.379 A  
ATOM     11  C2    A A   1     -13.197  10.339  71.664  1.00  0.00    -0.408 A  
ATOM     12  N3    A A   1     -12.267   9.444  72.055  1.00  0.00    -0.352 NA 
ENDROOT
BRANCH   8  13
ATOM     13  C1*   A A   1      -9.668   7.738  72.292  1.00  0.00    -0.186 C  
ATOM     14  O4*   A A   1      -9.231   6.635  71.467  1.00  0.00    -0.147 OA 
ATOM     15  C4*   A A   1     -10.344   5.722  71.307  1.00  0.00    -0.223 C  
ATOM     16  H2*   A A   1     -10.715   6.254  75.043  1.00  0.00     0.000 HD 
ATOM     17  C3*   A A   1     -11.299   5.951  72.480  1.00  0.00    -0.304 C  
ATOM     18  C2*   A A   1     -10.705   7.135  73.250  1.00  0.00    -0.361 C  
ATOM     19  H3*   A A   1     -11.953   4.917  74.021  1.00  0.00     0.000 HD 
ATOM     20  O3*   A A   1     -11.360   4.776  73.292  1.00  0.00    -0.319 OA 
ATOM     21  O2*   A A   1     -10.073   6.627  74.449  1.00  0.00    -0.343 OA 
BRANCH  15  22
ATOM     22  C5*   A A   1     -11.034   5.975  69.958  1.00  0.00    -0.380 C  
ATOM     23  O5*   A A   1     -12.187   6.792  70.134  1.00  0.00    -0.634 OA 
ATOM     24  H5*   A A   1     -12.614   6.948  69.300  1.00  0.00     0.000 HD 
ENDBRANCH  15  22
ENDBRANCH   8  13
TORSDOF 2
ENDMDL
MODEL       63
REMARK 921   NORMALIZED FREE ENERGY PREDICTED BY IDOCK:   -5.04 KCAL/MOL
REMARK 922        TOTAL FREE ENERGY PREDICTED BY IDOCK:   -6.10 KCAL/MOL
REMARK 923 INTER-LIGAND FREE ENERGY PREDICTED BY IDOCK:   -5.90 KCAL/MOL
REMARK 924 INTRA-LIGAND FREE ENERGY PREDICTED BY IDOCK:   -0.20 KCAL/MOL
REMARK 927      BINDING AFFINITY PREDICTED BY RF-SCORE:    0.00 PKD
ROOT
ATOM      1  N6    A A   1      -6.001  14.181  68.428  1.00  0.00    -0.094 NA 
ATOM      2  C6    A A   1      -7.201  14.499  67.806  1.00  0.00    -0.177 A  
ATOM      3  H61   A A   1      -5.228  14.841  68.516  1.00  0.00     0.000 HD 
ATOM      4  H62   A A   1      -5.635  13.343  67.974  1.00  0.00     0.000 HD 
ATOM      5  C5    A A   1      -8.267  13.588  67.684  1.00  0.00    -0.178 A  
ATOM      6  N7    A A   1      -8.409  12.276  68.078  1.00  0.00    -0.157 NA 
ATOM      7  C8    A A   1      -9.616  11.940  67.675  1.00  0.00    -0.185 A  
ATOM      8  N9    A A   1     -10.262  12.979  67.041  1.00  0.00    -0.243 NA 
ATOM      9  N1    A A   1      -7.344  15.728  67.269  1.00  0.00    -0.203 NA 
ATOM     10  C4    A A   1      -9.404  14.041  67.027  1.00  0.00    -0.250 A  
ATOM     11  C2    A A   1      -8.505  16.034  66.654  1.00  0.00    -0.288 A  
ATOM     12  N3    A A   1      -9.587  15.249  66.474  1.00  0.00    -0.253 NA 
ENDROOT
BRANCH   8  13
ATOM     13  C1*   A A   1     -11.579  12.851  66.478  1.00  0.00    -0.371 C  
ATOM     14  O4*   A A   1     -11.680  11.519  65.924  1.00  0.00    -0.276 OA 
ATOM     15  C4*   A A   1     -11.441  11.604  64.498  1.00  0.00    -0.198 C  
ATOM     16  H2*   A A   1     -13.805  14.557  64.747  1.00  0.00     0.000 HD 
ATOM     17  C3*   A A   1     -11.749  13.037  64.064  1.00  0.00    -0.436 C  
ATOM     18  C2*   A A   1     -12.069  13.785  65.363  1.00  0.00    -0.407 C  
ATOM     19  H3*   A A   1     -13.057  13.934  62.899  1.00  0.00     0.000 HD 
ATOM     20  O3*   A A   1     -12.865  13.043  63.169  1.00  0.00    -0.538 OA 
ATOM     21  O2*   A A   1     -13.501  13.978  65.437  1.00  0.00    -0.679 OA 
BRANCH  15  22
ATOM     22  C5*   A A   1      -9.985  11.220  64.192  1.00  0.00    -0.300 C  
ATOM     23  O5*   A A   1      -9.424  12.119  63.239  1.00  0.00    -0.664 OA 
ATOM     24  H5*   A A   1      -8.525  11.882  63.049  1.00  0.00     0.000 HD 
ENDBRANCH  15  22
ENDBRANCH   8  13
TORSDOF 2
ENDMDL
MODEL       64
REMARK 921   NORMALIZED FREE ENERGY PREDICTED BY IDOCK:   -5.03 KCAL/MOL
REMARK 922        TOTAL FREE ENERGY PREDICTED BY IDOCK:   -6.09 KCAL/MOL
REMARK 923 INTER-LIGAND FREE ENERGY PREDICTED BY IDOCK:   -5.69 KCAL/MOL
REMARK 924 INTRA-LIGAND FREE ENERGY PREDICTED BY IDOCK:   -0.40 KCAL/MOL
REMARK 927      BINDING AFFINITY PREDICTED BY RF-SCORE:    0.00 PKD
ROOT
ATOM      1  N6    A A   1      -9.947   8.700  71.759  1.00  0.00    -0.272 NA 
ATOM      2  C6    A A   1     -10.686   9.508  70.905  1.00  0.00    -0.333 A  
ATOM      3  H61   A A   1     -10.223   8.510  72.722  1.00  0.00     0.000 HD 
ATOM      4  H62   A A   1      -8.996   9.069  71.781  1.00  0.00     0.000 HD 
ATOM      5  C5    A A   1     -10.305   9.770  69.576  1.00  0.00    -0.230 A  
ATOM      6  N7    A A   1      -9.218   9.370  68.831  1.00  0.00    -0.138 NA 
ATOM      7  C8    A A   1      -9.391   9.946  67.660  1.00  0.00    -0.140 A  
ATOM      8  N9    A A   1     -10.543  10.699  67.615  1.00  0.00    -0.227 NA 
ATOM      9  N1    A A   1     -11.806  10.092  71.378  1.00  0.00    -0.377 NA 
ATOM     10  C4    A A   1     -11.135  10.607  68.841  1.00  0.00    -0.261 A  
ATOM     11  C2    A A   1     -12.518  10.888  70.553  1.00  0.00    -0.351 A  
ATOM     12  N3    A A   1     -12.253  11.213  69.271  1.00  0.00    -0.397 NA 
ENDROOT
BRANCH   8  13
ATOM     13  C1*   A A   1     -10.935  11.456  66.456  1.00  0.00    -0.272 C  
ATOM     14  O4*   A A   1      -9.761  12.157  65.986  1.00  0.00    -0.239 OA 
ATOM     15  C4*   A A   1      -9.818  13.517  66.482  1.00  0.00    -0.291 C  
ATOM     16  H2*   A A   1     -13.419  13.297  65.315  1.00  0.00     0.000 HD 
ATOM     17  C3*   A A   1     -11.284  13.836  66.783  1.00  0.00    -0.316 C  
ATOM     18  C2*   A A   1     -12.035  12.524  66.530  1.00  0.00    -0.296 C  
ATOM     19  H3*   A A   1     -12.652  15.074  66.100  1.00  0.00     0.000 HD 
ATOM     20  O3*   A A   1     -11.741  14.876  65.914  1.00  0.00    -0.296 OA 
ATOM     21  O2*   A A   1     -12.737  12.636  65.270  1.00  0.00    -0.652 OA 
BRANCH  15  22
ATOM     22  C5*   A A   1      -8.941  13.650  67.737  1.00  0.00    -0.196 C  
ATOM     23  O5*   A A   1      -9.745  13.604  68.912  1.00  0.00    -0.405 OA 
ATOM     24  H5*   A A   1      -9.203  13.687  69.687  1.00  0.00     0.000 HD 
ENDBRANCH  15  22
ENDBRANCH   8  13
TORSDOF 2
ENDMDL
MODEL       65
REMARK 921   NORMALIZED FREE ENERGY PREDICTED BY IDOCK:   -5.02 KCAL/MOL
REMARK 922        TOTAL FREE ENERGY PREDICTED BY IDOCK:   -6.08 KCAL/MOL
REMARK 923 INTER-LIGAND FREE ENERGY PREDICTED BY IDOCK:   -6.02 KCAL/MOL
REMARK 924 INTRA-LIGAND FREE ENERGY PREDICTED BY IDOCK:   -0.06 KCAL/MOL
REMARK 927      BINDING AFFINITY PREDICTED BY RF-SCORE:    0.00 PKD
ROOT
ATOM      1  N6    A A   1     -11.333  15.528  72.126  1.00  0.00    -0.396 NA 
ATOM      2  C6    A A   1     -11.401  15.414  70.744  1.00  0.00    -0.345 A  
ATOM      3  H61   A A   1     -11.130  16.407  72.602  1.00  0.00     0.000 HD 
ATOM      4  H62   A A   1     -10.655  14.840  72.456  1.00  0.00     0.000 HD 
ATOM      5  C5    A A   1     -11.679  14.201  70.087  1.00  0.00    -0.280 A  
ATOM      6  N7    A A   1     -11.918  12.929  70.559  1.00  0.00    -0.277 NA 
ATOM      7  C8    A A   1     -12.095  12.203  69.476  1.00  0.00    -0.201 A  
ATOM      8  N9    A A   1     -11.984  12.951  68.324  1.00  0.00    -0.311 NA 
ATOM      9  N1    A A   1     -11.162  16.509  69.993  1.00  0.00    -0.252 NA 
ATOM     10  C4    A A   1     -11.704  14.233  68.699  1.00  0.00    -0.345 A  
ATOM     11  C2    A A   1     -11.214  16.396  68.650  1.00  0.00    -0.332 A  
ATOM     12  N3    A A   1     -11.468  15.295  67.913  1.00  0.00    -0.332 NA 
ENDROOT
BRANCH   8  13
ATOM     13  C1*   A A   1     -12.099  12.379  67.009  1.00  0.00    -0.011 C  
ATOM     14  O4*   A A   1     -10.995  11.461  66.842  1.00  0.00    -0.275 OA 
ATOM     15  C4*   A A   1      -9.955  12.137  66.094  1.00  0.00    -0.233 C  
ATOM     16  H2*   A A   1     -12.866  13.204  63.912  1.00  0.00     0.000 HD 
ATOM     17  C3*   A A   1     -10.618  13.268  65.305  1.00  0.00    -0.315 C  
ATOM     18  C2*   A A   1     -12.084  13.255  65.749  1.00  0.00    -0.441 C  
ATOM     19  H3*   A A   1     -10.905  13.720  63.412  1.00  0.00     0.000 HD 
ATOM     20  O3*   A A   1     -10.494  13.017  63.902  1.00  0.00    -0.392 OA 
ATOM     21  O2*   A A   1     -12.875  12.662  64.692  1.00  0.00    -0.704 OA 
BRANCH  15  22
ATOM     22  C5*   A A   1      -8.884  12.671  67.057  1.00  0.00    -0.212 C  
ATOM     23  O5*   A A   1      -7.582  12.435  66.533  1.00  0.00    -0.364 OA 
ATOM     24  H5*   A A   1      -6.919  12.764  67.128  1.00  0.00     0.000 HD 
ENDBRANCH  15  22
ENDBRANCH   8  13
TORSDOF 2
ENDMDL
MODEL       66
REMARK 921   NORMALIZED FREE ENERGY PREDICTED BY IDOCK:   -5.01 KCAL/MOL
REMARK 922        TOTAL FREE ENERGY PREDICTED BY IDOCK:   -6.07 KCAL/MOL
REMARK 923 INTER-LIGAND FREE ENERGY PREDICTED BY IDOCK:   -6.01 KCAL/MOL
REMARK 924 INTRA-LIGAND FREE ENERGY PREDICTED BY IDOCK:   -0.06 KCAL/MOL
REMARK 927      BINDING AFFINITY PREDICTED BY RF-SCORE:    0.00 PKD
ROOT
ATOM      1  N6    A A   1     -10.161  17.985  68.951  1.00  0.00    -0.387 NA 
ATOM      2  C6    A A   1     -10.087  17.027  67.950  1.00  0.00    -0.306 A  
ATOM      3  H61   A A   1      -9.607  18.842  68.944  1.00  0.00     0.000 HD 
ATOM      4  H62   A A   1      -9.983  17.514  69.838  1.00  0.00     0.000 HD 
ATOM      5  C5    A A   1     -10.852  15.846  67.959  1.00  0.00    -0.317 A  
ATOM      6  N7    A A   1     -11.769  15.347  68.859  1.00  0.00    -0.356 NA 
ATOM      7  C8    A A   1     -12.140  14.193  68.345  1.00  0.00    -0.273 A  
ATOM      8  N9    A A   1     -11.506  13.926  67.152  1.00  0.00    -0.329 NA 
ATOM      9  N1    A A   1      -9.222  17.222  66.933  1.00  0.00    -0.246 NA 
ATOM     10  C4    A A   1     -10.665  14.971  66.897  1.00  0.00    -0.308 A  
ATOM     11  C2    A A   1      -9.139  16.284  65.965  1.00  0.00    -0.297 A  
ATOM     12  N3    A A   1      -9.815  15.121  65.870  1.00  0.00    -0.318 NA 
ENDROOT
BRANCH   8  13
ATOM     13  C1*   A A   1     -11.714  12.709  66.414  1.00  0.00    -0.405 C  
ATOM     14  O4*   A A   1     -12.086  11.688  67.367  1.00  0.00    -0.605 OA 
ATOM     15  C4*   A A   1     -10.906  10.907  67.675  1.00  0.00    -0.266 C  
ATOM     16  H2*   A A   1     -10.446  10.978  63.912  1.00  0.00     0.000 HD 
ATOM     17  C3*   A A   1      -9.932  11.064  66.506  1.00  0.00    -0.212 C  
ATOM     18  C2*   A A   1     -10.596  12.080  65.571  1.00  0.00    -0.273 C  
ATOM     19  H3*   A A   1      -9.138   9.901  65.133  1.00  0.00     0.000 HD 
ATOM     20  O3*   A A   1      -9.743   9.803  65.859  1.00  0.00    -0.225 OA 
ATOM     21  O2*   A A   1     -11.139  11.367  64.435  1.00  0.00    -0.329 OA 
BRANCH  15  22
ATOM     22  C5*   A A   1     -10.290  11.393  68.995  1.00  0.00    -0.142 C  
ATOM     23  O5*   A A   1     -10.978  10.824  70.105  1.00  0.00    -0.409 OA 
ATOM     24  H5*   A A   1     -10.597  11.125  70.921  1.00  0.00     0.000 HD 
ENDBRANCH  15  22
ENDBRANCH   8  13
TORSDOF 2
ENDMDL
MODEL       67
REMARK 921   NORMALIZED FREE ENERGY PREDICTED BY IDOCK:   -4.98 KCAL/MOL
REMARK 922        TOTAL FREE ENERGY PREDICTED BY IDOCK:   -6.03 KCAL/MOL
REMARK 923 INTER-LIGAND FREE ENERGY PREDICTED BY IDOCK:   -5.85 KCAL/MOL
REMARK 924 INTRA-LIGAND FREE ENERGY PREDICTED BY IDOCK:   -0.18 KCAL/MOL
REMARK 927      BINDING AFFINITY PREDICTED BY RF-SCORE:    0.00 PKD
ROOT
ATOM      1  N6    A A   1     -10.156   9.983  67.186  1.00  0.00    -0.201 NA 
ATOM      2  C6    A A   1     -10.740  10.417  68.367  1.00  0.00    -0.225 A  
ATOM      3  H61   A A   1      -9.726   9.064  67.082  1.00  0.00     0.000 HD 
ATOM      4  H62   A A   1      -9.458  10.678  66.918  1.00  0.00     0.000 HD 
ATOM      5  C5    A A   1     -11.333  11.685  68.511  1.00  0.00    -0.274 A  
ATOM      6  N7    A A   1     -11.474  12.742  67.638  1.00  0.00    -0.313 NA 
ATOM      7  C8    A A   1     -12.094  13.667  68.339  1.00  0.00    -0.277 A  
ATOM      8  N9    A A   1     -12.363  13.254  69.625  1.00  0.00    -0.170 NA 
ATOM      9  N1    A A   1     -10.716   9.596  69.439  1.00  0.00    -0.223 NA 
ATOM     10  C4    A A   1     -11.869  11.988  69.756  1.00  0.00    -0.331 A  
ATOM     11  C2    A A   1     -11.272  10.022  70.592  1.00  0.00    -0.350 A  
ATOM     12  N3    A A   1     -11.863  11.208  70.847  1.00  0.00    -0.237 NA 
ENDROOT
BRANCH   8  13
ATOM     13  C1*   A A   1     -13.001  14.099  70.599  1.00  0.00    -0.228 C  
ATOM     14  O4*   A A   1     -12.848  15.464  70.147  1.00  0.00    -0.303 OA 
ATOM     15  C4*   A A   1     -11.731  16.052  70.858  1.00  0.00    -0.402 C  
ATOM     16  H2*   A A   1     -13.384  14.423  73.856  1.00  0.00     0.000 HD 
ATOM     17  C3*   A A   1     -11.541  15.259  72.152  1.00  0.00    -0.444 C  
ATOM     18  C2*   A A   1     -12.554  14.112  72.067  1.00  0.00    -0.262 C  
ATOM     19  H3*   A A   1     -11.680  15.609  74.083  1.00  0.00     0.000 HD 
ATOM     20  O3*   A A   1     -11.798  16.101  73.279  1.00  0.00    -0.433 OA 
ATOM     21  O2*   A A   1     -13.661  14.415  72.947  1.00  0.00    -0.598 OA 
BRANCH  15  22
ATOM     22  C5*   A A   1     -10.474  16.009  69.977  1.00  0.00    -0.258 C  
ATOM     23  O5*   A A   1      -9.568  15.019  70.452  1.00  0.00    -0.323 OA 
ATOM     24  H5*   A A   1      -8.790  14.992  69.908  1.00  0.00     0.000 HD 
ENDBRANCH  15  22
ENDBRANCH   8  13
TORSDOF 2
ENDMDL
MODEL       68
REMARK 921   NORMALIZED FREE ENERGY PREDICTED BY IDOCK:   -4.98 KCAL/MOL
REMARK 922        TOTAL FREE ENERGY PREDICTED BY IDOCK:   -6.03 KCAL/MOL
REMARK 923 INTER-LIGAND FREE ENERGY PREDICTED BY IDOCK:   -5.62 KCAL/MOL
REMARK 924 INTRA-LIGAND FREE ENERGY PREDICTED BY IDOCK:   -0.41 KCAL/MOL
REMARK 927      BINDING AFFINITY PREDICTED BY RF-SCORE:    0.00 PKD
ROOT
ATOM      1  N6    A A   1     -12.536  13.821  63.325  1.00  0.00    -1.092 NA 
ATOM      2  C6    A A   1     -11.669  13.732  64.405  1.00  0.00    -0.408 A  
ATOM      3  H61   A A   1     -13.167  14.610  63.182  1.00  0.00     0.000 HD 
ATOM      4  H62   A A   1     -13.101  12.972  63.317  1.00  0.00     0.000 HD 
ATOM      5  C5    A A   1     -10.797  12.644  64.602  1.00  0.00    -0.319 A  
ATOM      6  N7    A A   1     -10.588  11.488  63.884  1.00  0.00    -0.356 NA 
ATOM      7  C8    A A   1      -9.666  10.840  64.565  1.00  0.00    -0.295 A  
ATOM      8  N9    A A   1      -9.267  11.529  65.689  1.00  0.00    -0.203 NA 
ATOM      9  N1    A A   1     -11.679  14.719  65.325  1.00  0.00    -0.339 NA 
ATOM     10  C4    A A   1      -9.994  12.684  65.735  1.00  0.00    -0.256 A  
ATOM     11  C2    A A   1     -10.846  14.627  66.382  1.00  0.00    -0.315 A  
ATOM     12  N3    A A   1      -9.975  13.640  66.676  1.00  0.00    -0.275 NA 
ENDROOT
BRANCH   8  13
ATOM     13  C1*   A A   1      -8.296  11.013  66.616  1.00  0.00    -0.155 C  
ATOM     14  O4*   A A   1      -8.506   9.586  66.706  1.00  0.00    -0.125 OA 
ATOM     15  C4*   A A   1      -9.291   9.318  67.893  1.00  0.00    -0.129 C  
ATOM     16  H2*   A A   1      -6.852  11.744  69.487  1.00  0.00     0.000 HD 
ATOM     17  C3*   A A   1      -9.096  10.497  68.849  1.00  0.00    -0.177 C  
ATOM     18  C2*   A A   1      -8.239  11.500  68.071  1.00  0.00    -0.143 C  
ATOM     19  H3*   A A   1      -8.314  10.785  70.631  1.00  0.00     0.000 HD 
ATOM     20  O3*   A A   1      -8.434  10.053  70.037  1.00  0.00    -0.187 OA 
ATOM     21  O2*   A A   1      -6.888  11.442  68.587  1.00  0.00    -0.067 OA 
BRANCH  15  22
ATOM     22  C5*   A A   1     -10.768   9.138  67.510  1.00  0.00    -0.185 C  
ATOM     23  O5*   A A   1     -11.507  10.318  67.810  1.00  0.00    -0.593 OA 
ATOM     24  H5*   A A   1     -12.420  10.207  67.573  1.00  0.00     0.000 HD 
ENDBRANCH  15  22
ENDBRANCH   8  13
TORSDOF 2
ENDMDL
MODEL       69
REMARK 921   NORMALIZED FREE ENERGY PREDICTED BY IDOCK:   -4.97 KCAL/MOL
REMARK 922        TOTAL FREE ENERGY PREDICTED BY IDOCK:   -6.03 KCAL/MOL
REMARK 923 INTER-LIGAND FREE ENERGY PREDICTED BY IDOCK:   -6.11 KCAL/MOL
REMARK 924 INTRA-LIGAND FREE ENERGY PREDICTED BY IDOCK:    0.09 KCAL/MOL
REMARK 927      BINDING AFFINITY PREDICTED BY RF-SCORE:    0.00 PKD
ROOT
ATOM      1  N6    A A   1     -10.448  19.725  65.527  1.00  0.00    -0.430 NA 
ATOM      2  C6    A A   1     -10.094  18.503  66.083  1.00  0.00    -0.368 A  
ATOM      3  H61   A A   1     -10.129  20.619  65.900  1.00  0.00     0.000 HD 
ATOM      4  H62   A A   1     -11.467  19.757  65.487  1.00  0.00     0.000 HD 
ATOM      5  C5    A A   1     -10.535  17.269  65.569  1.00  0.00    -0.122 A  
ATOM      6  N7    A A   1     -11.356  16.951  64.510  1.00  0.00    -1.002 NA 
ATOM      7  C8    A A   1     -11.421  15.637  64.526  1.00  0.00    -0.300 A  
ATOM      8  N9    A A   1     -10.675  15.091  65.548  1.00  0.00    -0.334 NA 
ATOM      9  N1    A A   1      -9.314  18.496  67.184  1.00  0.00    -0.273 NA 
ATOM     10  C4    A A   1     -10.110  16.127  66.235  1.00  0.00    -0.321 A  
ATOM     11  C2    A A   1      -8.980  17.310  67.733  1.00  0.00    -0.234 A  
ATOM     12  N3    A A   1      -9.341  16.073  67.333  1.00  0.00    -0.215 NA 
ENDROOT
BRANCH   8  13
ATOM     13  C1*   A A   1     -10.615  13.676  65.799  1.00  0.00    -0.285 C  
ATOM     14  O4*   A A   1     -11.885  13.287  66.368  1.00  0.00    -0.358 OA 
ATOM     15  C4*   A A   1     -11.731  13.212  67.806  1.00  0.00    -0.358 C  
ATOM     16  H2*   A A   1      -8.553  11.353  66.902  1.00  0.00     0.000 HD 
ATOM     17  C3*   A A   1     -10.246  12.997  68.100  1.00  0.00    -0.239 C  
ATOM     18  C2*   A A   1      -9.557  13.071  66.733  1.00  0.00    -0.248 C  
ATOM     19  H3*   A A   1      -9.129  11.586  68.896  1.00  0.00     0.000 HD 
ATOM     20  O3*   A A   1     -10.052  11.720  68.714  1.00  0.00    -0.206 OA 
ATOM     21  O2*   A A   1      -9.208  11.728  66.324  1.00  0.00    -0.216 OA 
BRANCH  15  22
ATOM     22  C5*   A A   1     -12.256  14.503  68.454  1.00  0.00    -0.119 C  
ATOM     23  O5*   A A   1     -12.720  14.243  69.775  1.00  0.00    -0.485 OA 
ATOM     24  H5*   A A   1     -13.044  15.041  70.175  1.00  0.00     0.000 HD 
ENDBRANCH  15  22
ENDBRANCH   8  13
TORSDOF 2
ENDMDL
MODEL       70
REMARK 921   NORMALIZED FREE ENERGY PREDICTED BY IDOCK:   -4.92 KCAL/MOL
REMARK 922        TOTAL FREE ENERGY PREDICTED BY IDOCK:   -5.97 KCAL/MOL
REMARK 923 INTER-LIGAND FREE ENERGY PREDICTED BY IDOCK:   -5.58 KCAL/MOL
REMARK 924 INTRA-LIGAND FREE ENERGY PREDICTED BY IDOCK:   -0.39 KCAL/MOL
REMARK 927      BINDING AFFINITY PREDICTED BY RF-SCORE:    0.00 PKD
ROOT
ATOM      1  N6    A A   1     -12.293   8.382  72.776  1.00  0.00    -0.564 NA 
ATOM      2  C6    A A   1     -11.363   8.945  71.914  1.00  0.00    -0.376 A  
ATOM      3  H61   A A   1     -12.040   7.728  73.517  1.00  0.00     0.000 HD 
ATOM      4  H62   A A   1     -13.006   7.931  72.201  1.00  0.00     0.000 HD 
ATOM      5  C5    A A   1     -11.711   9.847  70.891  1.00  0.00    -0.364 A  
ATOM      6  N7    A A   1     -12.924  10.356  70.483  1.00  0.00    -0.295 NA 
ATOM      7  C8    A A   1     -12.629  11.136  69.465  1.00  0.00     0.068 A  
ATOM      8  N9    A A   1     -11.278  11.155  69.198  1.00  0.00    -0.240 NA 
ATOM      9  N1    A A   1     -10.066   8.593  72.043  1.00  0.00    -0.315 NA 
ATOM     10  C4    A A   1     -10.676  10.322  70.096  1.00  0.00    -0.278 A  
ATOM     11  C2    A A   1      -9.163   9.130  71.197  1.00  0.00    -0.231 A  
ATOM     12  N3    A A   1      -9.377   9.996  70.185  1.00  0.00    -0.136 NA 
ENDROOT
BRANCH   8  13
ATOM     13  C1*   A A   1     -10.709  11.904  68.109  1.00  0.00    -0.215 C  
ATOM     14  O4*   A A   1      -9.982  13.013  68.685  1.00  0.00    -0.202 OA 
ATOM     15  C4*   A A   1     -10.824  14.189  68.615  1.00  0.00    -0.255 C  
ATOM     16  H2*   A A   1     -11.433  12.972  65.077  1.00  0.00     0.000 HD 
ATOM     17  C3*   A A   1     -11.842  13.961  67.497  1.00  0.00    -0.396 C  
ATOM     18  C2*   A A   1     -11.589  12.527  67.017  1.00  0.00    -0.368 C  
ATOM     19  H3*   A A   1     -12.262  14.767  65.752  1.00  0.00     0.000 HD 
ATOM     20  O3*   A A   1     -11.629  14.908  66.447  1.00  0.00    -0.330 OA 
ATOM     21  O2*   A A   1     -10.888  12.586  65.753  1.00  0.00    -0.265 OA 
BRANCH  15  22
ATOM     22  C5*   A A   1     -11.512  14.417  69.970  1.00  0.00    -0.238 C  
ATOM     23  O5*   A A   1     -12.868  14.810  69.778  1.00  0.00    -0.582 OA 
ATOM     24  H5*   A A   1     -13.293  14.951  70.615  1.00  0.00     0.000 HD 
ENDBRANCH  15  22
ENDBRANCH   8  13
TORSDOF 2
ENDMDL
MODEL       71
REMARK 921   NORMALIZED FREE ENERGY PREDICTED BY IDOCK:   -4.91 KCAL/MOL
REMARK 922        TOTAL FREE ENERGY PREDICTED BY IDOCK:   -5.96 KCAL/MOL
REMARK 923 INTER-LIGAND FREE ENERGY PREDICTED BY IDOCK:   -5.56 KCAL/MOL
REMARK 924 INTRA-LIGAND FREE ENERGY PREDICTED BY IDOCK:   -0.40 KCAL/MOL
REMARK 927      BINDING AFFINITY PREDICTED BY RF-SCORE:    0.00 PKD
ROOT
ATOM      1  N6    A A   1     -14.401   8.964  73.079  1.00  0.00    -1.154 NA 
ATOM      2  C6    A A   1     -13.395   9.237  72.163  1.00  0.00    -0.468 A  
ATOM      3  H61   A A   1     -14.981   9.688  73.502  1.00  0.00     0.000 HD 
ATOM      4  H62   A A   1     -13.982   8.427  73.840  1.00  0.00     0.000 HD 
ATOM      5  C5    A A   1     -12.593   8.237  71.581  1.00  0.00    -0.327 A  
ATOM      6  N7    A A   1     -12.562   6.870  71.742  1.00  0.00    -0.359 NA 
ATOM      7  C8    A A   1     -11.589   6.467  70.952  1.00  0.00    -0.359 A  
ATOM      8  N9    A A   1     -10.992   7.515  70.286  1.00  0.00    -0.250 NA 
ATOM      9  N1    A A   1     -13.153  10.523  71.834  1.00  0.00    -0.479 NA 
ATOM     10  C4    A A   1     -11.616   8.660  70.689  1.00  0.00    -0.200 A  
ATOM     11  C2    A A   1     -12.167  10.792  70.954  1.00  0.00    -0.384 A  
ATOM     12  N3    A A   1     -11.338   9.925  70.337  1.00  0.00    -0.286 NA 
ENDROOT
BRANCH   8  13
ATOM     13  C1*   A A   1      -9.878   7.337  69.393  1.00  0.00    -0.163 C  
ATOM     14  O4*   A A   1      -8.887   6.553  70.095  1.00  0.00    -0.142 OA 
ATOM     15  C4*   A A   1      -7.888   7.459  70.625  1.00  0.00    -0.097 C  
ATOM     16  H2*   A A   1      -8.097   8.977  67.157  1.00  0.00     0.000 HD 
ATOM     17  C3*   A A   1      -7.936   8.738  69.787  1.00  0.00    -0.095 C  
ATOM     18  C2*   A A   1      -9.109   8.536  68.821  1.00  0.00    -0.143 C  
ATOM     19  H3*   A A   1      -6.731   9.698  68.563  1.00  0.00     0.000 HD 
ATOM     20  O3*   A A   1      -6.702   8.903  69.084  1.00  0.00    -0.049 OA 
ATOM     21  O2*   A A   1      -8.573   8.235  67.511  1.00  0.00    -0.128 OA 
BRANCH  15  22
ATOM     22  C5*   A A   1      -8.177   7.742  72.107  1.00  0.00    -0.113 C  
ATOM     23  O5*   A A   1      -8.654   9.073  72.275  1.00  0.00    -0.362 OA 
ATOM     24  H5*   A A   1      -8.832   9.248  73.191  1.00  0.00     0.000 HD 
ENDBRANCH  15  22
ENDBRANCH   8  13
TORSDOF 2
ENDMDL
MODEL       72
REMARK 921   NORMALIZED FREE ENERGY PREDICTED BY IDOCK:   -4.87 KCAL/MOL
REMARK 922        TOTAL FREE ENERGY PREDICTED BY IDOCK:   -5.91 KCAL/MOL
REMARK 923 INTER-LIGAND FREE ENERGY PREDICTED BY IDOCK:   -5.42 KCAL/MOL
REMARK 924 INTRA-LIGAND FREE ENERGY PREDICTED BY IDOCK:   -0.50 KCAL/MOL
REMARK 927      BINDING AFFINITY PREDICTED BY RF-SCORE:    0.00 PKD
ROOT
ATOM      1  N6    A A   1     -12.157  12.300  66.086  1.00  0.00    -0.627 NA 
ATOM      2  C6    A A   1     -11.059  11.653  66.635  1.00  0.00    -0.307 A  
ATOM      3  H61   A A   1     -12.141  12.742  65.166  1.00  0.00     0.000 HD 
ATOM      4  H62   A A   1     -12.462  13.006  66.757  1.00  0.00     0.000 HD 
ATOM      5  C5    A A   1     -11.081  11.045  67.904  1.00  0.00    -0.288 A  
ATOM      6  N7    A A   1     -12.067  10.941  68.861  1.00  0.00    -0.481 NA 
ATOM      7  C8    A A   1     -11.501  10.279  69.847  1.00  0.00    -0.273 A  
ATOM      8  N9    A A   1     -10.193   9.948  69.569  1.00  0.00    -0.209 NA 
ATOM      9  N1    A A   1      -9.907  11.629  65.933  1.00  0.00    -0.226 NA 
ATOM     10  C4    A A   1      -9.904  10.444  68.330  1.00  0.00    -0.162 A  
ATOM     11  C2    A A   1      -8.835  11.012  66.471  1.00  0.00    -0.169 A  
ATOM     12  N3    A A   1      -8.737  10.400  67.670  1.00  0.00    -0.119 NA 
ENDROOT
BRANCH   8  13
ATOM     13  C1*   A A   1      -9.348   9.255  70.505  1.00  0.00    -0.264 C  
ATOM     14  O4*   A A   1      -8.892   8.046  69.857  1.00  0.00    -0.141 OA 
ATOM     15  C4*   A A   1      -9.726   6.951  70.308  1.00  0.00    -0.172 C  
ATOM     16  H2*   A A   1      -9.137   8.518  73.710  1.00  0.00     0.000 HD 
ATOM     17  C3*   A A   1     -10.330   7.356  71.653  1.00  0.00    -0.196 C  
ATOM     18  C2*   A A   1      -9.871   8.801  71.875  1.00  0.00    -0.324 C  
ATOM     19  H3*   A A   1     -10.220   6.742  73.519  1.00  0.00     0.000 HD 
ATOM     20  O3*   A A   1      -9.845   6.490  72.683  1.00  0.00    -0.168 OA 
ATOM     21  O2*   A A   1      -8.813   8.798  72.862  1.00  0.00    -0.362 OA 
BRANCH  15  22
ATOM     22  C5*   A A   1     -10.813   6.660  69.263  1.00  0.00    -0.289 C  
ATOM     23  O5*   A A   1     -12.097   6.621  69.879  1.00  0.00    -0.641 OA 
ATOM     24  H5*   A A   1     -12.769   6.441  69.234  1.00  0.00     0.000 HD 
ENDBRANCH  15  22
ENDBRANCH   8  13
TORSDOF 2
ENDMDL
MODEL       73
REMARK 921   NORMALIZED FREE ENERGY PREDICTED BY IDOCK:   -4.86 KCAL/MOL
REMARK 922        TOTAL FREE ENERGY PREDICTED BY IDOCK:   -5.90 KCAL/MOL
REMARK 923 INTER-LIGAND FREE ENERGY PREDICTED BY IDOCK:   -5.40 KCAL/MOL
REMARK 924 INTRA-LIGAND FREE ENERGY PREDICTED BY IDOCK:   -0.50 KCAL/MOL
REMARK 927      BINDING AFFINITY PREDICTED BY RF-SCORE:    0.00 PKD
ROOT
ATOM      1  N6    A A   1      -9.523  12.400  67.389  1.00  0.00    -0.182 NA 
ATOM      2  C6    A A   1      -9.831  13.600  66.763  1.00  0.00    -0.271 A  
ATOM      3  H61   A A   1      -9.703  11.489  66.967  1.00  0.00     0.000 HD 
ATOM      4  H62   A A   1      -9.978  12.408  68.303  1.00  0.00     0.000 HD 
ATOM      5  C5    A A   1      -9.584  14.857  67.346  1.00  0.00    -0.206 A  
ATOM      6  N7    A A   1      -9.048  15.221  68.561  1.00  0.00    -0.184 NA 
ATOM      7  C8    A A   1      -9.085  16.536  68.557  1.00  0.00    -0.231 A  
ATOM      8  N9    A A   1      -9.618  17.039  67.390  1.00  0.00    -0.243 NA 
ATOM      9  N1    A A   1     -10.422  13.562  65.550  1.00  0.00    -0.291 NA 
ATOM     10  C4    A A   1      -9.956  15.973  66.607  1.00  0.00    -0.267 A  
ATOM     11  C2    A A   1     -10.734  14.727  64.945  1.00  0.00    -0.417 A  
ATOM     12  N3    A A   1     -10.548  15.982  65.403  1.00  0.00    -0.426 NA 
ENDROOT
BRANCH   8  13
ATOM     13  C1*   A A   1      -9.799  18.447  67.159  1.00  0.00    -0.320 C  
ATOM     14  O4*   A A   1      -9.252  18.741  65.854  1.00  0.00    -0.457 OA 
ATOM     15  C4*   A A   1      -7.920  19.281  66.034  1.00  0.00    -0.243 C  
ATOM     16  H2*   A A   1      -9.625  21.345  68.718  1.00  0.00     0.000 HD 
ATOM     17  C3*   A A   1      -7.844  19.855  67.449  1.00  0.00    -0.285 C  
ATOM     18  C2*   A A   1      -9.188  19.499  68.094  1.00  0.00    -0.347 C  
ATOM     19  H3*   A A   1      -7.605  21.628  68.267  1.00  0.00     0.000 HD 
ATOM     20  O3*   A A   1      -7.652  21.271  67.388  1.00  0.00    -0.410 OA 
ATOM     21  O2*   A A   1     -10.003  20.694  68.139  1.00  0.00    -0.211 OA 
BRANCH  15  22
ATOM     22  C5*   A A   1      -6.877  18.175  65.814  1.00  0.00    -0.270 C  
ATOM     23  O5*   A A   1      -6.420  17.668  67.064  1.00  0.00    -0.144 OA 
ATOM     24  H5*   A A   1      -5.774  16.984  66.929  1.00  0.00     0.000 HD 
ENDBRANCH  15  22
ENDBRANCH   8  13
TORSDOF 2
ENDMDL
MODEL       74
REMARK 921   NORMALIZED FREE ENERGY PREDICTED BY IDOCK:   -4.86 KCAL/MOL
REMARK 922        TOTAL FREE ENERGY PREDICTED BY IDOCK:   -5.90 KCAL/MOL
REMARK 923 INTER-LIGAND FREE ENERGY PREDICTED BY IDOCK:   -6.44 KCAL/MOL
REMARK 924 INTRA-LIGAND FREE ENERGY PREDICTED BY IDOCK:    0.54 KCAL/MOL
REMARK 927      BINDING AFFINITY PREDICTED BY RF-SCORE:    0.00 PKD
ROOT
ATOM      1  N6    A A   1      -9.815   9.797  65.010  1.00  0.00    -0.421 NA 
ATOM      2  C6    A A   1     -10.454  10.480  66.035  1.00  0.00    -0.156 A  
ATOM      3  H61   A A   1      -9.783  10.138  64.049  1.00  0.00     0.000 HD 
ATOM      4  H62   A A   1     -10.201   8.853  64.985  1.00  0.00     0.000 HD 
ATOM      5  C5    A A   1     -10.499  10.008  67.361  1.00  0.00    -0.260 A  
ATOM      6  N7    A A   1     -10.000   8.869  67.952  1.00  0.00    -0.170 NA 
ATOM      7  C8    A A   1     -10.369   8.963  69.212  1.00  0.00    -0.213 A  
ATOM      8  N9    A A   1     -11.082  10.115  69.462  1.00  0.00    -0.241 NA 
ATOM      9  N1    A A   1     -11.088  11.635  65.745  1.00  0.00    -0.287 NA 
ATOM     10  C4    A A   1     -11.185  10.791  68.280  1.00  0.00    -0.297 A  
ATOM     11  C2    A A   1     -11.721  12.293  66.738  1.00  0.00    -0.342 A  
ATOM     12  N3    A A   1     -11.832  11.941  68.035  1.00  0.00    -0.526 NA 
ENDROOT
BRANCH   8  13
ATOM     13  C1*   A A   1     -11.628  10.430  70.755  1.00  0.00    -0.358 C  
ATOM     14  O4*   A A   1     -11.062   9.492  71.698  1.00  0.00    -0.371 OA 
ATOM     15  C4*   A A   1     -12.026   8.434  71.918  1.00  0.00    -0.338 C  
ATOM     16  H2*   A A   1     -14.450  11.336  72.195  1.00  0.00     0.000 HD 
ATOM     17  C3*   A A   1     -13.406   8.989  71.561  1.00  0.00    -0.339 C  
ATOM     18  C2*   A A   1     -13.140  10.396  71.017  1.00  0.00    -0.362 C  
ATOM     19  H3*   A A   1     -15.087   9.372  72.509  1.00  0.00     0.000 HD 
ATOM     20  O3*   A A   1     -14.230   9.028  72.730  1.00  0.00    -0.572 OA 
ATOM     21  O2*   A A   1     -13.514  11.357  72.033  1.00  0.00    -0.393 OA 
BRANCH  15  22
ATOM     22  C5*   A A   1     -11.666   7.215  71.055  1.00  0.00    -0.320 C  
ATOM     23  O5*   A A   1     -12.780   6.823  70.259  1.00  0.00    -0.474 OA 
ATOM     24  H5*   A A   1     -12.557   6.069  69.726  1.00  0.00     0.000 HD 
ENDBRANCH  15  22
ENDBRANCH   8  13
TORSDOF 2
ENDMDL
MODEL       75
REMARK 921   NORMALIZED FREE ENERGY PREDICTED BY IDOCK:   -4.84 KCAL/MOL
REMARK 922        TOTAL FREE ENERGY PREDICTED BY IDOCK:   -5.88 KCAL/MOL
REMARK 923 INTER-LIGAND FREE ENERGY PREDICTED BY IDOCK:   -5.27 KCAL/MOL
REMARK 924 INTRA-LIGAND FREE ENERGY PREDICTED BY IDOCK:   -0.61 KCAL/MOL
REMARK 927      BINDING AFFINITY PREDICTED BY RF-SCORE:    0.00 PKD
ROOT
ATOM      1  N6    A A   1      -7.442   7.971  67.724  1.00  0.00    -0.092 NA 
ATOM      2  C6    A A   1      -7.710   8.723  66.588  1.00  0.00    -0.093 A  
ATOM      3  H61   A A   1      -6.609   7.391  67.823  1.00  0.00     0.000 HD 
ATOM      4  H62   A A   1      -8.252   7.374  67.892  1.00  0.00     0.000 HD 
ATOM      5  C5    A A   1      -8.860   9.523  66.451  1.00  0.00    -0.144 A  
ATOM      6  N7    A A   1      -9.929   9.754  67.288  1.00  0.00    -0.180 NA 
ATOM      7  C8    A A   1     -10.704  10.576  66.614  1.00  0.00    -0.155 A  
ATOM      8  N9    A A   1     -10.181  10.890  65.379  1.00  0.00    -0.269 NA 
ATOM      9  N1    A A   1      -6.844   8.663  65.555  1.00  0.00    -0.074 NA 
ATOM     10  C4    A A   1      -9.003  10.212  65.253  1.00  0.00    -0.187 A  
ATOM     11  C2    A A   1      -7.111   9.383  64.445  1.00  0.00    -0.101 A  
ATOM     12  N3    A A   1      -8.173  10.178  64.200  1.00  0.00    -0.161 NA 
ENDROOT
BRANCH   8  13
ATOM     13  C1*   A A   1     -10.859  11.742  64.439  1.00  0.00    -0.334 C  
ATOM     14  O4*   A A   1     -10.077  12.951  64.314  1.00  0.00    -0.339 OA 
ATOM     15  C4*   A A   1     -10.676  13.965  65.157  1.00  0.00    -0.362 C  
ATOM     16  H2*   A A   1     -13.889  12.714  63.581  1.00  0.00     0.000 HD 
ATOM     17  C3*   A A   1     -12.141  13.581  65.368  1.00  0.00    -0.415 C  
ATOM     18  C2*   A A   1     -12.297  12.220  64.681  1.00  0.00    -0.369 C  
ATOM     19  H3*   A A   1     -13.901  14.329  64.907  1.00  0.00     0.000 HD 
ATOM     20  O3*   A A   1     -12.991  14.567  64.775  1.00  0.00    -0.562 OA 
ATOM     21  O2*   A A   1     -12.999  12.418  63.431  1.00  0.00    -0.723 OA 
BRANCH  15  22
ATOM     22  C5*   A A   1      -9.914  14.050  66.488  1.00  0.00    -0.284 C  
ATOM     23  O5*   A A   1      -8.613  13.489  66.353  1.00  0.00    -0.424 OA 
ATOM     24  H5*   A A   1      -8.142  13.541  67.176  1.00  0.00     0.000 HD 
ENDBRANCH  15  22
ENDBRANCH   8  13
TORSDOF 2
ENDMDL
MODEL       76
REMARK 921   NORMALIZED FREE ENERGY PREDICTED BY IDOCK:   -4.81 KCAL/MOL
REMARK 922        TOTAL FREE ENERGY PREDICTED BY IDOCK:   -5.85 KCAL/MOL
REMARK 923 INTER-LIGAND FREE ENERGY PREDICTED BY IDOCK:   -5.38 KCAL/MOL
REMARK 924 INTRA-LIGAND FREE ENERGY PREDICTED BY IDOCK:   -0.48 KCAL/MOL
REMARK 927      BINDING AFFINITY PREDICTED BY RF-SCORE:    0.00 PKD
ROOT
ATOM      1  N6    A A   1     -12.965  14.331  72.190  1.00  0.00    -0.354 NA 
ATOM      2  C6    A A   1     -12.746  13.191  71.428  1.00  0.00    -0.297 A  
ATOM      3  H61   A A   1     -13.324  14.302  73.144  1.00  0.00     0.000 HD 
ATOM      4  H62   A A   1     -13.580  14.943  71.652  1.00  0.00     0.000 HD 
ATOM      5  C5    A A   1     -12.252  13.232  70.111  1.00  0.00    -0.306 A  
ATOM      6  N7    A A   1     -11.902  14.280  69.288  1.00  0.00    -0.310 NA 
ATOM      7  C8    A A   1     -11.528  13.705  68.164  1.00  0.00    -0.313 A  
ATOM      8  N9    A A   1     -11.617  12.332  68.226  1.00  0.00    -0.310 NA 
ATOM      9  N1    A A   1     -13.046  11.990  71.963  1.00  0.00    -0.427 NA 
ATOM     10  C4    A A   1     -12.093  12.012  69.465  1.00  0.00    -0.212 A  
ATOM     11  C2    A A   1     -12.845  10.882  71.219  1.00  0.00    -0.433 A  
ATOM     12  N3    A A   1     -12.382  10.797  69.955  1.00  0.00    -0.316 NA 
ENDROOT
BRANCH   8  13
ATOM     13  C1*   A A   1     -11.299  11.479  67.112  1.00  0.00    -0.284 C  
ATOM     14  O4*   A A   1     -10.650  10.303  67.645  1.00  0.00    -0.223 OA 
ATOM     15  C4*   A A   1      -9.219  10.470  67.496  1.00  0.00    -0.142 C  
ATOM     16  H2*   A A   1     -10.185  11.617  64.013  1.00  0.00     0.000 HD 
ATOM     17  C3*   A A   1      -8.989  11.479  66.369  1.00  0.00    -0.197 C  
ATOM     18  C2*   A A   1     -10.390  11.955  65.971  1.00  0.00    -0.233 C  
ATOM     19  H3*   A A   1      -8.179  11.468  64.576  1.00  0.00     0.000 HD 
ATOM     20  O3*   A A   1      -8.322  10.841  65.276  1.00  0.00    -0.160 OA 
ATOM     21  O2*   A A   1     -10.748  11.322  64.720  1.00  0.00    -0.310 OA 
BRANCH  15  22
ATOM     22  C5*   A A   1      -8.612  10.953  68.822  1.00  0.00    -0.159 C  
ATOM     23  O5*   A A   1      -9.258  10.323  69.923  1.00  0.00    -0.389 OA 
ATOM     24  H5*   A A   1      -8.883  10.621  70.743  1.00  0.00     0.000 HD 
ENDBRANCH  15  22
ENDBRANCH   8  13
TORSDOF 2
ENDMDL
MODEL       77
REMARK 921   NORMALIZED FREE ENERGY PREDICTED BY IDOCK:   -4.81 KCAL/MOL
REMARK 922        TOTAL FREE ENERGY PREDICTED BY IDOCK:   -5.85 KCAL/MOL
REMARK 923 INTER-LIGAND FREE ENERGY PREDICTED BY IDOCK:   -5.26 KCAL/MOL
REMARK 924 INTRA-LIGAND FREE ENERGY PREDICTED BY IDOCK:   -0.58 KCAL/MOL
REMARK 927      BINDING AFFINITY PREDICTED BY RF-SCORE:    0.00 PKD
ROOT
ATOM      1  N6    A A   1     -12.880  12.802  65.046  1.00  0.00    -0.821 NA 
ATOM      2  C6    A A   1     -11.684  12.153  65.318  1.00  0.00    -0.308 A  
ATOM      3  H61   A A   1     -13.117  13.170  64.125  1.00  0.00     0.000 HD 
ATOM      4  H62   A A   1     -12.968  13.569  65.713  1.00  0.00     0.000 HD 
ATOM      5  C5    A A   1     -11.357  11.645  66.589  1.00  0.00    -0.270 A  
ATOM      6  N7    A A   1     -12.033  11.657  67.789  1.00  0.00    -0.623 NA 
ATOM      7  C8    A A   1     -11.223  11.050  68.630  1.00  0.00    -0.263 A  
ATOM      8  N9    A A   1     -10.054  10.642  68.025  1.00  0.00    -0.154 NA 
ATOM      9  N1    A A   1     -10.778  12.025  64.325  1.00  0.00    -0.308 NA 
ATOM     10  C4    A A   1     -10.119  11.029  66.717  1.00  0.00    -0.220 A  
ATOM     11  C2    A A   1      -9.609  11.406  64.591  1.00  0.00    -0.199 A  
ATOM     12  N3    A A   1      -9.187  10.885  65.762  1.00  0.00    -0.194 NA 
ENDROOT
BRANCH   8  13
ATOM     13  C1*   A A   1      -8.992   9.988  68.742  1.00  0.00    -0.145 C  
ATOM     14  O4*   A A   1      -8.702   8.755  68.046  1.00  0.00    -0.138 OA 
ATOM     15  C4*   A A   1      -9.382   7.677  68.736  1.00  0.00    -0.148 C  
ATOM     16  H2*   A A   1      -7.967   9.379  71.814  1.00  0.00     0.000 HD 
ATOM     17  C3*   A A   1      -9.630   8.136  70.174  1.00  0.00    -0.168 C  
ATOM     18  C2*   A A   1      -9.146   9.589  70.216  1.00  0.00    -0.253 C  
ATOM     19  H3*   A A   1      -9.044   7.596  71.973  1.00  0.00     0.000 HD 
ATOM     20  O3*   A A   1      -8.890   7.312  71.079  1.00  0.00    -0.142 OA 
ATOM     21  O2*   A A   1      -7.872   9.626  70.901  1.00  0.00    -0.317 OA 
BRANCH  15  22
ATOM     22  C5*   A A   1     -10.696   7.344  68.013  1.00  0.00    -0.127 C  
ATOM     23  O5*   A A   1     -10.619   7.724  66.642  1.00  0.00    -0.467 OA 
ATOM     24  H5*   A A   1     -11.431   7.518  66.195  1.00  0.00     0.000 HD 
ENDBRANCH  15  22
ENDBRANCH   8  13
TORSDOF 2
ENDMDL
MODEL       78
REMARK 921   NORMALIZED FREE ENERGY PREDICTED BY IDOCK:   -4.78 KCAL/MOL
REMARK 922        TOTAL FREE ENERGY PREDICTED BY IDOCK:   -5.81 KCAL/MOL
REMARK 923 INTER-LIGAND FREE ENERGY PREDICTED BY IDOCK:   -5.44 KCAL/MOL
REMARK 924 INTRA-LIGAND FREE ENERGY PREDICTED BY IDOCK:   -0.37 KCAL/MOL
REMARK 927      BINDING AFFINITY PREDICTED BY RF-SCORE:    0.00 PKD
ROOT
ATOM      1  N6    A A   1      -7.727   7.559  64.796  1.00  0.00    -0.110 NA 
ATOM      2  C6    A A   1      -8.655   8.463  65.294  1.00  0.00    -0.150 A  
ATOM      3  H61   A A   1      -7.421   6.734  65.313  1.00  0.00     0.000 HD 
ATOM      4  H62   A A   1      -6.892   8.087  64.542  1.00  0.00     0.000 HD 
ATOM      5  C5    A A   1      -9.078   9.601  64.581  1.00  0.00    -0.235 A  
ATOM      6  N7    A A   1      -8.727  10.098  63.345  1.00  0.00    -0.192 NA 
ATOM      7  C8    A A   1      -9.436  11.200  63.221  1.00  0.00    -0.332 A  
ATOM      8  N9    A A   1     -10.231  11.435  64.320  1.00  0.00    -0.287 NA 
ATOM      9  N1    A A   1      -9.156   8.259  66.530  1.00  0.00    -0.167 NA 
ATOM     10  C4    A A   1     -10.003  10.424  65.209  1.00  0.00    -0.309 A  
ATOM     11  C2    A A   1     -10.048   9.145  67.021  1.00  0.00    -0.249 A  
ATOM     12  N3    A A   1     -10.523  10.264  66.435  1.00  0.00    -0.199 NA 
ENDROOT
BRANCH   8  13
ATOM     13  C1*   A A   1     -11.071  12.597  64.441  1.00  0.00    -0.345 C  
ATOM     14  O4*   A A   1     -10.201  13.742  64.584  1.00  0.00    -0.412 OA 
ATOM     15  C4*   A A   1     -10.113  14.070  65.992  1.00  0.00    -0.315 C  
ATOM     16  H2*   A A   1     -13.873  13.599  65.858  1.00  0.00     0.000 HD 
ATOM     17  C3*   A A   1     -11.358  13.501  66.675  1.00  0.00    -0.322 C  
ATOM     18  C2*   A A   1     -12.097  12.731  65.575  1.00  0.00    -0.465 C  
ATOM     19  H3*   A A   1     -12.931  14.215  67.617  1.00  0.00     0.000 HD 
ATOM     20  O3*   A A   1     -12.157  14.568  67.193  1.00  0.00    -0.397 OA 
ATOM     21  O2*   A A   1     -13.238  13.516  65.156  1.00  0.00    -0.720 OA 
BRANCH  15  22
ATOM     22  C5*   A A   1      -8.824  13.481  66.584  1.00  0.00    -0.062 C  
ATOM     23  O5*   A A   1      -9.117  12.708  67.743  1.00  0.00    -0.176 OA 
ATOM     24  H5*   A A   1      -8.320  12.344  68.109  1.00  0.00     0.000 HD 
ENDBRANCH  15  22
ENDBRANCH   8  13
TORSDOF 2
ENDMDL
MODEL       79
REMARK 921   NORMALIZED FREE ENERGY PREDICTED BY IDOCK:   -4.77 KCAL/MOL
REMARK 922        TOTAL FREE ENERGY PREDICTED BY IDOCK:   -5.80 KCAL/MOL
REMARK 923 INTER-LIGAND FREE ENERGY PREDICTED BY IDOCK:   -5.45 KCAL/MOL
REMARK 924 INTRA-LIGAND FREE ENERGY PREDICTED BY IDOCK:   -0.35 KCAL/MOL
REMARK 927      BINDING AFFINITY PREDICTED BY RF-SCORE:    0.00 PKD
ROOT
ATOM      1  N6    A A   1     -13.520  14.067  65.722  1.00  0.00    -0.514 NA 
ATOM      2  C6    A A   1     -12.674  13.150  65.115  1.00  0.00    -0.405 A  
ATOM      3  H61   A A   1     -14.315  14.492  65.244  1.00  0.00     0.000 HD 
ATOM      4  H62   A A   1     -12.940  14.826  66.081  1.00  0.00     0.000 HD 
ATOM      5  C5    A A   1     -11.577  12.565  65.774  1.00  0.00    -0.392 A  
ATOM      6  N7    A A   1     -11.073  12.722  67.046  1.00  0.00    -0.267 NA 
ATOM      7  C8    A A   1     -10.022  11.930  67.085  1.00  0.00    -0.194 A  
ATOM      8  N9    A A   1      -9.827  11.265  65.895  1.00  0.00    -0.222 NA 
ATOM      9  N1    A A   1     -12.894  12.823  63.825  1.00  0.00    -0.710 NA 
ATOM     10  C4    A A   1     -10.809  11.671  65.038  1.00  0.00    -0.288 A  
ATOM     11  C2    A A   1     -12.065  11.942  63.229  1.00  0.00    -0.357 A  
ATOM     12  N3    A A   1     -10.988  11.322  63.755  1.00  0.00    -0.369 NA 
ENDROOT
BRANCH   8  13
ATOM     13  C1*   A A   1      -8.723  10.369  65.674  1.00  0.00    -0.171 C  
ATOM     14  O4*   A A   1      -9.277   9.052  65.459  1.00  0.00    -0.215 OA 
ATOM     15  C4*   A A   1      -9.191   8.317  66.705  1.00  0.00    -0.179 C  
ATOM     16  H2*   A A   1      -5.677   9.738  66.761  1.00  0.00     0.000 HD 
ATOM     17  C3*   A A   1      -8.082   8.957  67.541  1.00  0.00    -0.109 C  
ATOM     18  C2*   A A   1      -7.625  10.174  66.729  1.00  0.00    -0.105 C  
ATOM     19  H3*   A A   1      -6.325   8.420  68.246  1.00  0.00     0.000 HD 
ATOM     20  O3*   A A   1      -7.015   8.023  67.727  1.00  0.00    -0.074 OA 
ATOM     21  O2*   A A   1      -6.357   9.858  66.109  1.00  0.00    -0.071 OA 
BRANCH  15  22
ATOM     22  C5*   A A   1     -10.545   8.364  67.430  1.00  0.00    -0.243 C  
ATOM     23  O5*   A A   1     -11.317   7.209  67.115  1.00  0.00    -0.565 OA 
ATOM     24  H5*   A A   1     -12.154   7.237  67.563  1.00  0.00     0.000 HD 
ENDBRANCH  15  22
ENDBRANCH   8  13
TORSDOF 2
ENDMDL
MODEL       80
REMARK 921   NORMALIZED FREE ENERGY PREDICTED BY IDOCK:   -4.74 KCAL/MOL
REMARK 922        TOTAL FREE ENERGY PREDICTED BY IDOCK:   -5.77 KCAL/MOL
REMARK 923 INTER-LIGAND FREE ENERGY PREDICTED BY IDOCK:   -5.36 KCAL/MOL
REMARK 924 INTRA-LIGAND FREE ENERGY PREDICTED BY IDOCK:   -0.41 KCAL/MOL
REMARK 927      BINDING AFFINITY PREDICTED BY RF-SCORE:    0.00 PKD
ROOT
ATOM      1  N6    A A   1     -10.144  19.372  66.449  1.00  0.00    -0.407 NA 
ATOM      2  C6    A A   1     -10.331  18.186  67.145  1.00  0.00    -0.379 A  
ATOM      3  H61   A A   1     -10.096  20.284  66.904  1.00  0.00     0.000 HD 
ATOM      4  H62   A A   1     -10.873  19.425  65.736  1.00  0.00     0.000 HD 
ATOM      5  C5    A A   1     -10.397  16.928  66.517  1.00  0.00    -0.299 A  
ATOM      6  N7    A A   1     -10.324  16.553  65.194  1.00  0.00    -0.623 NA 
ATOM      7  C8    A A   1     -10.469  15.245  65.214  1.00  0.00    -0.411 A  
ATOM      8  N9    A A   1     -10.630  14.758  66.492  1.00  0.00    -0.293 NA 
ATOM      9  N1    A A   1     -10.483  18.242  68.485  1.00  0.00    -0.294 NA 
ATOM     10  C4    A A   1     -10.599  15.828  67.340  1.00  0.00    -0.313 A  
ATOM     11  C2    A A   1     -10.678  17.091  69.162  1.00  0.00    -0.253 A  
ATOM     12  N3    A A   1     -10.761  15.837  68.672  1.00  0.00    -0.250 NA 
ENDROOT
BRANCH   8  13
ATOM     13  C1*   A A   1     -10.845  13.364  66.775  1.00  0.00    -0.282 C  
ATOM     14  O4*   A A   1     -10.218  13.083  68.047  1.00  0.00    -0.220 OA 
ATOM     15  C4*   A A   1      -8.922  12.489  67.790  1.00  0.00    -0.184 C  
ATOM     16  H2*   A A   1     -10.883  10.423  65.288  1.00  0.00     0.000 HD 
ATOM     17  C3*   A A   1      -8.966  11.877  66.389  1.00  0.00    -0.180 C  
ATOM     18  C2*   A A   1     -10.338  12.267  65.829  1.00  0.00    -0.258 C  
ATOM     19  H3*   A A   1      -8.848  10.076  65.606  1.00  0.00     0.000 HD 
ATOM     20  O3*   A A   1      -8.821  10.457  66.476  1.00  0.00    -0.136 OA 
ATOM     21  O2*   A A   1     -11.196  11.103  65.874  1.00  0.00    -0.119 OA 
BRANCH  15  22
ATOM     22  C5*   A A   1      -7.827  13.560  67.906  1.00  0.00    -0.159 C  
ATOM     23  O5*   A A   1      -7.943  14.257  69.143  1.00  0.00    -0.299 OA 
ATOM     24  H5*   A A   1      -7.266  14.920  69.215  1.00  0.00     0.000 HD 
ENDBRANCH  15  22
ENDBRANCH   8  13
TORSDOF 2
ENDMDL
MODEL       81
REMARK 921   NORMALIZED FREE ENERGY PREDICTED BY IDOCK:   -4.74 KCAL/MOL
REMARK 922        TOTAL FREE ENERGY PREDICTED BY IDOCK:   -5.77 KCAL/MOL
REMARK 923 INTER-LIGAND FREE ENERGY PREDICTED BY IDOCK:   -5.50 KCAL/MOL
REMARK 924 INTRA-LIGAND FREE ENERGY PREDICTED BY IDOCK:   -0.27 KCAL/MOL
REMARK 927      BINDING AFFINITY PREDICTED BY RF-SCORE:    0.00 PKD
ROOT
ATOM      1  N6    A A   1     -10.979   8.167  68.065  1.00  0.00    -0.461 NA 
ATOM      2  C6    A A   1     -10.396   9.124  67.246  1.00  0.00    -0.270 A  
ATOM      3  H61   A A   1     -10.723   7.180  68.038  1.00  0.00     0.000 HD 
ATOM      4  H62   A A   1     -11.989   8.223  67.928  1.00  0.00     0.000 HD 
ATOM      5  C5    A A   1     -10.750  10.485  67.283  1.00  0.00    -0.277 A  
ATOM      6  N7    A A   1     -11.674  11.178  68.034  1.00  0.00    -0.576 NA 
ATOM      7  C8    A A   1     -11.570  12.423  67.617  1.00  0.00    -0.357 A  
ATOM      8  N9    A A   1     -10.617  12.565  66.632  1.00  0.00    -0.235 NA 
ATOM      9  N1    A A   1      -9.465   8.728  66.353  1.00  0.00    -0.208 NA 
ATOM     10  C4    A A   1     -10.090  11.327  66.397  1.00  0.00    -0.220 A  
ATOM     11  C2    A A   1      -8.907   9.655  65.547  1.00  0.00    -0.172 A  
ATOM     12  N3    A A   1      -9.165  10.978  65.490  1.00  0.00    -0.209 NA 
ENDROOT
BRANCH   8  13
ATOM     13  C1*   A A   1     -10.343  13.821  65.988  1.00  0.00    -0.308 C  
ATOM     14  O4*   A A   1      -9.095  14.315  66.527  1.00  0.00    -0.249 OA 
ATOM     15  C4*   A A   1      -9.401  15.288  67.555  1.00  0.00    -0.204 C  
ATOM     16  H2*   A A   1     -11.858  16.563  64.963  1.00  0.00     0.000 HD 
ATOM     17  C3*   A A   1     -10.806  15.825  67.277  1.00  0.00    -0.298 C  
ATOM     18  C2*   A A   1     -11.316  15.004  66.088  1.00  0.00    -0.270 C  
ATOM     19  H3*   A A   1     -11.612  17.552  66.787  1.00  0.00     0.000 HD 
ATOM     20  O3*   A A   1     -10.739  17.218  66.959  1.00  0.00    -0.270 OA 
ATOM     21  O2*   A A   1     -11.255  15.831  64.902  1.00  0.00    -0.396 OA 
BRANCH  15  22
ATOM     22  C5*   A A   1      -9.310  14.628  68.939  1.00  0.00    -0.160 C  
ATOM     23  O5*   A A   1     -10.517  14.835  69.668  1.00  0.00    -0.361 OA 
ATOM     24  H5*   A A   1     -10.461  14.427  70.523  1.00  0.00     0.000 HD 
ENDBRANCH  15  22
ENDBRANCH   8  13
TORSDOF 2
ENDMDL
MODEL       82
REMARK 921   NORMALIZED FREE ENERGY PREDICTED BY IDOCK:   -4.74 KCAL/MOL
REMARK 922        TOTAL FREE ENERGY PREDICTED BY IDOCK:   -5.77 KCAL/MOL
REMARK 923 INTER-LIGAND FREE ENERGY PREDICTED BY IDOCK:   -5.83 KCAL/MOL
REMARK 924 INTRA-LIGAND FREE ENERGY PREDICTED BY IDOCK:    0.06 KCAL/MOL
REMARK 927      BINDING AFFINITY PREDICTED BY RF-SCORE:    0.00 PKD
ROOT
ATOM      1  N6    A A   1     -12.170  11.642  63.162  1.00  0.00    -0.966 NA 
ATOM      2  C6    A A   1     -11.263  11.881  64.185  1.00  0.00    -0.376 A  
ATOM      3  H61   A A   1     -12.031  10.924  62.451  1.00  0.00     0.000 HD 
ATOM      4  H62   A A   1     -12.320  12.527  62.676  1.00  0.00     0.000 HD 
ATOM      5  C5    A A   1     -11.454  12.872  65.165  1.00  0.00    -0.313 A  
ATOM      6  N7    A A   1     -12.459  13.793  65.363  1.00  0.00    -0.473 NA 
ATOM      7  C8    A A   1     -12.083  14.468  66.428  1.00  0.00    -0.301 A  
ATOM      8  N9    A A   1     -10.880  14.022  66.930  1.00  0.00    -0.288 NA 
ATOM      9  N1    A A   1     -10.130  11.148  64.227  1.00  0.00    -0.297 NA 
ATOM     10  C4    A A   1     -10.456  13.006  66.122  1.00  0.00    -0.279 A  
ATOM     11  C2    A A   1      -9.241  11.387  65.213  1.00  0.00    -0.129 A  
ATOM     12  N3    A A   1      -9.314  12.305  66.199  1.00  0.00    -0.212 NA 
ENDROOT
BRANCH   8  13
ATOM     13  C1*   A A   1     -10.239  14.623  68.068  1.00  0.00    -0.231 C  
ATOM     14  O4*   A A   1     -10.822  15.934  68.245  1.00  0.00    -0.287 OA 
ATOM     15  C4*   A A   1      -9.931  16.908  67.649  1.00  0.00    -0.271 C  
ATOM     16  H2*   A A   1      -7.278  14.917  69.485  1.00  0.00     0.000 HD 
ATOM     17  C3*   A A   1      -8.534  16.286  67.601  1.00  0.00    -0.168 C  
ATOM     18  C2*   A A   1      -8.721  14.852  68.107  1.00  0.00    -0.164 C  
ATOM     19  H3*   A A   1      -6.778  16.640  68.414  1.00  0.00     0.000 HD 
ATOM     20  O3*   A A   1      -7.646  17.026  68.444  1.00  0.00    -0.200 OA 
ATOM     21  O2*   A A   1      -8.217  14.776  69.461  1.00  0.00    -0.083 OA 
BRANCH  15  22
ATOM     22  C5*   A A   1     -10.433  17.281  66.246  1.00  0.00    -0.268 C  
ATOM     23  O5*   A A   1      -9.942  18.563  65.867  1.00  0.00    -0.520 OA 
ATOM     24  H5*   A A   1     -10.253  18.794  64.999  1.00  0.00     0.000 HD 
ENDBRANCH  15  22
ENDBRANCH   8  13
TORSDOF 2
ENDMDL
MODEL       83
REMARK 921   NORMALIZED FREE ENERGY PREDICTED BY IDOCK:   -4.72 KCAL/MOL
REMARK 922        TOTAL FREE ENERGY PREDICTED BY IDOCK:   -5.75 KCAL/MOL
REMARK 923 INTER-LIGAND FREE ENERGY PREDICTED BY IDOCK:   -6.04 KCAL/MOL
REMARK 924 INTRA-LIGAND FREE ENERGY PREDICTED BY IDOCK:    0.29 KCAL/MOL
REMARK 927      BINDING AFFINITY PREDICTED BY RF-SCORE:    0.00 PKD
ROOT
ATOM      1  N6    A A   1     -10.030  10.439  62.418  1.00  0.00    -0.749 NA 
ATOM      2  C6    A A   1      -9.676  10.883  63.684  1.00  0.00    -0.329 A  
ATOM      3  H61   A A   1      -9.617   9.615  61.981  1.00  0.00     0.000 HD 
ATOM      4  H62   A A   1      -9.903  11.221  61.774  1.00  0.00     0.000 HD 
ATOM      5  C5    A A   1     -10.246  12.021  64.286  1.00  0.00    -0.318 A  
ATOM      6  N7    A A   1     -11.189  12.924  63.846  1.00  0.00    -0.412 NA 
ATOM      7  C8    A A   1     -11.306  13.785  64.834  1.00  0.00    -0.347 A  
ATOM      8  N9    A A   1     -10.484  13.477  65.895  1.00  0.00    -0.286 NA 
ATOM      9  N1    A A   1      -8.722  10.211  64.361  1.00  0.00    -0.186 NA 
ATOM     10  C4    A A   1      -9.786  12.354  65.554  1.00  0.00    -0.200 A  
ATOM     11  C2    A A   1      -8.367  10.649  65.586  1.00  0.00    -0.162 A  
ATOM     12  N3    A A   1      -8.838  11.719  66.260  1.00  0.00    -0.178 NA 
ENDROOT
BRANCH   8  13
ATOM     13  C1*   A A   1     -10.403  14.288  67.080  1.00  0.00    -0.262 C  
ATOM     14  O4*   A A   1      -9.814  13.472  68.118  1.00  0.00    -0.224 OA 
ATOM     15  C4*   A A   1     -10.883  12.956  68.948  1.00  0.00    -0.200 C  
ATOM     16  H2*   A A   1     -12.120  16.536  68.771  1.00  0.00     0.000 HD 
ATOM     17  C3*   A A   1     -12.083  13.890  68.785  1.00  0.00    -0.309 C  
ATOM     18  C2*   A A   1     -11.655  14.904  67.718  1.00  0.00    -0.339 C  
ATOM     19  H3*   A A   1     -13.116  15.112  69.930  1.00  0.00     0.000 HD 
ATOM     20  O3*   A A   1     -12.371  14.532  70.030  1.00  0.00    -0.321 OA 
ATOM     21  O2*   A A   1     -11.344  16.154  68.377  1.00  0.00    -0.366 OA 
BRANCH  15  22
ATOM     22  C5*   A A   1     -11.222  11.519  68.524  1.00  0.00    -0.258 C  
ATOM     23  O5*   A A   1     -12.080  11.526  67.387  1.00  0.00    -0.593 OA 
ATOM     24  H5*   A A   1     -12.290  10.637  67.125  1.00  0.00     0.000 HD 
ENDBRANCH  15  22
ENDBRANCH   8  13
TORSDOF 2
ENDMDL
MODEL       84
REMARK 921   NORMALIZED FREE ENERGY PREDICTED BY IDOCK:   -4.72 KCAL/MOL
REMARK 922        TOTAL FREE ENERGY PREDICTED BY IDOCK:   -5.74 KCAL/MOL
REMARK 923 INTER-LIGAND FREE ENERGY PREDICTED BY IDOCK:   -5.26 KCAL/MOL
REMARK 924 INTRA-LIGAND FREE ENERGY PREDICTED BY IDOCK:   -0.49 KCAL/MOL
REMARK 927      BINDING AFFINITY PREDICTED BY RF-SCORE:    0.00 PKD
ROOT
ATOM      1  N6    A A   1     -11.488   8.758  69.755  1.00  0.00    -0.430 NA 
ATOM      2  C6    A A   1     -10.534   9.698  69.391  1.00  0.00    -0.220 A  
ATOM      3  H61   A A   1     -11.264   7.912  70.279  1.00  0.00     0.000 HD 
ATOM      4  H62   A A   1     -11.972   8.470  68.904  1.00  0.00     0.000 HD 
ATOM      5  C5    A A   1     -10.842  10.865  68.667  1.00  0.00    -0.217 A  
ATOM      6  N7    A A   1     -12.027  11.347  68.155  1.00  0.00    -0.630 NA 
ATOM      7  C8    A A   1     -11.694  12.472  67.558  1.00  0.00    -0.374 A  
ATOM      8  N9    A A   1     -10.347  12.739  67.664  1.00  0.00    -0.218 NA 
ATOM      9  N1    A A   1      -9.245   9.471  69.721  1.00  0.00    -0.192 NA 
ATOM     10  C4    A A   1      -9.783  11.710  68.362  1.00  0.00    -0.199 A  
ATOM     11  C2    A A   1      -8.315  10.377  69.356  1.00  0.00    -0.142 A  
ATOM     12  N3    A A   1      -8.489  11.522  68.665  1.00  0.00    -0.146 NA 
ENDROOT
BRANCH   8  13
ATOM     13  C1*   A A   1      -9.731  13.892  67.063  1.00  0.00    -0.250 C  
ATOM     14  O4*   A A   1      -9.207  14.707  68.136  1.00  0.00    -0.181 OA 
ATOM     15  C4*   A A   1     -10.156  15.768  68.402  1.00  0.00    -0.222 C  
ATOM     16  H2*   A A   1     -10.182  16.059  64.621  1.00  0.00     0.000 HD 
ATOM     17  C3*   A A   1     -10.995  15.962  67.138  1.00  0.00    -0.214 C  
ATOM     18  C2*   A A   1     -10.530  14.860  66.180  1.00  0.00    -0.306 C  
ATOM     19  H3*   A A   1     -11.279  17.384  65.808  1.00  0.00     0.000 HD 
ATOM     20  O3*   A A   1     -10.757  17.263  66.593  1.00  0.00    -0.220 OA 
ATOM     21  O2*   A A   1      -9.687  15.460  65.169  1.00  0.00    -0.221 OA 
BRANCH  15  22
ATOM     22  C5*   A A   1     -11.029  15.393  69.609  1.00  0.00    -0.284 C  
ATOM     23  O5*   A A   1     -12.410  15.496  69.275  1.00  0.00    -0.590 OA 
ATOM     24  H5*   A A   1     -12.950  15.265  70.021  1.00  0.00     0.000 HD 
ENDBRANCH  15  22
ENDBRANCH   8  13
TORSDOF 2
ENDMDL
MODEL       85
REMARK 921   NORMALIZED FREE ENERGY PREDICTED BY IDOCK:   -4.71 KCAL/MOL
REMARK 922        TOTAL FREE ENERGY PREDICTED BY IDOCK:   -5.73 KCAL/MOL
REMARK 923 INTER-LIGAND FREE ENERGY PREDICTED BY IDOCK:   -5.33 KCAL/MOL
REMARK 924 INTRA-LIGAND FREE ENERGY PREDICTED BY IDOCK:   -0.40 KCAL/MOL
REMARK 927      BINDING AFFINITY PREDICTED BY RF-SCORE:    0.00 PKD
ROOT
ATOM      1  N6    A A   1     -10.539  10.264  67.296  1.00  0.00    -0.257 NA 
ATOM      2  C6    A A   1     -10.526  11.549  66.772  1.00  0.00    -0.239 A  
ATOM      3  H61   A A   1     -11.070   9.499  66.880  1.00  0.00     0.000 HD 
ATOM      4  H62   A A   1     -10.823  10.336  68.273  1.00  0.00     0.000 HD 
ATOM      5  C5    A A   1      -9.793  12.605  67.347  1.00  0.00    -0.205 A  
ATOM      6  N7    A A   1      -8.990  12.670  68.464  1.00  0.00    -0.107 NA 
ATOM      7  C8    A A   1      -8.592  13.923  68.511  1.00  0.00    -0.137 A  
ATOM      8  N9    A A   1      -9.099  14.670  67.471  1.00  0.00    -0.184 NA 
ATOM      9  N1    A A   1     -11.272  11.808  65.678  1.00  0.00    -0.299 NA 
ATOM     10  C4    A A   1      -9.883  13.842  66.721  1.00  0.00    -0.275 A  
ATOM     11  C2    A A   1     -11.270  13.061  65.176  1.00  0.00    -0.293 A  
ATOM     12  N3    A A   1     -10.614  14.145  65.638  1.00  0.00    -0.296 NA 
ENDROOT
BRANCH   8  13
ATOM     13  C1*   A A   1      -8.839  16.077  67.322  1.00  0.00    -0.190 C  
ATOM     14  O4*   A A   1      -8.977  16.679  68.629  1.00  0.00    -0.228 OA 
ATOM     15  C4*   A A   1     -10.296  17.271  68.717  1.00  0.00    -0.358 C  
ATOM     16  H2*   A A   1      -9.424  18.590  65.271  1.00  0.00     0.000 HD 
ATOM     17  C3*   A A   1     -10.775  17.541  67.290  1.00  0.00    -0.222 C  
ATOM     18  C2*   A A   1      -9.684  16.955  66.388  1.00  0.00    -0.284 C  
ATOM     19  H3*   A A   1     -11.219  19.117  66.200  1.00  0.00     0.000 HD 
ATOM     20  O3*   A A   1     -10.921  18.949  67.086  1.00  0.00    -0.410 OA 
ATOM     21  O2*   A A   1      -8.901  18.047  65.850  1.00  0.00    -0.504 OA 
BRANCH  15  22
ATOM     22  C5*   A A   1     -11.244  16.320  69.463  1.00  0.00    -0.308 C  
ATOM     23  O5*   A A   1     -12.114  15.666  68.545  1.00  0.00    -0.533 OA 
ATOM     24  H5*   A A   1     -12.701  15.078  69.005  1.00  0.00     0.000 HD 
ENDBRANCH  15  22
ENDBRANCH   8  13
TORSDOF 2
ENDMDL
MODEL       86
REMARK 921   NORMALIZED FREE ENERGY PREDICTED BY IDOCK:   -4.69 KCAL/MOL
REMARK 922        TOTAL FREE ENERGY PREDICTED BY IDOCK:   -5.72 KCAL/MOL
REMARK 923 INTER-LIGAND FREE ENERGY PREDICTED BY IDOCK:   -5.82 KCAL/MOL
REMARK 924 INTRA-LIGAND FREE ENERGY PREDICTED BY IDOCK:    0.10 KCAL/MOL
REMARK 927      BINDING AFFINITY PREDICTED BY RF-SCORE:    0.00 PKD
ROOT
ATOM      1  N6    A A   1      -8.852  11.215  69.259  1.00  0.00    -0.379 NA 
ATOM      2  C6    A A   1      -9.549  12.054  68.401  1.00  0.00    -0.190 A  
ATOM      3  H61   A A   1      -9.270  10.393  69.695  1.00  0.00     0.000 HD 
ATOM      4  H62   A A   1      -8.468  11.794  70.006  1.00  0.00     0.000 HD 
ATOM      5  C5    A A   1      -8.973  13.188  67.799  1.00  0.00    -0.194 A  
ATOM      6  N7    A A   1      -7.714  13.740  67.888  1.00  0.00    -0.143 NA 
ATOM      7  C8    A A   1      -7.767  14.807  67.119  1.00  0.00    -0.116 A  
ATOM      8  N9    A A   1      -9.004  14.967  66.534  1.00  0.00    -0.271 NA 
ATOM      9  N1    A A   1     -10.848  11.787  68.151  1.00  0.00    -0.206 NA 
ATOM     10  C4    A A   1      -9.794  13.943  66.971  1.00  0.00    -0.257 A  
ATOM     11  C2    A A   1     -11.531  12.609  67.328  1.00  0.00    -0.342 A  
ATOM     12  N3    A A   1     -11.089  13.719  66.700  1.00  0.00    -0.307 NA 
ENDROOT
BRANCH   8  13
ATOM     13  C1*   A A   1      -9.325  16.078  65.679  1.00  0.00    -0.089 C  
ATOM     14  O4*   A A   1      -8.303  17.081  65.879  1.00  0.00    -0.515 OA 
ATOM     15  C4*   A A   1      -8.817  18.072  66.802  1.00  0.00    -0.263 C  
ATOM     16  H2*   A A   1     -11.903  17.831  64.612  1.00  0.00     0.000 HD 
ATOM     17  C3*   A A   1     -10.344  18.007  66.743  1.00  0.00    -0.367 C  
ATOM     18  C2*   A A   1     -10.656  16.832  65.809  1.00  0.00    -0.250 C  
ATOM     19  H3*   A A   1     -11.811  19.196  66.191  1.00  0.00     0.000 HD 
ATOM     20  O3*   A A   1     -10.863  19.236  66.227  1.00  0.00    -0.383 OA 
ATOM     21  O2*   A A   1     -11.079  17.365  64.532  1.00  0.00    -1.008 OA 
BRANCH  15  22
ATOM     22  C5*   A A   1      -8.292  17.786  68.217  1.00  0.00    -0.276 C  
ATOM     23  O5*   A A   1      -8.472  18.926  69.053  1.00  0.00    -0.263 OA 
ATOM     24  H5*   A A   1      -8.148  18.749  69.927  1.00  0.00     0.000 HD 
ENDBRANCH  15  22
ENDBRANCH   8  13
TORSDOF 2
ENDMDL
MODEL       87
REMARK 921   NORMALIZED FREE ENERGY PREDICTED BY IDOCK:   -4.69 KCAL/MOL
REMARK 922        TOTAL FREE ENERGY PREDICTED BY IDOCK:   -5.71 KCAL/MOL
REMARK 923 INTER-LIGAND FREE ENERGY PREDICTED BY IDOCK:   -5.24 KCAL/MOL
REMARK 924 INTRA-LIGAND FREE ENERGY PREDICTED BY IDOCK:   -0.47 KCAL/MOL
REMARK 927      BINDING AFFINITY PREDICTED BY RF-SCORE:    0.00 PKD
ROOT
ATOM      1  N6    A A   1     -13.913   8.796  72.862  1.00  0.00    -1.011 NA 
ATOM      2  C6    A A   1     -12.612   8.868  72.386  1.00  0.00    -0.353 A  
ATOM      3  H61   A A   1     -14.193   8.179  73.625  1.00  0.00     0.000 HD 
ATOM      4  H62   A A   1     -14.518   8.591  72.066  1.00  0.00     0.000 HD 
ATOM      5  C5    A A   1     -12.226   9.720  71.333  1.00  0.00    -0.397 A  
ATOM      6  N7    A A   1     -12.938  10.605  70.554  1.00  0.00    -0.282 NA 
ATOM      7  C8    A A   1     -12.047  11.100  69.721  1.00  0.00    -0.344 A  
ATOM      8  N9    A A   1     -10.790  10.576  69.930  1.00  0.00    -0.281 NA 
ATOM      9  N1    A A   1     -11.677   8.067  72.936  1.00  0.00    -0.294 NA 
ATOM     10  C4    A A   1     -10.891   9.678  70.953  1.00  0.00    -0.339 A  
ATOM     11  C2    A A   1     -10.414   8.126  72.465  1.00  0.00    -0.339 A  
ATOM     12  N3    A A   1      -9.930   8.895  71.468  1.00  0.00    -0.296 NA 
ENDROOT
BRANCH   8  13
ATOM     13  C1*   A A   1      -9.654  10.931  69.122  1.00  0.00    -0.106 C  
ATOM     14  O4*   A A   1     -10.032  10.736  67.741  1.00  0.00    -0.167 OA 
ATOM     15  C4*   A A   1      -9.518   9.453  67.309  1.00  0.00    -0.133 C  
ATOM     16  H2*   A A   1      -6.371  10.649  69.051  1.00  0.00     0.000 HD 
ATOM     17  C3*   A A   1      -8.346   9.095  68.223  1.00  0.00    -0.120 C  
ATOM     18  C2*   A A   1      -8.306  10.210  69.273  1.00  0.00    -0.158 C  
ATOM     19  H3*   A A   1      -6.406   8.826  68.031  1.00  0.00     0.000 HD 
ATOM     20  O3*   A A   1      -7.135   9.049  67.464  1.00  0.00    -0.075 OA 
ATOM     21  O2*   A A   1      -7.205  11.094  68.958  1.00  0.00    -0.100 OA 
BRANCH  15  22
ATOM     22  C5*   A A   1     -10.632   8.397  67.377  1.00  0.00    -0.243 C  
ATOM     23  O5*   A A   1     -10.500   7.610  68.557  1.00  0.00    -0.200 OA 
ATOM     24  H5*   A A   1     -11.189   6.958  68.599  1.00  0.00     0.000 HD 
ENDBRANCH  15  22
ENDBRANCH   8  13
TORSDOF 2
ENDMDL
MODEL       88
REMARK 921   NORMALIZED FREE ENERGY PREDICTED BY IDOCK:   -4.64 KCAL/MOL
REMARK 922        TOTAL FREE ENERGY PREDICTED BY IDOCK:   -5.66 KCAL/MOL
REMARK 923 INTER-LIGAND FREE ENERGY PREDICTED BY IDOCK:   -6.32 KCAL/MOL
REMARK 924 INTRA-LIGAND FREE ENERGY PREDICTED BY IDOCK:    0.66 KCAL/MOL
REMARK 927      BINDING AFFINITY PREDICTED BY RF-SCORE:    0.00 PKD
ROOT
ATOM      1  N6    A A   1      -8.898   7.132  66.171  1.00  0.00    -0.154 NA 
ATOM      2  C6    A A   1      -9.580   8.154  66.817  1.00  0.00    -0.217 A  
ATOM      3  H61   A A   1      -8.659   6.250  66.624  1.00  0.00     0.000 HD 
ATOM      4  H62   A A   1      -8.033   7.529  65.802  1.00  0.00     0.000 HD 
ATOM      5  C5    A A   1      -9.910   9.372  66.193  1.00  0.00    -0.285 A  
ATOM      6  N7    A A   1      -9.668   9.854  64.926  1.00  0.00    -0.301 NA 
ATOM      7  C8    A A   1     -10.195  11.060  64.926  1.00  0.00    -0.311 A  
ATOM      8  N9    A A   1     -10.770  11.377  66.137  1.00  0.00    -0.270 NA 
ATOM      9  N1    A A   1      -9.920   7.986  68.112  1.00  0.00    -0.178 NA 
ATOM     10  C4    A A   1     -10.584  10.308  66.966  1.00  0.00    -0.239 A  
ATOM     11  C2    A A   1     -10.572   8.983  68.745  1.00  0.00    -0.169 A  
ATOM     12  N3    A A   1     -10.936  10.186  68.255  1.00  0.00    -0.255 NA 
ENDROOT
BRANCH   8  13
ATOM     13  C1*   A A   1     -11.380  12.653  66.401  1.00  0.00    -0.331 C  
ATOM     14  O4*   A A   1     -12.581  12.727  65.599  1.00  0.00    -0.596 OA 
ATOM     15  C4*   A A   1     -12.280  13.492  64.406  1.00  0.00    -0.390 C  
ATOM     16  H2*   A A   1     -10.598  15.818  66.883  1.00  0.00     0.000 HD 
ATOM     17  C3*   A A   1     -11.069  14.373  64.717  1.00  0.00    -0.394 C  
ATOM     18  C2*   A A   1     -10.637  13.969  66.131  1.00  0.00    -0.290 C  
ATOM     19  H3*   A A   1     -10.693  16.299  64.852  1.00  0.00     0.000 HD 
ATOM     20  O3*   A A   1     -11.445  15.752  64.659  1.00  0.00    -0.393 OA 
ATOM     21  O2*   A A   1     -11.059  15.003  67.050  1.00  0.00    -0.324 OA 
BRANCH  15  22
ATOM     22  C5*   A A   1     -12.001  12.538  63.234  1.00  0.00    -0.426 C  
ATOM     23  O5*   A A   1     -13.094  11.644  63.050  1.00  0.00    -0.798 OA 
ATOM     24  H5*   A A   1     -12.921  11.054  62.326  1.00  0.00     0.000 HD 
ENDBRANCH  15  22
ENDBRANCH   8  13
TORSDOF 2
ENDMDL
MODEL       89
REMARK 921   NORMALIZED FREE ENERGY PREDICTED BY IDOCK:   -4.63 KCAL/MOL
REMARK 922        TOTAL FREE ENERGY PREDICTED BY IDOCK:   -5.65 KCAL/MOL
REMARK 923 INTER-LIGAND FREE ENERGY PREDICTED BY IDOCK:   -5.23 KCAL/MOL
REMARK 924 INTRA-LIGAND FREE ENERGY PREDICTED BY IDOCK:   -0.42 KCAL/MOL
REMARK 927      BINDING AFFINITY PREDICTED BY RF-SCORE:    0.00 PKD
ROOT
ATOM      1  N6    A A   1      -8.017   8.205  66.204  1.00  0.00    -0.098 NA 
ATOM      2  C6    A A   1      -8.244   8.347  67.565  1.00  0.00    -0.125 A  
ATOM      3  H61   A A   1      -7.171   7.783  65.821  1.00  0.00     0.000 HD 
ATOM      4  H62   A A   1      -8.115   9.129  65.780  1.00  0.00     0.000 HD 
ATOM      5  C5    A A   1      -9.412   8.930  68.093  1.00  0.00    -0.143 A  
ATOM      6  N7    A A   1     -10.523   9.477  67.490  1.00  0.00    -0.259 NA 
ATOM      7  C8    A A   1     -11.276   9.881  68.492  1.00  0.00    -0.072 A  
ATOM      8  N9    A A   1     -10.701   9.615  69.715  1.00  0.00    -0.232 NA 
ATOM      9  N1    A A   1      -7.291   7.933  68.426  1.00  0.00    -0.099 NA 
ATOM     10  C4    A A   1      -9.498   9.016  69.476  1.00  0.00    -0.164 A  
ATOM     11  C2    A A   1      -7.504   8.083  69.749  1.00  0.00    -0.089 A  
ATOM     12  N3    A A   1      -8.575   8.624  70.367  1.00  0.00    -0.142 NA 
ENDROOT
BRANCH   8  13
ATOM     13  C1*   A A   1     -11.312   9.993  70.962  1.00  0.00    -0.357 C  
ATOM     14  O4*   A A   1     -10.928   9.005  71.944  1.00  0.00    -0.352 OA 
ATOM     15  C4*   A A   1     -12.016   8.059  72.082  1.00  0.00    -0.348 C  
ATOM     16  H2*   A A   1     -14.125  11.208  72.175  1.00  0.00     0.000 HD 
ATOM     17  C3*   A A   1     -13.295   8.758  71.618  1.00  0.00    -0.359 C  
ATOM     18  C2*   A A   1     -12.835  10.126  71.102  1.00  0.00    -0.399 C  
ATOM     19  H3*   A A   1     -14.994   9.326  72.430  1.00  0.00     0.000 HD 
ATOM     20  O3*   A A   1     -14.200   8.892  72.718  1.00  0.00    -0.557 OA 
ATOM     21  O2*   A A   1     -13.182  11.126  72.088  1.00  0.00    -0.481 OA 
BRANCH  15  22
ATOM     22  C5*   A A   1     -11.722   6.804  71.246  1.00  0.00    -0.336 C  
ATOM     23  O5*   A A   1     -12.343   6.901  69.968  1.00  0.00    -0.619 OA 
ATOM     24  H5*   A A   1     -12.162   6.125  69.452  1.00  0.00     0.000 HD 
ENDBRANCH  15  22
ENDBRANCH   8  13
TORSDOF 2
ENDMDL
MODEL       90
REMARK 921   NORMALIZED FREE ENERGY PREDICTED BY IDOCK:   -4.63 KCAL/MOL
REMARK 922        TOTAL FREE ENERGY PREDICTED BY IDOCK:   -5.65 KCAL/MOL
REMARK 923 INTER-LIGAND FREE ENERGY PREDICTED BY IDOCK:   -5.83 KCAL/MOL
REMARK 924 INTRA-LIGAND FREE ENERGY PREDICTED BY IDOCK:    0.18 KCAL/MOL
REMARK 927      BINDING AFFINITY PREDICTED BY RF-SCORE:    0.00 PKD
ROOT
ATOM      1  N6    A A   1     -11.747  16.488  71.935  1.00  0.00    -0.615 NA 
ATOM      2  C6    A A   1     -11.488  16.074  70.636  1.00  0.00    -0.402 A  
ATOM      3  H61   A A   1     -11.537  17.428  72.273  1.00  0.00     0.000 HD 
ATOM      4  H62   A A   1     -11.286  15.829  72.563  1.00  0.00     0.000 HD 
ATOM      5  C5    A A   1     -11.778  14.778  70.171  1.00  0.00    -0.301 A  
ATOM      6  N7    A A   1     -12.319  13.674  70.793  1.00  0.00    -0.361 NA 
ATOM      7  C8    A A   1     -12.331  12.744  69.861  1.00  0.00    -0.070 A  
ATOM      8  N9    A A   1     -11.825  13.200  68.664  1.00  0.00    -0.325 NA 
ATOM      9  N1    A A   1     -10.905  16.944  69.785  1.00  0.00    -0.183 NA 
ATOM     10  C4    A A   1     -11.453  14.500  68.850  1.00  0.00    -0.300 A  
ATOM     11  C2    A A   1     -10.641  16.539  68.526  1.00  0.00    -0.318 A  
ATOM     12  N3    A A   1     -10.870  15.330  67.972  1.00  0.00    -0.278 NA 
ENDROOT
BRANCH   8  13
ATOM     13  C1*   A A   1     -11.698  12.362  67.502  1.00  0.00    -0.357 C  
ATOM     14  O4*   A A   1     -12.016  11.012  67.910  1.00  0.00    -0.620 OA 
ATOM     15  C4*   A A   1     -10.773  10.306  68.144  1.00  0.00    -0.246 C  
ATOM     16  H2*   A A   1      -9.780  11.916  64.859  1.00  0.00     0.000 HD 
ATOM     17  C3*   A A   1      -9.681  11.021  67.347  1.00  0.00    -0.168 C  
ATOM     18  C2*   A A   1     -10.372  12.245  66.737  1.00  0.00    -0.217 C  
ATOM     19  H3*   A A   1      -8.494  10.592  65.837  1.00  0.00     0.000 HD 
ATOM     20  O3*   A A   1      -9.173  10.149  66.333  1.00  0.00    -0.152 OA 
ATOM     21  O2*   A A   1     -10.601  11.988  65.332  1.00  0.00    -0.260 OA 
BRANCH  15  22
ATOM     22  C5*   A A   1     -10.459  10.292  69.648  1.00  0.00    -0.253 C  
ATOM     23  O5*   A A   1      -9.052  10.344  69.862  1.00  0.00    -0.403 OA 
ATOM     24  H5*   A A   1      -8.857  10.335  70.791  1.00  0.00     0.000 HD 
ENDBRANCH  15  22
ENDBRANCH   8  13
TORSDOF 2
ENDMDL
MODEL       91
REMARK 921   NORMALIZED FREE ENERGY PREDICTED BY IDOCK:   -4.63 KCAL/MOL
REMARK 922        TOTAL FREE ENERGY PREDICTED BY IDOCK:   -5.65 KCAL/MOL
REMARK 923 INTER-LIGAND FREE ENERGY PREDICTED BY IDOCK:   -5.01 KCAL/MOL
REMARK 924 INTRA-LIGAND FREE ENERGY PREDICTED BY IDOCK:   -0.63 KCAL/MOL
REMARK 927      BINDING AFFINITY PREDICTED BY RF-SCORE:    0.00 PKD
ROOT
ATOM      1  N6    A A   1     -13.092  14.215  65.041  1.00  0.00    -0.681 NA 
ATOM      2  C6    A A   1     -11.821  14.145  65.595  1.00  0.00    -0.375 A  
ATOM      3  H61   A A   1     -13.425  15.020  64.510  1.00  0.00     0.000 HD 
ATOM      4  H62   A A   1     -13.762  14.048  65.792  1.00  0.00     0.000 HD 
ATOM      5  C5    A A   1     -11.363  13.034  66.327  1.00  0.00    -0.317 A  
ATOM      6  N7    A A   1     -11.968  11.848  66.681  1.00  0.00    -0.564 NA 
ATOM      7  C8    A A   1     -11.056  11.209  67.381  1.00  0.00    -0.307 A  
ATOM      8  N9    A A   1      -9.886  11.928  67.493  1.00  0.00    -0.186 NA 
ATOM      9  N1    A A   1     -10.995  15.202  65.449  1.00  0.00    -0.354 NA 
ATOM     10  C4    A A   1     -10.072  13.108  66.833  1.00  0.00    -0.245 A  
ATOM     11  C2    A A   1      -9.764  15.141  65.999  1.00  0.00    -0.330 A  
ATOM     12  N3    A A   1      -9.219  14.138  66.718  1.00  0.00    -0.265 NA 
ENDROOT
BRANCH   8  13
ATOM     13  C1*   A A   1      -8.752  11.459  68.243  1.00  0.00    -0.160 C  
ATOM     14  O4*   A A   1      -7.646  11.343  67.319  1.00  0.00    -0.122 OA 
ATOM     15  C4*   A A   1      -7.536   9.955  66.920  1.00  0.00    -0.092 C  
ATOM     16  H2*   A A   1      -7.959   9.337  70.637  1.00  0.00     0.000 HD 
ATOM     17  C3*   A A   1      -8.194   9.109  68.011  1.00  0.00    -0.112 C  
ATOM     18  C2*   A A   1      -8.784  10.122  68.997  1.00  0.00    -0.161 C  
ATOM     19  H3*   A A   1      -7.621   7.753  69.317  1.00  0.00     0.000 HD 
ATOM     20  O3*   A A   1      -7.213   8.279  68.639  1.00  0.00    -0.083 OA 
ATOM     21  O2*   A A   1      -7.938  10.164  70.170  1.00  0.00    -0.160 OA 
BRANCH  15  22
ATOM     22  C5*   A A   1      -8.214   9.750  65.557  1.00  0.00    -0.129 C  
ATOM     23  O5*   A A   1      -8.282  10.982  64.845  1.00  0.00    -0.373 OA 
ATOM     24  H5*   A A   1      -8.702  10.855  64.003  1.00  0.00     0.000 HD 
ENDBRANCH  15  22
ENDBRANCH   8  13
TORSDOF 2
ENDMDL
MODEL       92
REMARK 921   NORMALIZED FREE ENERGY PREDICTED BY IDOCK:   -4.62 KCAL/MOL
REMARK 922        TOTAL FREE ENERGY PREDICTED BY IDOCK:   -5.64 KCAL/MOL
REMARK 923 INTER-LIGAND FREE ENERGY PREDICTED BY IDOCK:   -5.28 KCAL/MOL
REMARK 924 INTRA-LIGAND FREE ENERGY PREDICTED BY IDOCK:   -0.36 KCAL/MOL
REMARK 927      BINDING AFFINITY PREDICTED BY RF-SCORE:    0.00 PKD
ROOT
ATOM      1  N6    A A   1      -6.210  11.614  70.445  1.00  0.00    -0.438 NA 
ATOM      2  C6    A A   1      -6.675  12.494  69.479  1.00  0.00     0.019 A  
ATOM      3  H61   A A   1      -5.480  11.858  71.115  1.00  0.00     0.000 HD 
ATOM      4  H62   A A   1      -5.911  10.764  69.965  1.00  0.00     0.000 HD 
ATOM      5  C5    A A   1      -7.682  12.158  68.554  1.00  0.00    -0.119 A  
ATOM      6  N7    A A   1      -8.397  10.999  68.350  1.00  0.00    -0.132 NA 
ATOM      7  C8    A A   1      -9.183  11.272  67.330  1.00  0.00    -0.162 A  
ATOM      8  N9    A A   1      -9.009  12.558  66.869  1.00  0.00    -0.210 NA 
ATOM      9  N1    A A   1      -6.119  13.721  69.402  1.00  0.00    -0.097 NA 
ATOM     10  C4    A A   1      -8.039  13.136  67.635  1.00  0.00    -0.176 A  
ATOM     11  C2    A A   1      -6.561  14.574  68.454  1.00  0.00    -0.103 A  
ATOM     12  N3    A A   1      -7.511  14.364  67.519  1.00  0.00    -0.179 NA 
ENDROOT
BRANCH   8  13
ATOM     13  C1*   A A   1      -9.727  13.084  65.738  1.00  0.00    -0.145 C  
ATOM     14  O4*   A A   1     -10.418  14.273  66.185  1.00  0.00    -0.279 OA 
ATOM     15  C4*   A A   1     -11.793  13.915  66.468  1.00  0.00    -0.414 C  
ATOM     16  H2*   A A   1     -11.516  12.099  63.152  1.00  0.00     0.000 HD 
ATOM     17  C3*   A A   1     -12.114  12.651  65.669  1.00  0.00    -0.443 C  
ATOM     18  C2*   A A   1     -10.790  12.255  65.006  1.00  0.00    -0.298 C  
ATOM     19  H3*   A A   1     -13.322  12.149  64.200  1.00  0.00     0.000 HD 
ATOM     20  O3*   A A   1     -13.122  12.935  64.696  1.00  0.00    -0.742 OA 
ATOM     21  O2*   A A   1     -10.857  12.613  63.605  1.00  0.00    -0.426 OA 
BRANCH  15  22
ATOM     22  C5*   A A   1     -11.972  13.693  67.977  1.00  0.00    -0.350 C  
ATOM     23  O5*   A A   1     -12.523  14.855  68.589  1.00  0.00    -0.582 OA 
ATOM     24  H5*   A A   1     -12.633  14.717  69.522  1.00  0.00     0.000 HD 
ENDBRANCH  15  22
ENDBRANCH   8  13
TORSDOF 2
ENDMDL
MODEL       93
REMARK 921   NORMALIZED FREE ENERGY PREDICTED BY IDOCK:   -4.60 KCAL/MOL
REMARK 922        TOTAL FREE ENERGY PREDICTED BY IDOCK:   -5.61 KCAL/MOL
REMARK 923 INTER-LIGAND FREE ENERGY PREDICTED BY IDOCK:   -5.10 KCAL/MOL
REMARK 924 INTRA-LIGAND FREE ENERGY PREDICTED BY IDOCK:   -0.51 KCAL/MOL
REMARK 927      BINDING AFFINITY PREDICTED BY RF-SCORE:    0.00 PKD
ROOT
ATOM      1  N6    A A   1     -11.986  14.291  66.245  1.00  0.00    -0.411 NA 
ATOM      2  C6    A A   1     -11.877  13.690  67.492  1.00  0.00    -0.381 A  
ATOM      3  H61   A A   1     -12.215  15.277  66.121  1.00  0.00     0.000 HD 
ATOM      4  H62   A A   1     -12.661  13.751  65.704  1.00  0.00     0.000 HD 
ATOM      5  C5    A A   1     -11.561  12.329  67.662  1.00  0.00    -0.354 A  
ATOM      6  N7    A A   1     -11.316  11.318  66.760  1.00  0.00    -0.379 NA 
ATOM      7  C8    A A   1     -11.097  10.256  67.506  1.00  0.00    -0.232 A  
ATOM      8  N9    A A   1     -11.187  10.537  68.851  1.00  0.00    -0.258 NA 
ATOM      9  N1    A A   1     -12.111  14.435  68.591  1.00  0.00    -0.284 NA 
ATOM     10  C4    A A   1     -11.497  11.861  68.969  1.00  0.00    -0.297 A  
ATOM     11  C2    A A   1     -12.019  13.849  69.803  1.00  0.00    -0.338 A  
ATOM     12  N3    A A   1     -11.728  12.563  70.088  1.00  0.00    -0.239 NA 
ENDROOT
BRANCH   8  13
ATOM     13  C1*   A A   1     -11.025   9.533  69.869  1.00  0.00    -0.238 C  
ATOM     14  O4*   A A   1      -9.914   9.941  70.699  1.00  0.00    -0.215 OA 
ATOM     15  C4*   A A   1      -8.738   9.215  70.267  1.00  0.00    -0.200 C  
ATOM     16  H2*   A A   1     -11.121   6.266  70.288  1.00  0.00     0.000 HD 
ATOM     17  C3*   A A   1      -9.215   7.948  69.554  1.00  0.00    -0.152 C  
ATOM     18  C2*   A A   1     -10.742   8.067  69.514  1.00  0.00    -0.181 C  
ATOM     19  H3*   A A   1      -9.096   6.006  69.845  1.00  0.00     0.000 HD 
ATOM     20  O3*   A A   1      -8.800   6.793  70.288  1.00  0.00    -0.149 OA 
ATOM     21  O2*   A A   1     -11.296   7.174  70.508  1.00  0.00    -0.279 OA 
BRANCH  15  22
ATOM     22  C5*   A A   1      -7.891  10.101  69.340  1.00  0.00    -0.150 C  
ATOM     23  O5*   A A   1      -8.364  11.444  69.370  1.00  0.00    -0.365 OA 
ATOM     24  H5*   A A   1      -7.841  11.992  68.797  1.00  0.00     0.000 HD 
ENDBRANCH  15  22
ENDBRANCH   8  13
TORSDOF 2
ENDMDL
MODEL       94
REMARK 921   NORMALIZED FREE ENERGY PREDICTED BY IDOCK:   -4.60 KCAL/MOL
REMARK 922        TOTAL FREE ENERGY PREDICTED BY IDOCK:   -5.61 KCAL/MOL
REMARK 923 INTER-LIGAND FREE ENERGY PREDICTED BY IDOCK:   -5.01 KCAL/MOL
REMARK 924 INTRA-LIGAND FREE ENERGY PREDICTED BY IDOCK:   -0.60 KCAL/MOL
REMARK 927      BINDING AFFINITY PREDICTED BY RF-SCORE:    0.00 PKD
ROOT
ATOM      1  N6    A A   1     -12.619  11.878  71.188  1.00  0.00    -0.348 NA 
ATOM      2  C6    A A   1     -12.809  10.525  71.430  1.00  0.00    -0.447 A  
ATOM      3  H61   A A   1     -13.305  12.590  71.440  1.00  0.00     0.000 HD 
ATOM      4  H62   A A   1     -12.421  11.985  70.192  1.00  0.00     0.000 HD 
ATOM      5  C5    A A   1     -11.863   9.542  71.081  1.00  0.00    -0.358 A  
ATOM      6  N7    A A   1     -10.636   9.622  70.461  1.00  0.00    -0.284 NA 
ATOM      7  C8    A A   1     -10.223   8.375  70.386  1.00  0.00    -0.197 A  
ATOM      8  N9    A A   1     -11.127   7.493  70.934  1.00  0.00    -0.258 NA 
ATOM      9  N1    A A   1     -13.965  10.127  72.000  1.00  0.00     0.013 NA 
ATOM     10  C4    A A   1     -12.192   8.225  71.373  1.00  0.00    -0.299 A  
ATOM     11  C2    A A   1     -14.156   8.810  72.224  1.00  0.00    -0.441 A  
ATOM     12  N3    A A   1     -13.329   7.784  71.933  1.00  0.00    -0.300 NA 
ENDROOT
BRANCH   8  13
ATOM     13  C1*   A A   1     -10.922   6.069  70.941  1.00  0.00    -0.289 C  
ATOM     14  O4*   A A   1     -11.193   5.603  72.283  1.00  0.00    -0.266 OA 
ATOM     15  C4*   A A   1      -9.928   5.453  72.972  1.00  0.00    -0.168 C  
ATOM     16  H2*   A A   1      -8.896   3.764  69.739  1.00  0.00     0.000 HD 
ATOM     17  C3*   A A   1      -8.843   5.276  71.909  1.00  0.00    -0.135 C  
ATOM     18  C2*   A A   1      -9.567   5.451  70.570  1.00  0.00    -0.175 C  
ATOM     19  H3*   A A   1      -7.586   3.864  71.363  1.00  0.00     0.000 HD 
ATOM     20  O3*   A A   1      -8.261   3.975  72.023  1.00  0.00    -0.085 OA 
ATOM     21  O2*   A A   1      -9.736   4.146  69.969  1.00  0.00    -0.198 OA 
BRANCH  15  22
ATOM     22  C5*   A A   1      -9.666   6.686  73.850  1.00  0.00    -0.243 C  
ATOM     23  O5*   A A   1     -10.891   7.337  74.173  1.00  0.00    -0.536 OA 
ATOM     24  H5*   A A   1     -10.729   8.099  74.715  1.00  0.00     0.000 HD 
ENDBRANCH  15  22
ENDBRANCH   8  13
TORSDOF 2
ENDMDL
MODEL       95
REMARK 921   NORMALIZED FREE ENERGY PREDICTED BY IDOCK:   -4.57 KCAL/MOL
REMARK 922        TOTAL FREE ENERGY PREDICTED BY IDOCK:   -5.58 KCAL/MOL
REMARK 923 INTER-LIGAND FREE ENERGY PREDICTED BY IDOCK:   -6.25 KCAL/MOL
REMARK 924 INTRA-LIGAND FREE ENERGY PREDICTED BY IDOCK:    0.66 KCAL/MOL
REMARK 927      BINDING AFFINITY PREDICTED BY RF-SCORE:    0.00 PKD
ROOT
ATOM      1  N6    A A   1     -11.460  11.393  62.961  1.00  0.00    -0.852 NA 
ATOM      2  C6    A A   1     -11.666  12.038  64.173  1.00  0.00    -0.372 A  
ATOM      3  H61   A A   1     -11.793  11.762  62.070  1.00  0.00     0.000 HD 
ATOM      4  H62   A A   1     -11.827  10.445  63.054  1.00  0.00     0.000 HD 
ATOM      5  C5    A A   1     -11.207  11.528  65.402  1.00  0.00    -0.140 A  
ATOM      6  N7    A A   1     -10.522  10.378  65.725  1.00  0.00    -0.170 NA 
ATOM      7  C8    A A   1     -10.389  10.431  67.034  1.00  0.00    -0.240 A  
ATOM      8  N9    A A   1     -10.955  11.567  67.569  1.00  0.00    -0.239 NA 
ATOM      9  N1    A A   1     -12.362  13.194  64.179  1.00  0.00    -0.588 NA 
ATOM     10  C4    A A   1     -11.496  12.276  66.536  1.00  0.00    -0.381 A  
ATOM     11  C2    A A   1     -12.574  13.815  65.357  1.00  0.00    -0.497 A  
ATOM     12  N3    A A   1     -12.188  13.424  66.589  1.00  0.00    -0.370 NA 
ENDROOT
BRANCH   8  13
ATOM     13  C1*   A A   1     -10.973  11.837  68.982  1.00  0.00    -0.227 C  
ATOM     14  O4*   A A   1     -10.036  10.929  69.604  1.00  0.00    -0.073 OA 
ATOM     15  C4*   A A   1     -10.783   9.812  70.146  1.00  0.00    -0.289 C  
ATOM     16  H2*   A A   1     -13.060  12.559  71.428  1.00  0.00     0.000 HD 
ATOM     17  C3*   A A   1     -12.220  10.285  70.369  1.00  0.00    -0.261 C  
ATOM     18  C2*   A A   1     -12.261  11.710  69.807  1.00  0.00    -0.219 C  
ATOM     19  H3*   A A   1     -13.420  10.557  71.904  1.00  0.00     0.000 HD 
ATOM     20  O3*   A A   1     -12.527  10.264  71.765  1.00  0.00    -0.397 OA 
ATOM     21  O2*   A A   1     -12.262  12.638  70.918  1.00  0.00    -0.349 OA 
BRANCH  15  22
ATOM     22  C5*   A A   1     -10.721   8.624  69.174  1.00  0.00    -0.118 C  
ATOM     23  O5*   A A   1     -11.508   7.542  69.662  1.00  0.00    -0.463 OA 
ATOM     24  H5*   A A   1     -11.470   6.807  69.061  1.00  0.00     0.000 HD 
ENDBRANCH  15  22
ENDBRANCH   8  13
TORSDOF 2
ENDMDL
MODEL       96
REMARK 921   NORMALIZED FREE ENERGY PREDICTED BY IDOCK:   -4.57 KCAL/MOL
REMARK 922        TOTAL FREE ENERGY PREDICTED BY IDOCK:   -5.58 KCAL/MOL
REMARK 923 INTER-LIGAND FREE ENERGY PREDICTED BY IDOCK:   -5.16 KCAL/MOL
REMARK 924 INTRA-LIGAND FREE ENERGY PREDICTED BY IDOCK:   -0.42 KCAL/MOL
REMARK 927      BINDING AFFINITY PREDICTED BY RF-SCORE:    0.00 PKD
ROOT
ATOM      1  N6    A A   1     -11.386   9.407  69.044  1.00  0.00    -0.441 NA 
ATOM      2  C6    A A   1     -11.451  10.790  69.131  1.00  0.00    -0.298 A  
ATOM      3  H61   A A   1     -11.759   8.785  69.761  1.00  0.00     0.000 HD 
ATOM      4  H62   A A   1     -10.406   9.157  68.904  1.00  0.00     0.000 HD 
ATOM      5  C5    A A   1     -10.936  11.648  68.142  1.00  0.00    -0.226 A  
ATOM      6  N7    A A   1     -10.281  11.400  66.955  1.00  0.00    -0.207 NA 
ATOM      7  C8    A A   1     -10.023  12.594  66.465  1.00  0.00    -0.251 A  
ATOM      8  N9    A A   1     -10.485  13.603  67.281  1.00  0.00    -0.258 NA 
ATOM      9  N1    A A   1     -12.010  11.342  70.228  1.00  0.00    -0.352 NA 
ATOM     10  C4    A A   1     -11.062  13.012  68.369  1.00  0.00    -0.262 A  
ATOM     11  C2    A A   1     -12.063  12.687  70.321  1.00  0.00    -0.294 A  
ATOM     12  N3    A A   1     -11.604  13.604  69.444  1.00  0.00    -0.295 NA 
ENDROOT
BRANCH   8  13
ATOM     13  C1*   A A   1     -10.292  14.997  66.982  1.00  0.00    -0.269 C  
ATOM     14  O4*   A A   1      -8.981  15.130  66.389  1.00  0.00    -0.284 OA 
ATOM     15  C4*   A A   1      -8.061  15.566  67.419  1.00  0.00    -0.177 C  
ATOM     16  H2*   A A   1     -10.859  17.990  68.239  1.00  0.00     0.000 HD 
ATOM     17  C3*   A A   1      -8.885  16.249  68.512  1.00  0.00    -0.219 C  
ATOM     18  C2*   A A   1     -10.344  16.067  68.081  1.00  0.00    -0.260 C  
ATOM     19  H3*   A A   1      -9.043  18.058  69.270  1.00  0.00     0.000 HD 
ATOM     20  O3*   A A   1      -8.532  17.633  68.591  1.00  0.00    -0.290 OA 
ATOM     21  O2*   A A   1     -10.826  17.327  67.559  1.00  0.00    -0.314 OA 
BRANCH  15  22
ATOM     22  C5*   A A   1      -7.284  14.359  67.967  1.00  0.00    -0.141 C  
ATOM     23  O5*   A A   1      -7.869  13.902  69.182  1.00  0.00    -0.325 OA 
ATOM     24  H5*   A A   1      -7.388  13.156  69.521  1.00  0.00     0.000 HD 
ENDBRANCH  15  22
ENDBRANCH   8  13
TORSDOF 2
ENDMDL
MODEL       97
REMARK 921   NORMALIZED FREE ENERGY PREDICTED BY IDOCK:   -4.57 KCAL/MOL
REMARK 922        TOTAL FREE ENERGY PREDICTED BY IDOCK:   -5.57 KCAL/MOL
REMARK 923 INTER-LIGAND FREE ENERGY PREDICTED BY IDOCK:   -5.86 KCAL/MOL
REMARK 924 INTRA-LIGAND FREE ENERGY PREDICTED BY IDOCK:    0.28 KCAL/MOL
REMARK 927      BINDING AFFINITY PREDICTED BY RF-SCORE:    0.00 PKD
ROOT
ATOM      1  N6    A A   1     -14.382   8.693  72.800  1.00  0.00    -0.994 NA 
ATOM      2  C6    A A   1     -13.298   8.472  71.962  1.00  0.00    -0.369 A  
ATOM      3  H61   A A   1     -14.893   7.939  73.259  1.00  0.00     0.000 HD 
ATOM      4  H62   A A   1     -15.061   9.249  72.279  1.00  0.00     0.000 HD 
ATOM      5  C5    A A   1     -12.593   9.513  71.328  1.00  0.00    -0.339 A  
ATOM      6  N7    A A   1     -12.760  10.880  71.337  1.00  0.00    -0.420 NA 
ATOM      7  C8    A A   1     -11.814  11.333  70.542  1.00  0.00    -0.324 A  
ATOM      8  N9    A A   1     -11.040  10.318  70.023  1.00  0.00    -0.289 NA 
ATOM      9  N1    A A   1     -12.917   7.201  71.720  1.00  0.00    -0.349 NA 
ATOM     10  C4    A A   1     -11.535   9.142  70.508  1.00  0.00    -0.229 A  
ATOM     11  C2    A A   1     -11.872   6.984  70.895  1.00  0.00    -0.356 A  
ATOM     12  N3    A A   1     -11.126   7.894  70.235  1.00  0.00    -0.252 NA 
ENDROOT
BRANCH   8  13
ATOM     13  C1*   A A   1      -9.964  10.554  69.098  1.00  0.00    -0.220 C  
ATOM     14  O4*   A A   1      -9.968  11.966  68.787  1.00  0.00    -0.184 OA 
ATOM     15  C4*   A A   1     -10.651  12.148  67.523  1.00  0.00    -0.214 C  
ATOM     16  H2*   A A   1      -8.501   9.208  66.469  1.00  0.00     0.000 HD 
ATOM     17  C3*   A A   1     -10.578  10.821  66.765  1.00  0.00    -0.250 C  
ATOM     18  C2*   A A   1      -9.906   9.846  67.737  1.00  0.00    -0.155 C  
ATOM     19  H3*   A A   1      -9.759  10.162  65.102  1.00  0.00     0.000 HD 
ATOM     20  O3*   A A   1      -9.805  10.986  65.573  1.00  0.00    -0.218 OA 
ATOM     21  O2*   A A   1      -8.537   9.647  67.311  1.00  0.00    -0.130 OA 
BRANCH  15  22
ATOM     22  C5*   A A   1     -12.105  12.576  67.774  1.00  0.00    -0.052 C  
ATOM     23  O5*   A A   1     -12.171  13.972  68.050  1.00  0.00    -0.510 OA 
ATOM     24  H5*   A A   1     -13.069  14.237  68.206  1.00  0.00     0.000 HD 
ENDBRANCH  15  22
ENDBRANCH   8  13
TORSDOF 2
ENDMDL
MODEL       98
REMARK 921   NORMALIZED FREE ENERGY PREDICTED BY IDOCK:   -4.55 KCAL/MOL
REMARK 922        TOTAL FREE ENERGY PREDICTED BY IDOCK:   -5.56 KCAL/MOL
REMARK 923 INTER-LIGAND FREE ENERGY PREDICTED BY IDOCK:   -5.98 KCAL/MOL
REMARK 924 INTRA-LIGAND FREE ENERGY PREDICTED BY IDOCK:    0.43 KCAL/MOL
REMARK 927      BINDING AFFINITY PREDICTED BY RF-SCORE:    0.00 PKD
ROOT
ATOM      1  N6    A A   1     -11.666  14.369  67.154  1.00  0.00    -0.386 NA 
ATOM      2  C6    A A   1     -11.857  13.983  68.473  1.00  0.00    -0.364 A  
ATOM      3  H61   A A   1     -11.555  15.342  66.869  1.00  0.00     0.000 HD 
ATOM      4  H62   A A   1     -12.433  13.977  66.607  1.00  0.00     0.000 HD 
ATOM      5  C5    A A   1     -12.011  12.640  68.866  1.00  0.00    -0.242 A  
ATOM      6  N7    A A   1     -12.032  11.465  68.148  1.00  0.00    -0.630 NA 
ATOM      7  C8    A A   1     -12.228  10.529  69.052  1.00  0.00     0.219 A  
ATOM      8  N9    A A   1     -12.332  11.047  70.324  1.00  0.00    -0.325 NA 
ATOM      9  N1    A A   1     -11.928  14.939  69.422  1.00  0.00    -0.308 NA 
ATOM     10  C4    A A   1     -12.208  12.403  70.221  1.00  0.00    -0.267 A  
ATOM     11  C2    A A   1     -12.128  14.567  70.703  1.00  0.00    -0.322 A  
ATOM     12  N3    A A   1     -12.290  13.321  71.195  1.00  0.00    -0.308 NA 
ENDROOT
BRANCH   8  13
ATOM     13  C1*   A A   1     -12.585  10.231  71.481  1.00  0.00    -0.440 C  
ATOM     14  O4*   A A   1     -11.342   9.576  71.823  1.00  0.00    -0.370 OA 
ATOM     15  C4*   A A   1     -11.374   8.234  71.281  1.00  0.00    -0.267 C  
ATOM     16  H2*   A A   1     -14.868   8.223  72.753  1.00  0.00     0.000 HD 
ATOM     17  C3*   A A   1     -12.842   7.849  71.092  1.00  0.00    -0.128 C  
ATOM     18  C2*   A A   1     -13.633   9.109  71.458  1.00  0.00    -0.345 C  
ATOM     19  H3*   A A   1     -14.084   6.517  71.837  1.00  0.00     0.000 HD 
ATOM     20  O3*   A A   1     -13.172   6.756  71.955  1.00  0.00    -0.291 OA 
ATOM     21  O2*   A A   1     -14.219   8.917  72.767  1.00  0.00    -0.557 OA 
BRANCH  15  22
ATOM     22  C5*   A A   1     -10.602   8.191  69.954  1.00  0.00    -0.239 C  
ATOM     23  O5*   A A   1     -11.117   7.163  69.112  1.00  0.00    -0.415 OA 
ATOM     24  H5*   A A   1     -10.640   7.137  68.292  1.00  0.00     0.000 HD 
ENDBRANCH  15  22
ENDBRANCH   8  13
TORSDOF 2
ENDMDL
MODEL       99
REMARK 921   NORMALIZED FREE ENERGY PREDICTED BY IDOCK:   -4.54 KCAL/MOL
REMARK 922        TOTAL FREE ENERGY PREDICTED BY IDOCK:   -5.55 KCAL/MOL
REMARK 923 INTER-LIGAND FREE ENERGY PREDICTED BY IDOCK:   -5.08 KCAL/MOL
REMARK 924 INTRA-LIGAND FREE ENERGY PREDICTED BY IDOCK:   -0.47 KCAL/MOL
REMARK 927      BINDING AFFINITY PREDICTED BY RF-SCORE:    0.00 PKD
ROOT
ATOM      1  N6    A A   1     -14.304   8.734  73.023  1.00  0.00    -1.133 NA 
ATOM      2  C6    A A   1     -13.307   9.214  72.185  1.00  0.00    -0.463 A  
ATOM      3  H61   A A   1     -15.271   9.056  72.980  1.00  0.00     0.000 HD 
ATOM      4  H62   A A   1     -13.982   8.862  73.983  1.00  0.00     0.000 HD 
ATOM      5  C5    A A   1     -11.973   8.769  72.245  1.00  0.00    -0.345 A  
ATOM      6  N7    A A   1     -11.340   7.857  73.061  1.00  0.00    -0.352 NA 
ATOM      7  C8    A A   1     -10.086   7.874  72.662  1.00  0.00    -0.279 A  
ATOM      8  N9    A A   1      -9.881   8.755  71.623  1.00  0.00    -0.281 NA 
ATOM      9  N1    A A   1     -13.623  10.171  71.288  1.00  0.00    -0.216 NA 
ATOM     10  C4    A A   1     -11.080   9.348  71.352  1.00  0.00    -0.380 A  
ATOM     11  C2    A A   1     -12.652  10.649  70.482  1.00  0.00    -0.348 A  
ATOM     12  N3    A A   1     -11.348  10.304  70.450  1.00  0.00    -0.311 NA 
ENDROOT
BRANCH   8  13
ATOM     13  C1*   A A   1      -8.587   8.982  71.037  1.00  0.00    -0.210 C  
ATOM     14  O4*   A A   1      -8.671   8.588  69.648  1.00  0.00    -0.129 OA 
ATOM     15  C4*   A A   1      -8.124   7.252  69.525  1.00  0.00    -0.129 C  
ATOM     16  H2*   A A   1      -5.376   8.677  71.714  1.00  0.00     0.000 HD 
ATOM     17  C3*   A A   1      -7.185   7.027  70.711  1.00  0.00    -0.071 C  
ATOM     18  C2*   A A   1      -7.329   8.285  71.574  1.00  0.00    -0.087 C  
ATOM     19  H3*   A A   1      -5.260   6.724  70.981  1.00  0.00     0.000 HD 
ATOM     20  O3*   A A   1      -5.843   6.864  70.244  1.00  0.00    -0.023 OA 
ATOM     21  O2*   A A   1      -6.155   9.108  71.381  1.00  0.00    -0.063 OA 
BRANCH  15  22
ATOM     22  C5*   A A   1      -9.264   6.223  69.501  1.00  0.00    -0.139 C  
ATOM     23  O5*   A A   1      -8.935   5.098  70.309  1.00  0.00    -0.119 OA 
ATOM     24  H5*   A A   1      -9.639   4.462  70.295  1.00  0.00     0.000 HD 
ENDBRANCH  15  22
ENDBRANCH   8  13
TORSDOF 2
ENDMDL
MODEL      100
REMARK 921   NORMALIZED FREE ENERGY PREDICTED BY IDOCK:   -4.54 KCAL/MOL
REMARK 922        TOTAL FREE ENERGY PREDICTED BY IDOCK:   -5.54 KCAL/MOL
REMARK 923 INTER-LIGAND FREE ENERGY PREDICTED BY IDOCK:   -5.74 KCAL/MOL
REMARK 924 INTRA-LIGAND FREE ENERGY PREDICTED BY IDOCK:    0.19 KCAL/MOL
REMARK 927      BINDING AFFINITY PREDICTED BY RF-SCORE:    0.00 PKD
ROOT
ATOM      1  N6    A A   1     -13.833  12.850  72.913  1.00  0.00    -0.593 NA 
ATOM      2  C6    A A   1     -13.194  13.886  72.245  1.00  0.00    -0.473 A  
ATOM      3  H61   A A   1     -14.282  12.967  73.822  1.00  0.00     0.000 HD 
ATOM      4  H62   A A   1     -13.163  12.085  73.001  1.00  0.00     0.000 HD 
ATOM      5  C5    A A   1     -12.574  13.725  70.992  1.00  0.00    -0.371 A  
ATOM      6  N7    A A   1     -12.421  12.628  70.173  1.00  0.00    -0.102 NA 
ATOM      7  C8    A A   1     -11.738  13.080  69.143  1.00  0.00    -0.326 A  
ATOM      8  N9    A A   1     -11.445  14.421  69.259  1.00  0.00    -0.268 NA 
ATOM      9  N1    A A   1     -13.141  15.098  72.835  1.00  0.00    -0.436 NA 
ATOM     10  C4    A A   1     -11.963  14.847  70.448  1.00  0.00    -0.314 A  
ATOM     11  C2    A A   1     -12.509  16.103  72.193  1.00  0.00    -0.391 A  
ATOM     12  N3    A A   1     -11.881  16.067  71.000  1.00  0.00    -0.412 NA 
ENDROOT
BRANCH   8  13
ATOM     13  C1*   A A   1     -10.674  15.139  68.279  1.00  0.00    -0.251 C  
ATOM     14  O4*   A A   1     -11.597  15.617  67.275  1.00  0.00    -0.130 OA 
ATOM     15  C4*   A A   1     -11.555  14.704  66.152  1.00  0.00    -0.332 C  
ATOM     16  H2*   A A   1      -7.808  14.988  66.658  1.00  0.00     0.000 HD 
ATOM     17  C3*   A A   1     -10.210  13.977  66.200  1.00  0.00    -0.302 C  
ATOM     18  C2*   A A   1      -9.544  14.460  67.492  1.00  0.00    -0.215 C  
ATOM     19  H3*   A A   1      -8.596  13.869  65.080  1.00  0.00     0.000 HD 
ATOM     20  O3*   A A   1      -9.432  14.321  65.050  1.00  0.00     0.192 OA 
ATOM     21  O2*   A A   1      -8.508  15.408  67.145  1.00  0.00    -0.181 OA 
BRANCH  15  22
ATOM     22  C5*   A A   1     -12.733  13.722  66.236  1.00  0.00    -0.207 C  
ATOM     23  O5*   A A   1     -12.689  12.798  65.153  1.00  0.00    -0.626 OA 
ATOM     24  H5*   A A   1     -13.417  12.191  65.204  1.00  0.00     0.000 HD 
ENDBRANCH  15  22
ENDBRANCH   8  13
TORSDOF 2
ENDMDL
MODEL      101
REMARK 921   NORMALIZED FREE ENERGY PREDICTED BY IDOCK:   -4.53 KCAL/MOL
REMARK 922        TOTAL FREE ENERGY PREDICTED BY IDOCK:   -5.53 KCAL/MOL
REMARK 923 INTER-LIGAND FREE ENERGY PREDICTED BY IDOCK:   -5.09 KCAL/MOL
REMARK 924 INTRA-LIGAND FREE ENERGY PREDICTED BY IDOCK:   -0.44 KCAL/MOL
REMARK 927      BINDING AFFINITY PREDICTED BY RF-SCORE:    0.00 PKD
ROOT
ATOM      1  N6    A A   1     -13.708   8.958  73.178  1.00  0.00    -1.100 NA 
ATOM      2  C6    A A   1     -12.873   8.619  72.123  1.00  0.00    -0.391 A  
ATOM      3  H61   A A   1     -14.096   8.271  73.825  1.00  0.00     0.000 HD 
ATOM      4  H62   A A   1     -14.491   9.486  72.790  1.00  0.00     0.000 HD 
ATOM      5  C5    A A   1     -12.339   9.567  71.231  1.00  0.00    -0.345 A  
ATOM      6  N7    A A   1     -12.483  10.934  71.141  1.00  0.00    -0.390 NA 
ATOM      7  C8    A A   1     -11.763  11.274  70.093  1.00  0.00    -0.343 A  
ATOM      8  N9    A A   1     -11.156  10.186  69.504  1.00  0.00    -0.241 NA 
ATOM      9  N1    A A   1     -12.580   7.317  71.925  1.00  0.00    -0.311 NA 
ATOM     10  C4    A A   1     -11.527   9.081  70.214  1.00  0.00    -0.124 A  
ATOM     11  C2    A A   1     -11.779   6.984  70.891  1.00  0.00    -0.343 A  
ATOM     12  N3    A A   1     -11.214   7.798  69.976  1.00  0.00    -0.178 NA 
ENDROOT
BRANCH   8  13
ATOM     13  C1*   A A   1     -10.346  10.293  68.320  1.00  0.00    -0.181 C  
ATOM     14  O4*   A A   1      -9.313   9.286  68.416  1.00  0.00    -0.138 OA 
ATOM     15  C4*   A A   1      -8.105   9.924  68.898  1.00  0.00    -0.105 C  
ATOM     16  H2*   A A   1      -9.017  12.547  66.316  1.00  0.00     0.000 HD 
ATOM     17  C3*   A A   1      -8.207  11.413  68.566  1.00  0.00    -0.153 C  
ATOM     18  C2*   A A   1      -9.607  11.591  67.967  1.00  0.00    -0.180 C  
ATOM     19  H3*   A A   1      -7.252  12.698  67.423  1.00  0.00     0.000 HD 
ATOM     20  O3*   A A   1      -7.188  11.773  67.629  1.00  0.00    -0.095 OA 
ATOM     21  O2*   A A   1      -9.474  11.743  66.535  1.00  0.00    -0.202 OA 
BRANCH  15  22
ATOM     22  C5*   A A   1      -7.959   9.688  70.409  1.00  0.00    -0.165 C  
ATOM     23  O5*   A A   1      -8.203   8.321  70.724  1.00  0.00    -0.103 OA 
ATOM     24  H5*   A A   1      -8.113   8.175  71.658  1.00  0.00     0.000 HD 
ENDBRANCH  15  22
ENDBRANCH   8  13
TORSDOF 2
ENDMDL
MODEL      102
REMARK 921   NORMALIZED FREE ENERGY PREDICTED BY IDOCK:   -4.52 KCAL/MOL
REMARK 922        TOTAL FREE ENERGY PREDICTED BY IDOCK:   -5.52 KCAL/MOL
REMARK 923 INTER-LIGAND FREE ENERGY PREDICTED BY IDOCK:   -5.04 KCAL/MOL
REMARK 924 INTRA-LIGAND FREE ENERGY PREDICTED BY IDOCK:   -0.48 KCAL/MOL
REMARK 927      BINDING AFFINITY PREDICTED BY RF-SCORE:    0.00 PKD
ROOT
ATOM      1  N6    A A   1      -9.497   9.630  64.471  1.00  0.00    -0.432 NA 
ATOM      2  C6    A A   1     -10.148  10.083  65.610  1.00  0.00    -0.251 A  
ATOM      3  H61   A A   1      -9.406  10.189  63.622  1.00  0.00     0.000 HD 
ATOM      4  H62   A A   1      -9.927   8.742  64.207  1.00  0.00     0.000 HD 
ATOM      5  C5    A A   1     -10.274   9.311  66.781  1.00  0.00    -0.255 A  
ATOM      6  N7    A A   1      -9.858   8.036  67.095  1.00  0.00    -0.188 NA 
ATOM      7  C8    A A   1     -10.278   7.847  68.328  1.00  0.00    -0.203 A  
ATOM      8  N9    A A   1     -10.944   8.945  68.825  1.00  0.00     0.010 NA 
ATOM      9  N1    A A   1     -10.712  11.308  65.587  1.00  0.00    -0.246 NA 
ATOM     10  C4    A A   1     -10.962   9.889  67.839  1.00  0.00    -0.223 A  
ATOM     11  C2    A A   1     -11.356  11.745  66.689  1.00  0.00    -0.316 A  
ATOM     12  N3    A A   1     -11.542  11.099  67.859  1.00  0.00    -0.540 NA 
ENDROOT
BRANCH   8  13
ATOM     13  C1*   A A   1     -11.532   8.972  70.138  1.00  0.00    -0.062 C  
ATOM     14  O4*   A A   1     -10.717   9.844  70.954  1.00  0.00    -0.311 OA 
ATOM     15  C4*   A A   1      -9.818   9.021  71.736  1.00  0.00    -0.260 C  
ATOM     16  H2*   A A   1     -12.959   6.988  72.350  1.00  0.00     0.000 HD 
ATOM     17  C3*   A A   1     -10.443   7.629  71.842  1.00  0.00    -0.215 C  
ATOM     18  C2*   A A   1     -11.700   7.691  70.968  1.00  0.00    -0.286 C  
ATOM     19  H3*   A A   1     -11.155   6.480  73.271  1.00  0.00     0.000 HD 
ATOM     20  O3*   A A   1     -10.767   7.345  73.205  1.00  0.00    -0.357 OA 
ATOM     21  O2*   A A   1     -12.854   7.781  71.836  1.00  0.00    -0.313 OA 
BRANCH  15  22
ATOM     22  C5*   A A   1      -8.438   8.974  71.063  1.00  0.00    -0.203 C  
ATOM     23  O5*   A A   1      -8.196  10.177  70.340  1.00  0.00    -0.392 OA 
ATOM     24  H5*   A A   1      -7.343  10.147  69.924  1.00  0.00     0.000 HD 
ENDBRANCH  15  22
ENDBRANCH   8  13
TORSDOF 2
ENDMDL
MODEL      103
REMARK 921   NORMALIZED FREE ENERGY PREDICTED BY IDOCK:   -4.49 KCAL/MOL
REMARK 922        TOTAL FREE ENERGY PREDICTED BY IDOCK:   -5.49 KCAL/MOL
REMARK 923 INTER-LIGAND FREE ENERGY PREDICTED BY IDOCK:   -4.87 KCAL/MOL
REMARK 924 INTRA-LIGAND FREE ENERGY PREDICTED BY IDOCK:   -0.62 KCAL/MOL
REMARK 927      BINDING AFFINITY PREDICTED BY RF-SCORE:    0.00 PKD
ROOT
ATOM      1  N6    A A   1      -9.027  15.167  66.041  1.00  0.00    -0.470 NA 
ATOM      2  C6    A A   1      -9.930  14.118  66.145  1.00  0.00    -0.314 A  
ATOM      3  H61   A A   1      -9.306  16.120  65.810  1.00  0.00     0.000 HD 
ATOM      4  H62   A A   1      -8.312  14.887  65.369  1.00  0.00     0.000 HD 
ATOM      5  C5    A A   1      -9.545  12.802  66.463  1.00  0.00    -0.257 A  
ATOM      6  N7    A A   1      -8.315  12.236  66.715  1.00  0.00    -0.136 NA 
ATOM      7  C8    A A   1      -8.576  10.964  66.932  1.00  0.00    -0.136 A  
ATOM      8  N9    A A   1      -9.921  10.684  66.835  1.00  0.00    -0.195 NA 
ATOM      9  N1    A A   1     -11.235  14.362  65.903  1.00  0.00    -0.318 NA 
ATOM     10  C4    A A   1     -10.556  11.851  66.521  1.00  0.00    -0.243 A  
ATOM     11  C2    A A   1     -12.112  13.341  65.991  1.00  0.00    -0.436 A  
ATOM     12  N3    A A   1     -11.862  12.048  66.283  1.00  0.00    -0.574 NA 
ENDROOT
BRANCH   8  13
ATOM     13  C1*   A A   1     -10.455   9.358  66.993  1.00  0.00    -0.231 C  
ATOM     14  O4*   A A   1     -11.273   9.365  68.185  1.00  0.00    -0.027 OA 
ATOM     15  C4*   A A   1     -10.489   8.819  69.274  1.00  0.00    -0.219 C  
ATOM     16  H2*   A A   1      -9.589   6.192  66.693  1.00  0.00     0.000 HD 
ATOM     17  C3*   A A   1      -9.390   7.951  68.660  1.00  0.00    -0.145 C  
ATOM     18  C2*   A A   1      -9.538   8.136  67.146  1.00  0.00    -0.174 C  
ATOM     19  H3*   A A   1      -8.898   6.046  68.659  1.00  0.00     0.000 HD 
ATOM     20  O3*   A A   1      -9.581   6.586  69.040  1.00  0.00    -0.134 OA 
ATOM     21  O2*   A A   1     -10.157   6.948  66.599  1.00  0.00    -0.191 OA 
BRANCH  15  22
ATOM     22  C5*   A A   1      -9.903   9.963  70.116  1.00  0.00    -0.219 C  
ATOM     23  O5*   A A   1     -10.659  11.155  69.930  1.00  0.00    -0.449 OA 
ATOM     24  H5*   A A   1     -10.297  11.862  70.451  1.00  0.00     0.000 HD 
ENDBRANCH  15  22
ENDBRANCH   8  13
TORSDOF 2
ENDMDL
MODEL      104
REMARK 921   NORMALIZED FREE ENERGY PREDICTED BY IDOCK:   -4.47 KCAL/MOL
REMARK 922        TOTAL FREE ENERGY PREDICTED BY IDOCK:   -5.46 KCAL/MOL
REMARK 923 INTER-LIGAND FREE ENERGY PREDICTED BY IDOCK:   -5.11 KCAL/MOL
REMARK 924 INTRA-LIGAND FREE ENERGY PREDICTED BY IDOCK:   -0.35 KCAL/MOL
REMARK 927      BINDING AFFINITY PREDICTED BY RF-SCORE:    0.00 PKD
ROOT
ATOM      1  N6    A A   1     -10.286   8.221  66.553  1.00  0.00    -0.423 NA 
ATOM      2  C6    A A   1     -10.550   9.272  67.420  1.00  0.00    -0.255 A  
ATOM      3  H61   A A   1      -9.964   7.306  66.868  1.00  0.00     0.000 HD 
ATOM      4  H62   A A   1      -9.616   8.558  65.861  1.00  0.00     0.000 HD 
ATOM      5  C5    A A   1     -10.993  10.535  66.985  1.00  0.00    -0.180 A  
ATOM      6  N7    A A   1     -11.247  11.041  65.729  1.00  0.00     0.047 NA 
ATOM      7  C8    A A   1     -11.616  12.286  65.944  1.00  0.00    -0.393 A  
ATOM      8  N9    A A   1     -11.616  12.605  67.284  1.00  0.00    -0.344 NA 
ATOM      9  N1    A A   1     -10.345   9.086  68.741  1.00  0.00    -0.212 NA 
ATOM     10  C4    A A   1     -11.205  11.496  67.965  1.00  0.00    -0.269 A  
ATOM     11  C2    A A   1     -10.588  10.110  69.584  1.00  0.00    -0.257 A  
ATOM     12  N3    A A   1     -11.010  11.356  69.285  1.00  0.00    -0.238 NA 
ENDROOT
BRANCH   8  13
ATOM     13  C1*   A A   1     -11.946  13.917  67.773  1.00  0.00    -0.355 C  
ATOM     14  O4*   A A   1     -11.611  14.860  66.730  1.00  0.00    -0.344 OA 
ATOM     15  C4*   A A   1     -10.318  15.435  67.039  1.00  0.00    -0.280 C  
ATOM     16  H2*   A A   1     -11.805  15.743  70.513  1.00  0.00     0.000 HD 
ATOM     17  C3*   A A   1     -10.097  15.286  68.545  1.00  0.00    -0.222 C  
ATOM     18  C2*   A A   1     -11.303  14.485  69.046  1.00  0.00    -0.272 C  
ATOM     19  H3*   A A   1      -9.898  16.485  70.092  1.00  0.00     0.000 HD 
ATOM     20  O3*   A A   1     -10.036  16.577  69.156  1.00  0.00    -0.262 OA 
ATOM     21  O2*   A A   1     -12.203  15.392  69.724  1.00  0.00    -0.337 OA 
BRANCH  15  22
ATOM     22  C5*   A A   1      -9.225  14.718  66.232  1.00  0.00    -0.243 C  
ATOM     23  O5*   A A   1      -8.560  13.754  67.042  1.00  0.00    -0.277 OA 
ATOM     24  H5*   A A   1      -7.884  13.311  66.543  1.00  0.00     0.000 HD 
ENDBRANCH  15  22
ENDBRANCH   8  13
TORSDOF 2
ENDMDL
MODEL      105
REMARK 921   NORMALIZED FREE ENERGY PREDICTED BY IDOCK:   -4.46 KCAL/MOL
REMARK 922        TOTAL FREE ENERGY PREDICTED BY IDOCK:   -5.46 KCAL/MOL
REMARK 923 INTER-LIGAND FREE ENERGY PREDICTED BY IDOCK:   -5.52 KCAL/MOL
REMARK 924 INTRA-LIGAND FREE ENERGY PREDICTED BY IDOCK:    0.06 KCAL/MOL
REMARK 927      BINDING AFFINITY PREDICTED BY RF-SCORE:    0.00 PKD
ROOT
ATOM      1  N6    A A   1      -6.351   9.558  63.488  1.00  0.00    -0.098 NA 
ATOM      2  C6    A A   1      -6.880  10.106  64.648  1.00  0.00    -0.117 A  
ATOM      3  H61   A A   1      -5.358   9.358  63.369  1.00  0.00     0.000 HD 
ATOM      4  H62   A A   1      -6.637  10.155  62.711  1.00  0.00     0.000 HD 
ATOM      5  C5    A A   1      -8.250  10.382  64.811  1.00  0.00    -0.141 A  
ATOM      6  N7    A A   1      -9.330  10.226  63.970  1.00  0.00    -0.268 NA 
ATOM      7  C8    A A   1     -10.355  10.675  64.663  1.00  0.00    -0.283 A  
ATOM      8  N9    A A   1      -9.986  11.111  65.916  1.00  0.00    -0.228 NA 
ATOM      9  N1    A A   1      -6.040  10.415  65.657  1.00  0.00    -0.112 NA 
ATOM     10  C4    A A   1      -8.636  10.942  66.023  1.00  0.00    -0.177 A  
ATOM     11  C2    A A   1      -6.551  10.961  66.781  1.00  0.00    -0.116 A  
ATOM     12  N3    A A   1      -7.836  11.270  67.049  1.00  0.00    -0.143 NA 
ENDROOT
BRANCH   8  13
ATOM     13  C1*   A A   1     -10.920  11.681  66.850  1.00  0.00    -0.292 C  
ATOM     14  O4*   A A   1     -12.072  12.115  66.092  1.00  0.00    -0.621 OA 
ATOM     15  C4*   A A   1     -11.948  13.539  65.858  1.00  0.00    -0.406 C  
ATOM     16  H2*   A A   1     -11.021  13.590  69.534  1.00  0.00     0.000 HD 
ATOM     17  C3*   A A   1     -11.025  14.104  66.939  1.00  0.00    -0.300 C  
ATOM     18  C2*   A A   1     -10.545  12.882  67.729  1.00  0.00    -0.222 C  
ATOM     19  H3*   A A   1     -11.177  15.364  68.442  1.00  0.00     0.000 HD 
ATOM     20  O3*   A A   1     -11.751  15.012  67.771  1.00  0.00    -0.339 OA 
ATOM     21  O2*   A A   1     -11.254  12.847  68.990  1.00  0.00    -0.257 OA 
BRANCH  15  22
ATOM     22  C5*   A A   1     -11.390  13.788  64.449  1.00  0.00    -0.360 C  
ATOM     23  O5*   A A   1     -12.410  14.292  63.593  1.00  0.00    -1.035 OA 
ATOM     24  H5*   A A   1     -12.065  14.446  62.721  1.00  0.00     0.000 HD 
ENDBRANCH  15  22
ENDBRANCH   8  13
TORSDOF 2
ENDMDL
MODEL      106
REMARK 921   NORMALIZED FREE ENERGY PREDICTED BY IDOCK:   -4.46 KCAL/MOL
REMARK 922        TOTAL FREE ENERGY PREDICTED BY IDOCK:   -5.46 KCAL/MOL
REMARK 923 INTER-LIGAND FREE ENERGY PREDICTED BY IDOCK:   -5.14 KCAL/MOL
REMARK 924 INTRA-LIGAND FREE ENERGY PREDICTED BY IDOCK:   -0.32 KCAL/MOL
REMARK 927      BINDING AFFINITY PREDICTED BY RF-SCORE:    0.00 PKD
ROOT
ATOM      1  N6    A A   1     -10.897  13.261  66.805  1.00  0.00    -0.279 NA 
ATOM      2  C6    A A   1     -11.289  12.802  68.055  1.00  0.00    -0.292 A  
ATOM      3  H61   A A   1     -10.981  14.237  66.520  1.00  0.00     0.000 HD 
ATOM      4  H62   A A   1     -11.383  12.697  66.107  1.00  0.00     0.000 HD 
ATOM      5  C5    A A   1     -11.174  11.455  68.449  1.00  0.00    -0.263 A  
ATOM      6  N7    A A   1     -10.716  10.336  67.788  1.00  0.00    -0.254 NA 
ATOM      7  C8    A A   1     -10.869   9.357  68.654  1.00  0.00    -0.109 A  
ATOM      8  N9    A A   1     -11.403   9.794  69.846  1.00  0.00    -0.223 NA 
ATOM      9  N1    A A   1     -11.830  13.679  68.925  1.00  0.00    -0.346 NA 
ATOM     10  C4    A A   1     -11.617  11.137  69.726  1.00  0.00    -0.334 A  
ATOM     11  C2    A A   1     -12.223  13.231  70.136  1.00  0.00    -0.306 A  
ATOM     12  N3    A A   1     -12.166  11.974  70.620  1.00  0.00    -0.371 NA 
ENDROOT
BRANCH   8  13
ATOM     13  C1*   A A   1     -11.700   8.907  70.939  1.00  0.00    -0.267 C  
ATOM     14  O4*   A A   1     -10.798   9.240  72.018  1.00  0.00    -0.309 OA 
ATOM     15  C4*   A A   1      -9.696   8.300  71.992  1.00  0.00    -0.252 C  
ATOM     16  H2*   A A   1     -12.481   5.764  71.552  1.00  0.00     0.000 HD 
ATOM     17  C3*   A A   1     -10.182   7.043  71.268  1.00  0.00    -0.190 C  
ATOM     18  C2*   A A   1     -11.596   7.383  70.787  1.00  0.00    -0.290 C  
ATOM     19  H3*   A A   1     -10.490   5.154  71.723  1.00  0.00     0.000 HD 
ATOM     20  O3*   A A   1     -10.189   5.935  72.172  1.00  0.00    -0.188 OA 
ATOM     21  O2*   A A   1     -12.545   6.708  71.646  1.00  0.00    -0.347 OA 
BRANCH  15  22
ATOM     22  C5*   A A   1      -8.490   8.933  71.282  1.00  0.00    -0.182 C  
ATOM     23  O5*   A A   1      -7.373   8.999  72.164  1.00  0.00    -0.334 OA 
ATOM     24  H5*   A A   1      -6.628   9.390  71.725  1.00  0.00     0.000 HD 
ENDBRANCH  15  22
ENDBRANCH   8  13
TORSDOF 2
ENDMDL
MODEL      107
REMARK 921   NORMALIZED FREE ENERGY PREDICTED BY IDOCK:   -4.46 KCAL/MOL
REMARK 922        TOTAL FREE ENERGY PREDICTED BY IDOCK:   -5.45 KCAL/MOL
REMARK 923 INTER-LIGAND FREE ENERGY PREDICTED BY IDOCK:   -5.55 KCAL/MOL
REMARK 924 INTRA-LIGAND FREE ENERGY PREDICTED BY IDOCK:    0.10 KCAL/MOL
REMARK 927      BINDING AFFINITY PREDICTED BY RF-SCORE:    0.00 PKD
ROOT
ATOM      1  N6    A A   1     -12.904  11.069  71.665  1.00  0.00    -0.443 NA 
ATOM      2  C6    A A   1     -12.277  11.748  70.630  1.00  0.00    -0.349 A  
ATOM      3  H61   A A   1     -13.427  11.539  72.404  1.00  0.00     0.000 HD 
ATOM      4  H62   A A   1     -12.200  10.483  72.116  1.00  0.00     0.000 HD 
ATOM      5  C5    A A   1     -11.555  11.098  69.611  1.00  0.00    -0.326 A  
ATOM      6  N7    A A   1     -11.278   9.769  69.380  1.00  0.00    -0.167 NA 
ATOM      7  C8    A A   1     -10.545   9.770  68.287  1.00  0.00    -0.229 A  
ATOM      8  N9    A A   1     -10.339  11.041  67.800  1.00  0.00    -0.182 NA 
ATOM      9  N1    A A   1     -12.337  13.096  70.613  1.00  0.00    -0.356 NA 
ATOM     10  C4    A A   1     -10.970  11.907  68.646  1.00  0.00    -0.228 A  
ATOM     11  C2    A A   1     -11.717  13.758  69.614  1.00  0.00    -0.318 A  
ATOM     12  N3    A A   1     -10.999  13.248  68.592  1.00  0.00    -0.256 NA 
ENDROOT
BRANCH   8  13
ATOM     13  C1*   A A   1      -9.538  11.310  66.635  1.00  0.00    -0.195 C  
ATOM     14  O4*   A A   1      -9.890  12.632  66.168  1.00  0.00    -0.253 OA 
ATOM     15  C4*   A A   1     -10.832  12.489  65.078  1.00  0.00    -0.290 C  
ATOM     16  H2*   A A   1      -8.383   9.836  63.923  1.00  0.00     0.000 HD 
ATOM     17  C3*   A A   1     -10.643  11.092  64.485  1.00  0.00    -0.328 C  
ATOM     18  C2*   A A   1      -9.608  10.415  65.390  1.00  0.00    -0.246 C  
ATOM     19  H3*   A A   1     -10.054  10.329  62.770  1.00  0.00     0.000 HD 
ATOM     20  O3*   A A   1     -10.171  11.197  63.139  1.00  0.00    -0.342 OA 
ATOM     21  O2*   A A   1      -8.340  10.391  64.694  1.00  0.00    -0.169 OA 
BRANCH  15  22
ATOM     22  C5*   A A   1     -12.263  12.695  65.597  1.00  0.00    -0.411 C  
ATOM     23  O5*   A A   1     -12.522  14.080  65.807  1.00  0.00    -0.463 OA 
ATOM     24  H5*   A A   1     -13.406  14.207  66.128  1.00  0.00     0.000 HD 
ENDBRANCH  15  22
ENDBRANCH   8  13
TORSDOF 2
ENDMDL
MODEL      108
REMARK 921   NORMALIZED FREE ENERGY PREDICTED BY IDOCK:   -4.45 KCAL/MOL
REMARK 922        TOTAL FREE ENERGY PREDICTED BY IDOCK:   -5.44 KCAL/MOL
REMARK 923 INTER-LIGAND FREE ENERGY PREDICTED BY IDOCK:   -5.25 KCAL/MOL
REMARK 924 INTRA-LIGAND FREE ENERGY PREDICTED BY IDOCK:   -0.19 KCAL/MOL
REMARK 927      BINDING AFFINITY PREDICTED BY RF-SCORE:    0.00 PKD
ROOT
ATOM      1  N6    A A   1     -13.734  12.893  72.424  1.00  0.00    -0.554 NA 
ATOM      2  C6    A A   1     -13.009  12.111  71.535  1.00  0.00    -0.295 A  
ATOM      3  H61   A A   1     -13.829  13.904  72.327  1.00  0.00     0.000 HD 
ATOM      4  H62   A A   1     -13.369  12.709  73.359  1.00  0.00     0.000 HD 
ATOM      5  C5    A A   1     -12.879  10.716  71.669  1.00  0.00    -0.465 A  
ATOM      6  N7    A A   1     -13.355   9.831  72.611  1.00  0.00    -0.139 NA 
ATOM      7  C8    A A   1     -12.894   8.660  72.225  1.00  0.00    -0.383 A  
ATOM      8  N9    A A   1     -12.144   8.749  71.074  1.00  0.00    -0.265 NA 
ATOM      9  N1    A A   1     -12.377  12.718  70.510  1.00  0.00    -0.318 NA 
ATOM     10  C4    A A   1     -12.113  10.065  70.711  1.00  0.00    -0.327 A  
ATOM     11  C2    A A   1     -11.660  11.961  69.653  1.00  0.00    -0.317 A  
ATOM     12  N3    A A   1     -11.463  10.627  69.680  1.00  0.00    -0.268 NA 
ENDROOT
BRANCH   8  13
ATOM     13  C1*   A A   1     -11.500   7.612  70.472  1.00  0.00    -0.218 C  
ATOM     14  O4*   A A   1     -10.882   6.856  71.539  1.00  0.00    -0.226 OA 
ATOM     15  C4*   A A   1      -9.478   7.206  71.586  1.00  0.00    -0.152 C  
ATOM     16  H2*   A A   1      -9.722   6.773  67.827  1.00  0.00     0.000 HD 
ATOM     17  C3*   A A   1      -9.091   7.743  70.207  1.00  0.00    -0.152 C  
ATOM     18  C2*   A A   1     -10.401   7.778  69.413  1.00  0.00    -0.219 C  
ATOM     19  H3*   A A   1      -7.894   7.205  68.742  1.00  0.00     0.000 HD 
ATOM     20  O3*   A A   1      -8.134   6.871  69.598  1.00  0.00    -0.122 OA 
ATOM     21  O2*   A A   1     -10.401   6.670  68.483  1.00  0.00    -0.167 OA 
BRANCH  15  22
ATOM     22  C5*   A A   1      -9.239   8.250  72.687  1.00  0.00    -0.274 C  
ATOM     23  O5*   A A   1      -9.550   7.704  73.965  1.00  0.00    -0.387 OA 
ATOM     24  H5*   A A   1      -9.403   8.349  74.647  1.00  0.00     0.000 HD 
ENDBRANCH  15  22
ENDBRANCH   8  13
TORSDOF 2
ENDMDL
MODEL      109
REMARK 921   NORMALIZED FREE ENERGY PREDICTED BY IDOCK:   -4.44 KCAL/MOL
REMARK 922        TOTAL FREE ENERGY PREDICTED BY IDOCK:   -5.43 KCAL/MOL
REMARK 923 INTER-LIGAND FREE ENERGY PREDICTED BY IDOCK:   -6.31 KCAL/MOL
REMARK 924 INTRA-LIGAND FREE ENERGY PREDICTED BY IDOCK:    0.87 KCAL/MOL
REMARK 927      BINDING AFFINITY PREDICTED BY RF-SCORE:    0.00 PKD
ROOT
ATOM      1  N6    A A   1     -12.869  15.910  74.068  1.00  0.00    -0.795 NA 
ATOM      2  C6    A A   1     -12.738  15.003  73.025  1.00  0.00    -0.456 A  
ATOM      3  H61   A A   1     -13.289  15.669  74.966  1.00  0.00     0.000 HD 
ATOM      4  H62   A A   1     -13.369  16.722  73.705  1.00  0.00     0.000 HD 
ATOM      5  C5    A A   1     -12.159  15.336  71.787  1.00  0.00    -0.370 A  
ATOM      6  N7    A A   1     -11.634  16.513  71.300  1.00  0.00    -0.237 NA 
ATOM      7  C8    A A   1     -11.259  16.223  70.072  1.00  0.00    -0.319 A  
ATOM      8  N9    A A   1     -11.515  14.909  69.745  1.00  0.00    -0.278 NA 
ATOM      9  N1    A A   1     -13.213  13.752  73.195  1.00  0.00    -0.459 NA 
ATOM     10  C4    A A   1     -12.105  14.329  70.831  1.00  0.00    -0.347 A  
ATOM     11  C2    A A   1     -13.099  12.873  72.177  1.00  0.00    -0.361 A  
ATOM     12  N3    A A   1     -12.569  13.076  70.953  1.00  0.00    -0.323 NA 
ENDROOT
BRANCH   8  13
ATOM     13  C1*   A A   1     -11.231  14.359  68.447  1.00  0.00    -0.273 C  
ATOM     14  O4*   A A   1      -9.806  14.479  68.234  1.00  0.00    -0.216 OA 
ATOM     15  C4*   A A   1      -9.568  15.654  67.420  1.00  0.00    -0.217 C  
ATOM     16  H2*   A A   1     -12.444  14.254  65.384  1.00  0.00     0.000 HD 
ATOM     17  C3*   A A   1     -10.858  15.950  66.652  1.00  0.00    -0.213 C  
ATOM     18  C2*   A A   1     -11.874  14.929  67.175  1.00  0.00    -0.211 C  
ATOM     19  H3*   A A   1     -11.433  15.976  64.771  1.00  0.00     0.000 HD 
ATOM     20  O3*   A A   1     -10.633  15.792  65.248  1.00  0.00    -0.383 OA 
ATOM     21  O2*   A A   1     -12.045  13.901  66.171  1.00  0.00    -0.398 OA 
BRANCH  15  22
ATOM     22  C5*   A A   1      -9.160  16.833  68.316  1.00  0.00    -0.228 C  
ATOM     23  O5*   A A   1      -8.410  17.787  67.570  1.00  0.00    -0.222 OA 
ATOM     24  H5*   A A   1      -8.157  18.516  68.124  1.00  0.00     0.000 HD 
ENDBRANCH  15  22
ENDBRANCH   8  13
TORSDOF 2
ENDMDL
MODEL      110
REMARK 921   NORMALIZED FREE ENERGY PREDICTED BY IDOCK:   -4.43 KCAL/MOL
REMARK 922        TOTAL FREE ENERGY PREDICTED BY IDOCK:   -5.42 KCAL/MOL
REMARK 923 INTER-LIGAND FREE ENERGY PREDICTED BY IDOCK:   -5.54 KCAL/MOL
REMARK 924 INTRA-LIGAND FREE ENERGY PREDICTED BY IDOCK:    0.11 KCAL/MOL
REMARK 927      BINDING AFFINITY PREDICTED BY RF-SCORE:    0.00 PKD
ROOT
ATOM      1  N6    A A   1      -9.944   8.314  71.825  1.00  0.00    -0.197 NA 
ATOM      2  C6    A A   1     -10.905   9.157  71.286  1.00  0.00    -0.332 A  
ATOM      3  H61   A A   1     -10.146   7.637  72.561  1.00  0.00     0.000 HD 
ATOM      4  H62   A A   1      -9.174   8.898  72.151  1.00  0.00     0.000 HD 
ATOM      5  C5    A A   1     -10.626  10.090  70.270  1.00  0.00    -0.295 A  
ATOM      6  N7    A A   1      -9.462  10.413  69.608  1.00  0.00    -0.148 NA 
ATOM      7  C8    A A   1      -9.810  11.374  68.778  1.00  0.00    -0.164 A  
ATOM      8  N9    A A   1     -11.149  11.683  68.873  1.00  0.00    -0.216 NA 
ATOM      9  N1    A A   1     -12.161   9.102  71.777  1.00  0.00    -0.352 NA 
ATOM     10  C4    A A   1     -11.685  10.878  69.836  1.00  0.00    -0.339 A  
ATOM     11  C2    A A   1     -13.094   9.930  71.263  1.00  0.00    -0.400 A  
ATOM     12  N3    A A   1     -12.944  10.860  70.297  1.00  0.00    -0.146 NA 
ENDROOT
BRANCH   8  13
ATOM     13  C1*   A A   1     -11.765  12.726  68.096  1.00  0.00    -0.345 C  
ATOM     14  O4*   A A   1     -12.267  12.117  66.884  1.00  0.00    -0.537 OA 
ATOM     15  C4*   A A   1     -11.305  12.355  65.827  1.00  0.00    -0.352 C  
ATOM     16  H2*   A A   1     -11.331  15.877  67.232  1.00  0.00     0.000 HD 
ATOM     17  C3*   A A   1     -10.483  13.583  66.221  1.00  0.00    -0.290 C  
ATOM     18  C2*   A A   1     -10.970  13.953  67.626  1.00  0.00    -0.264 C  
ATOM     19  H3*   A A   1     -10.208  15.406  65.535  1.00  0.00     0.000 HD 
ATOM     20  O3*   A A   1     -10.719  14.644  65.291  1.00  0.00    -0.329 OA 
ATOM     21  O2*   A A   1     -11.823  15.117  67.522  1.00  0.00    -0.283 OA 
BRANCH  15  22
ATOM     22  C5*   A A   1     -10.418  11.115  65.643  1.00  0.00    -0.248 C  
ATOM     23  O5*   A A   1     -10.132  10.909  64.263  1.00  0.00    -0.298 OA 
ATOM     24  H5*   A A   1      -9.584  10.142  64.148  1.00  0.00     0.000 HD 
ENDBRANCH  15  22
ENDBRANCH   8  13
TORSDOF 2
ENDMDL
MODEL      111
REMARK 921   NORMALIZED FREE ENERGY PREDICTED BY IDOCK:   -4.42 KCAL/MOL
REMARK 922        TOTAL FREE ENERGY PREDICTED BY IDOCK:   -5.41 KCAL/MOL
REMARK 923 INTER-LIGAND FREE ENERGY PREDICTED BY IDOCK:   -4.96 KCAL/MOL
REMARK 924 INTRA-LIGAND FREE ENERGY PREDICTED BY IDOCK:   -0.46 KCAL/MOL
REMARK 927      BINDING AFFINITY PREDICTED BY RF-SCORE:    0.00 PKD
ROOT
ATOM      1  N6    A A   1      -5.179  18.336  69.791  1.00  0.00    -0.192 NA 
ATOM      2  C6    A A   1      -5.996  17.466  69.083  1.00  0.00    -0.208 A  
ATOM      3  H61   A A   1      -4.210  18.121  70.028  1.00  0.00     0.000 HD 
ATOM      4  H62   A A   1      -5.661  18.568  70.660  1.00  0.00     0.000 HD 
ATOM      5  C5    A A   1      -7.333  17.762  68.756  1.00  0.00    -0.271 A  
ATOM      6  N7    A A   1      -8.128  18.855  69.023  1.00  0.00    -0.233 NA 
ATOM      7  C8    A A   1      -9.290  18.556  68.484  1.00  0.00    -0.338 A  
ATOM      8  N9    A A   1      -9.281  17.320  67.876  1.00  0.00    -0.242 NA 
ATOM      9  N1    A A   1      -5.497  16.268  68.714  1.00  0.00    -0.108 NA 
ATOM     10  C4    A A   1      -8.035  16.791  68.054  1.00  0.00    -0.178 A  
ATOM     11  C2    A A   1      -6.295  15.415  68.037  1.00  0.00    -0.139 A  
ATOM     12  N3    A A   1      -7.582  15.587  67.672  1.00  0.00    -0.145 NA 
ENDROOT
BRANCH   8  13
ATOM     13  C1*   A A   1     -10.443  16.751  67.247  1.00  0.00    -0.310 C  
ATOM     14  O4*   A A   1     -11.529  16.835  68.198  1.00  0.00    -0.157 OA 
ATOM     15  C4*   A A   1     -11.660  15.547  68.847  1.00  0.00    -0.373 C  
ATOM     16  H2*   A A   1     -11.338  14.248  65.300  1.00  0.00     0.000 HD 
ATOM     17  C3*   A A   1     -11.047  14.498  67.918  1.00  0.00    -0.279 C  
ATOM     18  C2*   A A   1     -10.457  15.299  66.752  1.00  0.00    -0.293 C  
ATOM     19  H3*   A A   1     -11.679  12.942  66.894  1.00  0.00     0.000 HD 
ATOM     20  O3*   A A   1     -12.060  13.593  67.471  1.00  0.00    -0.369 OA 
ATOM     21  O2*   A A   1     -11.329  15.147  65.607  1.00  0.00    -0.332 OA 
BRANCH  15  22
ATOM     22  C5*   A A   1     -10.954  15.577  70.211  1.00  0.00    -0.334 C  
ATOM     23  O5*   A A   1      -9.647  15.023  70.106  1.00  0.00    -0.455 OA 
ATOM     24  H5*   A A   1      -9.210  15.042  70.949  1.00  0.00     0.000 HD 
ENDBRANCH  15  22
ENDBRANCH   8  13
TORSDOF 2
ENDMDL
MODEL      112
REMARK 921   NORMALIZED FREE ENERGY PREDICTED BY IDOCK:   -4.41 KCAL/MOL
REMARK 922        TOTAL FREE ENERGY PREDICTED BY IDOCK:   -5.40 KCAL/MOL
REMARK 923 INTER-LIGAND FREE ENERGY PREDICTED BY IDOCK:   -4.80 KCAL/MOL
REMARK 924 INTRA-LIGAND FREE ENERGY PREDICTED BY IDOCK:   -0.60 KCAL/MOL
REMARK 927      BINDING AFFINITY PREDICTED BY RF-SCORE:    0.00 PKD
ROOT
ATOM      1  N6    A A   1     -11.109   6.400  73.212  1.00  0.00    -0.462 NA 
ATOM      2  C6    A A   1     -10.955   6.599  71.847  1.00  0.00    -0.244 A  
ATOM      3  H61   A A   1     -11.073   5.479  73.648  1.00  0.00     0.000 HD 
ATOM      4  H62   A A   1     -11.992   6.832  73.485  1.00  0.00     0.000 HD 
ATOM      5  C5    A A   1     -11.006   7.871  71.246  1.00  0.00    -0.238 A  
ATOM      6  N7    A A   1     -11.214   9.130  71.765  1.00  0.00    -0.375 NA 
ATOM      7  C8    A A   1     -11.173   9.928  70.719  1.00  0.00    -0.353 A  
ATOM      8  N9    A A   1     -10.944   9.241  69.548  1.00  0.00    -0.198 NA 
ATOM      9  N1    A A   1     -10.776   5.522  71.054  1.00  0.00    -0.232 NA 
ATOM     10  C4    A A   1     -10.847   7.917  69.867  1.00  0.00    -0.221 A  
ATOM     11  C2    A A   1     -10.640   5.713  69.725  1.00  0.00    -0.329 A  
ATOM     12  N3    A A   1     -10.673   6.875  69.040  1.00  0.00    -0.229 NA 
ENDROOT
BRANCH   8  13
ATOM     13  C1*   A A   1     -10.892   9.886  68.263  1.00  0.00    -0.230 C  
ATOM     14  O4*   A A   1      -9.544   9.736  67.762  1.00  0.00    -0.134 OA 
ATOM     15  C4*   A A   1      -8.822  10.961  68.035  1.00  0.00    -0.135 C  
ATOM     16  H2*   A A   1     -11.982  12.573  66.697  1.00  0.00     0.000 HD 
ATOM     17  C3*   A A   1      -9.854  12.079  68.190  1.00  0.00    -0.201 C  
ATOM     18  C2*   A A   1     -11.214  11.378  68.100  1.00  0.00    -0.278 C  
ATOM     19  H3*   A A   1     -10.332  13.734  67.240  1.00  0.00     0.000 HD 
ATOM     20  O3*   A A   1      -9.691  13.039  67.143  1.00  0.00    -0.219 OA 
ATOM     21  O2*   A A   1     -11.782  11.649  66.797  1.00  0.00    -0.541 OA 
BRANCH  15  22
ATOM     22  C5*   A A   1      -7.973  10.793  69.304  1.00  0.00    -0.106 C  
ATOM     23  O5*   A A   1      -7.638   9.423  69.500  1.00  0.00    -0.075 OA 
ATOM     24  H5*   A A   1      -7.114   9.319  70.285  1.00  0.00     0.000 HD 
ENDBRANCH  15  22
ENDBRANCH   8  13
TORSDOF 2
ENDMDL
MODEL      113
REMARK 921   NORMALIZED FREE ENERGY PREDICTED BY IDOCK:   -4.41 KCAL/MOL
REMARK 922        TOTAL FREE ENERGY PREDICTED BY IDOCK:   -5.40 KCAL/MOL
REMARK 923 INTER-LIGAND FREE ENERGY PREDICTED BY IDOCK:   -4.90 KCAL/MOL
REMARK 924 INTRA-LIGAND FREE ENERGY PREDICTED BY IDOCK:   -0.49 KCAL/MOL
REMARK 927      BINDING AFFINITY PREDICTED BY RF-SCORE:    0.00 PKD
ROOT
ATOM      1  N6    A A   1     -11.297  12.605  62.989  1.00  0.00    -0.707 NA 
ATOM      2  C6    A A   1     -11.449  12.510  64.366  1.00  0.00    -0.349 A  
ATOM      3  H61   A A   1     -11.723  13.346  62.432  1.00  0.00     0.000 HD 
ATOM      4  H62   A A   1     -11.591  11.714  62.588  1.00  0.00     0.000 HD 
ATOM      5  C5    A A   1     -10.862  11.488  65.134  1.00  0.00    -0.265 A  
ATOM      6  N7    A A   1     -10.079  10.408  64.790  1.00  0.00    -0.347 NA 
ATOM      7  C8    A A   1      -9.847   9.793  65.930  1.00  0.00    -0.282 A  
ATOM      8  N9    A A   1     -10.443  10.429  66.996  1.00  0.00    -0.243 NA 
ATOM      9  N1    A A   1     -12.218  13.423  64.995  1.00  0.00    -0.399 NA 
ATOM     10  C4    A A   1     -11.110  11.512  66.501  1.00  0.00    -0.282 A  
ATOM     11  C2    A A   1     -12.378  13.324  66.331  1.00  0.00    -0.282 A  
ATOM     12  N3    A A   1     -11.871  12.394  67.166  1.00  0.00    -0.534 NA 
ENDROOT
BRANCH   8  13
ATOM     13  C1*   A A   1     -10.368   9.929  68.343  1.00  0.00    -0.198 C  
ATOM     14  O4*   A A   1      -9.737  10.953  69.145  1.00  0.00    -0.193 OA 
ATOM     15  C4*   A A   1      -8.337  10.611  69.294  1.00  0.00    -0.103 C  
ATOM     16  H2*   A A   1      -9.737   7.164  70.021  1.00  0.00     0.000 HD 
ATOM     17  C3*   A A   1      -8.206   9.103  69.075  1.00  0.00    -0.115 C  
ATOM     18  C2*   A A   1      -9.611   8.637  68.679  1.00  0.00    -0.155 C  
ATOM     19  H3*   A A   1      -7.686   7.537  70.146  1.00  0.00     0.000 HD 
ATOM     20  O3*   A A   1      -7.768   8.474  70.282  1.00  0.00    -0.071 OA 
ATOM     21  O2*   A A   1     -10.205   7.964  69.814  1.00  0.00    -0.202 OA 
BRANCH  15  22
ATOM     22  C5*   A A   1      -7.497  11.406  68.283  1.00  0.00    -0.101 C  
ATOM     23  O5*   A A   1      -6.809  10.520  67.404  1.00  0.00    -0.074 OA 
ATOM     24  H5*   A A   1      -6.289  11.011  66.779  1.00  0.00     0.000 HD 
ENDBRANCH  15  22
ENDBRANCH   8  13
TORSDOF 2
ENDMDL
MODEL      114
REMARK 921   NORMALIZED FREE ENERGY PREDICTED BY IDOCK:   -4.40 KCAL/MOL
REMARK 922        TOTAL FREE ENERGY PREDICTED BY IDOCK:   -5.39 KCAL/MOL
REMARK 923 INTER-LIGAND FREE ENERGY PREDICTED BY IDOCK:   -5.09 KCAL/MOL
REMARK 924 INTRA-LIGAND FREE ENERGY PREDICTED BY IDOCK:   -0.30 KCAL/MOL
REMARK 927      BINDING AFFINITY PREDICTED BY RF-SCORE:    0.00 PKD
ROOT
ATOM      1  N6    A A   1     -12.591  14.616  69.480  1.00  0.00    -0.575 NA 
ATOM      2  C6    A A   1     -12.180  13.565  68.672  1.00  0.00    -0.137 A  
ATOM      3  H61   A A   1     -12.812  15.544  69.118  1.00  0.00     0.000 HD 
ATOM      4  H62   A A   1     -11.888  14.733  70.210  1.00  0.00     0.000 HD 
ATOM      5  C5    A A   1     -11.875  12.286  69.172  1.00  0.00    -0.301 A  
ATOM      6  N7    A A   1     -11.878  11.769  70.449  1.00  0.00    -0.325 NA 
ATOM      7  C8    A A   1     -11.484  10.522  70.301  1.00  0.00    -0.333 A  
ATOM      8  N9    A A   1     -11.231  10.209  68.983  1.00  0.00    -0.205 NA 
ATOM      9  N1    A A   1     -12.037  13.787  67.349  1.00  0.00    -0.379 NA 
ATOM     10  C4    A A   1     -11.464  11.334  68.247  1.00  0.00    -0.308 A  
ATOM     11  C2    A A   1     -11.624  12.770  66.564  1.00  0.00    -0.376 A  
ATOM     12  N3    A A   1     -11.303  11.511  66.927  1.00  0.00    -0.420 NA 
ENDROOT
BRANCH   8  13
ATOM     13  C1*   A A   1     -10.752   8.918  68.567  1.00  0.00    -0.078 C  
ATOM     14  O4*   A A   1      -9.417   8.763  69.100  1.00  0.00    -0.155 OA 
ATOM     15  C4*   A A   1      -8.472   9.083  68.050  1.00  0.00    -0.125 C  
ATOM     16  H2*   A A   1     -10.762   6.896  65.964  1.00  0.00     0.000 HD 
ATOM     17  C3*   A A   1      -9.187   8.887  66.712  1.00  0.00    -0.159 C  
ATOM     18  C2*   A A   1     -10.635   8.546  67.082  1.00  0.00    -0.243 C  
ATOM     19  H3*   A A   1      -9.014   7.700  65.152  1.00  0.00     0.000 HD 
ATOM     20  O3*   A A   1      -8.570   7.822  65.983  1.00  0.00    -0.137 OA 
ATOM     21  O2*   A A   1     -10.834   7.126  66.883  1.00  0.00    -0.352 OA 
BRANCH  15  22
ATOM     22  C5*   A A   1      -7.974  10.526  68.219  1.00  0.00    -0.113 C  
ATOM     23  O5*   A A   1      -8.113  10.943  69.574  1.00  0.00    -0.364 OA 
ATOM     24  H5*   A A   1      -7.805  11.835  69.679  1.00  0.00     0.000 HD 
ENDBRANCH  15  22
ENDBRANCH   8  13
TORSDOF 2
ENDMDL
MODEL      115
REMARK 921   NORMALIZED FREE ENERGY PREDICTED BY IDOCK:   -4.39 KCAL/MOL
REMARK 922        TOTAL FREE ENERGY PREDICTED BY IDOCK:   -5.38 KCAL/MOL
REMARK 923 INTER-LIGAND FREE ENERGY PREDICTED BY IDOCK:   -5.29 KCAL/MOL
REMARK 924 INTRA-LIGAND FREE ENERGY PREDICTED BY IDOCK:   -0.09 KCAL/MOL
REMARK 927      BINDING AFFINITY PREDICTED BY RF-SCORE:    0.00 PKD
ROOT
ATOM      1  N6    A A   1     -11.812  11.362  63.156  1.00  0.00    -0.867 NA 
ATOM      2  C6    A A   1     -11.640  12.126  64.302  1.00  0.00    -0.370 A  
ATOM      3  H61   A A   1     -12.635  11.434  62.558  1.00  0.00     0.000 HD 
ATOM      4  H62   A A   1     -11.715  10.382  63.425  1.00  0.00     0.000 HD 
ATOM      5  C5    A A   1     -10.505  12.027  65.128  1.00  0.00    -0.289 A  
ATOM      6  N7    A A   1      -9.382  11.232  65.062  1.00  0.00    -0.208 NA 
ATOM      7  C8    A A   1      -8.676  11.570  66.120  1.00  0.00    -0.131 A  
ATOM      8  N9    A A   1      -9.293  12.550  66.866  1.00  0.00    -0.213 NA 
ATOM      9  N1    A A   1     -12.619  12.984  64.659  1.00  0.00    -0.659 NA 
ATOM     10  C4    A A   1     -10.475  12.845  66.250  1.00  0.00    -0.270 A  
ATOM     11  C2    A A   1     -12.460  13.717  65.780  1.00  0.00    -0.485 A  
ATOM     12  N3    A A   1     -11.424  13.707  66.645  1.00  0.00    -0.329 NA 
ENDROOT
BRANCH   8  13
ATOM     13  C1*   A A   1      -8.738  13.062  68.091  1.00  0.00    -0.190 C  
ATOM     14  O4*   A A   1      -9.313  14.371  68.307  1.00  0.00    -0.193 OA 
ATOM     15  C4*   A A   1      -8.361  15.363  67.851  1.00  0.00    -0.144 C  
ATOM     16  H2*   A A   1      -5.900  13.201  69.761  1.00  0.00     0.000 HD 
ATOM     17  C3*   A A   1      -6.975  14.716  67.876  1.00  0.00    -0.159 C  
ATOM     18  C2*   A A   1      -7.226  13.256  68.268  1.00  0.00    -0.108 C  
ATOM     19  H3*   A A   1      -5.287  14.979  68.851  1.00  0.00     0.000 HD 
ATOM     20  O3*   A A   1      -6.148  15.380  68.836  1.00  0.00    -0.096 OA 
ATOM     21  O2*   A A   1      -6.837  13.081  69.651  1.00  0.00     0.015 OA 
BRANCH  15  22
ATOM     22  C5*   A A   1      -8.740  15.837  66.440  1.00  0.00    -0.337 C  
ATOM     23  O5*   A A   1      -9.926  16.624  66.482  1.00  0.00    -0.258 OA 
ATOM     24  H5*   A A   1     -10.160  16.916  65.609  1.00  0.00     0.000 HD 
ENDBRANCH  15  22
ENDBRANCH   8  13
TORSDOF 2
ENDMDL
MODEL      116
REMARK 921   NORMALIZED FREE ENERGY PREDICTED BY IDOCK:   -4.38 KCAL/MOL
REMARK 922        TOTAL FREE ENERGY PREDICTED BY IDOCK:   -5.37 KCAL/MOL
REMARK 923 INTER-LIGAND FREE ENERGY PREDICTED BY IDOCK:   -5.15 KCAL/MOL
REMARK 924 INTRA-LIGAND FREE ENERGY PREDICTED BY IDOCK:   -0.22 KCAL/MOL
REMARK 927      BINDING AFFINITY PREDICTED BY RF-SCORE:    0.00 PKD
ROOT
ATOM      1  N6    A A   1     -13.453  14.153  65.627  1.00  0.00    -0.600 NA 
ATOM      2  C6    A A   1     -12.466  13.320  65.119  1.00  0.00    -0.470 A  
ATOM      3  H61   A A   1     -13.939  14.849  65.063  1.00  0.00     0.000 HD 
ATOM      4  H62   A A   1     -13.057  14.636  66.434  1.00  0.00     0.000 HD 
ATOM      5  C5    A A   1     -11.795  12.359  65.899  1.00  0.00    -0.405 A  
ATOM      6  N7    A A   1     -11.895  12.018  67.230  1.00  0.00    -0.598 NA 
ATOM      7  C8    A A   1     -11.003  11.064  67.392  1.00  0.00    -0.291 A  
ATOM      8  N9    A A   1     -10.333  10.771  66.225  1.00  0.00    -0.248 NA 
ATOM      9  N1    A A   1     -12.112  13.454  63.824  1.00  0.00    -0.584 NA 
ATOM     10  C4    A A   1     -10.821  11.603  65.259  1.00  0.00    -0.283 A  
ATOM     11  C2    A A   1     -11.143  12.654  63.332  1.00  0.00    -0.298 A  
ATOM     12  N3    A A   1     -10.434  11.706  63.978  1.00  0.00    -0.329 NA 
ENDROOT
BRANCH   8  13
ATOM     13  C1*   A A   1      -9.284   9.790  66.152  1.00  0.00    -0.176 C  
ATOM     14  O4*   A A   1      -8.412  10.011  67.283  1.00  0.00    -0.121 OA 
ATOM     15  C4*   A A   1      -7.270  10.779  66.830  1.00  0.00    -0.115 C  
ATOM     16  H2*   A A   1      -7.321   8.291  63.970  1.00  0.00     0.000 HD 
ATOM     17  C3*   A A   1      -7.136  10.558  65.323  1.00  0.00    -0.047 C  
ATOM     18  C2*   A A   1      -8.349   9.703  64.938  1.00  0.00    -0.148 C  
ATOM     19  H3*   A A   1      -5.825   9.743  64.103  1.00  0.00     0.000 HD 
ATOM     20  O3*   A A   1      -5.909   9.880  65.040  1.00  0.00    -0.078 OA 
ATOM     21  O2*   A A   1      -7.900   8.345  64.722  1.00  0.00    -0.112 OA 
BRANCH  15  22
ATOM     22  C5*   A A   1      -7.475  12.264  67.168  1.00  0.00    -0.113 C  
ATOM     23  O5*   A A   1      -7.748  12.424  68.557  1.00  0.00    -0.132 OA 
ATOM     24  H5*   A A   1      -7.875  13.341  68.766  1.00  0.00     0.000 HD 
ENDBRANCH  15  22
ENDBRANCH   8  13
TORSDOF 2
ENDMDL
MODEL      117
REMARK 921   NORMALIZED FREE ENERGY PREDICTED BY IDOCK:   -4.35 KCAL/MOL
REMARK 922        TOTAL FREE ENERGY PREDICTED BY IDOCK:   -5.33 KCAL/MOL
REMARK 923 INTER-LIGAND FREE ENERGY PREDICTED BY IDOCK:   -5.05 KCAL/MOL
REMARK 924 INTRA-LIGAND FREE ENERGY PREDICTED BY IDOCK:   -0.28 KCAL/MOL
REMARK 927      BINDING AFFINITY PREDICTED BY RF-SCORE:    0.00 PKD
ROOT
ATOM      1  N6    A A   1     -12.452   6.139  72.445  1.00  0.00    -0.524 NA 
ATOM      2  C6    A A   1     -11.463   6.963  71.926  1.00  0.00    -0.272 A  
ATOM      3  H61   A A   1     -12.723   6.146  73.428  1.00  0.00     0.000 HD 
ATOM      4  H62   A A   1     -12.207   5.179  72.203  1.00  0.00     0.000 HD 
ATOM      5  C5    A A   1     -11.089   6.953  70.569  1.00  0.00    -0.288 A  
ATOM      6  N7    A A   1     -11.526   6.206  69.497  1.00  0.00    -0.381 NA 
ATOM      7  C8    A A   1     -10.795   6.624  68.485  1.00  0.00    -0.258 A  
ATOM      8  N9    A A   1      -9.907   7.610  68.855  1.00  0.00    -0.161 NA 
ATOM      9  N1    A A   1     -10.808   7.793  72.764  1.00  0.00    -0.349 NA 
ATOM     10  C4    A A   1     -10.074   7.823  70.193  1.00  0.00    -0.197 A  
ATOM     11  C2    A A   1      -9.837   8.584  72.263  1.00  0.00    -0.313 A  
ATOM     12  N3    A A   1      -9.393   8.660  70.992  1.00  0.00    -0.183 NA 
ENDROOT
BRANCH   8  13
ATOM     13  C1*   A A   1      -8.972   8.202  67.936  1.00  0.00    -0.133 C  
ATOM     14  O4*   A A   1      -8.932   9.619  68.221  1.00  0.00    -0.123 OA 
ATOM     15  C4*   A A   1      -9.787  10.296  67.268  1.00  0.00    -0.182 C  
ATOM     16  H2*   A A   1      -8.020   8.039  64.786  1.00  0.00     0.000 HD 
ATOM     17  C3*   A A   1      -9.917   9.390  66.042  1.00  0.00    -0.281 C  
ATOM     18  C2*   A A   1      -9.169   8.106  66.417  1.00  0.00    -0.199 C  
ATOM     19  H3*   A A   1      -9.407   9.462  64.143  1.00  0.00     0.000 HD 
ATOM     20  O3*   A A   1      -9.327  10.025  64.905  1.00  0.00    -0.224 OA 
ATOM     21  O2*   A A   1      -7.898   8.100  65.726  1.00  0.00    -0.088 OA 
BRANCH  15  22
ATOM     22  C5*   A A   1     -11.154  10.582  67.907  1.00  0.00    -0.304 C  
ATOM     23  O5*   A A   1     -11.890  11.507  67.113  1.00  0.00    -0.595 OA 
ATOM     24  H5*   A A   1     -12.735  11.685  67.509  1.00  0.00     0.000 HD 
ENDBRANCH  15  22
ENDBRANCH   8  13
TORSDOF 2
ENDMDL
MODEL      118
REMARK 921   NORMALIZED FREE ENERGY PREDICTED BY IDOCK:   -4.34 KCAL/MOL
REMARK 922        TOTAL FREE ENERGY PREDICTED BY IDOCK:   -5.32 KCAL/MOL
REMARK 923 INTER-LIGAND FREE ENERGY PREDICTED BY IDOCK:   -4.71 KCAL/MOL
REMARK 924 INTRA-LIGAND FREE ENERGY PREDICTED BY IDOCK:   -0.61 KCAL/MOL
REMARK 927      BINDING AFFINITY PREDICTED BY RF-SCORE:    0.00 PKD
ROOT
ATOM      1  N6    A A   1     -13.537  11.803  72.212  1.00  0.00    -0.475 NA 
ATOM      2  C6    A A   1     -12.996  10.596  71.791  1.00  0.00    -0.472 A  
ATOM      3  H61   A A   1     -14.197  11.877  72.987  1.00  0.00     0.000 HD 
ATOM      4  H62   A A   1     -13.971  12.242  71.399  1.00  0.00     0.000 HD 
ATOM      5  C5    A A   1     -12.087  10.493  70.722  1.00  0.00    -0.370 A  
ATOM      6  N7    A A   1     -11.549  11.437  69.874  1.00  0.00    -0.315 NA 
ATOM      7  C8    A A   1     -10.777  10.747  69.061  1.00  0.00    -0.228 A  
ATOM      8  N9    A A   1     -10.790   9.400  69.348  1.00  0.00    -0.218 NA 
ATOM      9  N1    A A   1     -13.379   9.463  72.417  1.00  0.00    -0.455 NA 
ATOM     10  C4    A A   1     -11.636   9.219  70.404  1.00  0.00    -0.173 A  
ATOM     11  C2    A A   1     -12.864   8.288  72.000  1.00  0.00    -0.340 A  
ATOM     12  N3    A A   1     -11.993   8.067  70.993  1.00  0.00    -0.280 NA 
ENDROOT
BRANCH   8  13
ATOM     13  C1*   A A   1     -10.056   8.432  68.578  1.00  0.00    -0.197 C  
ATOM     14  O4*   A A   1      -9.175   7.737  69.491  1.00  0.00    -0.150 OA 
ATOM     15  C4*   A A   1      -7.857   8.329  69.384  1.00  0.00    -0.104 C  
ATOM     16  H2*   A A   1      -8.555   8.076  65.666  1.00  0.00     0.000 HD 
ATOM     17  C3*   A A   1      -7.765   9.004  68.015  1.00  0.00    -0.097 C  
ATOM     18  C2*   A A   1      -9.162   8.851  67.403  1.00  0.00    -0.135 C  
ATOM     19  H3*   A A   1      -6.715   8.772  66.368  1.00  0.00     0.000 HD 
ATOM     20  O3*   A A   1      -6.772   8.352  67.218  1.00  0.00    -0.061 OA 
ATOM     21  O2*   A A   1      -9.108   7.816  66.394  1.00  0.00    -0.160 OA 
BRANCH  15  22
ATOM     22  C5*   A A   1      -7.644   9.333  70.526  1.00  0.00    -0.139 C  
ATOM     23  O5*   A A   1      -8.505   9.033  71.620  1.00  0.00    -0.339 OA 
ATOM     24  H5*   A A   1      -8.374   9.654  72.326  1.00  0.00     0.000 HD 
ENDBRANCH  15  22
ENDBRANCH   8  13
TORSDOF 2
ENDMDL
MODEL      119
REMARK 921   NORMALIZED FREE ENERGY PREDICTED BY IDOCK:   -4.32 KCAL/MOL
REMARK 922        TOTAL FREE ENERGY PREDICTED BY IDOCK:   -5.29 KCAL/MOL
REMARK 923 INTER-LIGAND FREE ENERGY PREDICTED BY IDOCK:   -5.95 KCAL/MOL
REMARK 924 INTRA-LIGAND FREE ENERGY PREDICTED BY IDOCK:    0.66 KCAL/MOL
REMARK 927      BINDING AFFINITY PREDICTED BY RF-SCORE:    0.00 PKD
ROOT
ATOM      1  N6    A A   1     -13.017  12.573  64.588  1.00  0.00    -0.844 NA 
ATOM      2  C6    A A   1     -12.225  13.704  64.734  1.00  0.00    -0.403 A  
ATOM      3  H61   A A   1     -13.772  12.506  63.905  1.00  0.00     0.000 HD 
ATOM      4  H62   A A   1     -13.414  12.359  65.504  1.00  0.00     0.000 HD 
ATOM      5  C5    A A   1     -11.184  13.796  65.676  1.00  0.00    -0.302 A  
ATOM      6  N7    A A   1     -10.714  12.912  66.622  1.00  0.00    -0.263 NA 
ATOM      7  C8    A A   1      -9.738  13.559  67.222  1.00  0.00    -0.236 A  
ATOM      8  N9    A A   1      -9.553  14.822  66.703  1.00  0.00    -0.258 NA 
ATOM      9  N1    A A   1     -12.482  14.776  63.956  1.00  0.00    -0.809 NA 
ATOM     10  C4    A A   1     -10.483  14.994  65.718  1.00  0.00    -0.337 A  
ATOM     11  C2    A A   1     -11.723  15.881  64.106  1.00  0.00    -0.027 A  
ATOM     12  N3    A A   1     -10.707  16.086  64.970  1.00  0.00    -0.593 NA 
ENDROOT
BRANCH   8  13
ATOM     13  C1*   A A   1      -8.571  15.739  67.214  1.00  0.00    -0.188 C  
ATOM     14  O4*   A A   1      -7.270  15.214  66.863  1.00  0.00    -0.141 OA 
ATOM     15  C4*   A A   1      -6.737  14.520  68.018  1.00  0.00    -0.145 C  
ATOM     16  H2*   A A   1      -7.940  17.613  69.851  1.00  0.00     0.000 HD 
ATOM     17  C3*   A A   1      -7.434  15.085  69.256  1.00  0.00    -0.188 C  
ATOM     18  C2*   A A   1      -8.479  16.064  68.712  1.00  0.00    -0.228 C  
ATOM     19  H3*   A A   1      -6.912  16.100  70.859  1.00  0.00     0.000 HD 
ATOM     20  O3*   A A   1      -6.480  15.749  70.089  1.00  0.00    -0.118 OA 
ATOM     21  O2*   A A   1      -7.996  17.412  68.924  1.00  0.00    -0.256 OA 
BRANCH  15  22
ATOM     22  C5*   A A   1      -6.977  13.010  67.872  1.00  0.00    -0.127 C  
ATOM     23  O5*   A A   1      -6.227  12.491  66.778  1.00  0.00    -0.491 OA 
ATOM     24  H5*   A A   1      -6.375  11.557  66.688  1.00  0.00     0.000 HD 
ENDBRANCH  15  22
ENDBRANCH   8  13
TORSDOF 2
ENDMDL
MODEL      120
REMARK 921   NORMALIZED FREE ENERGY PREDICTED BY IDOCK:   -4.31 KCAL/MOL
REMARK 922        TOTAL FREE ENERGY PREDICTED BY IDOCK:   -5.29 KCAL/MOL
REMARK 923 INTER-LIGAND FREE ENERGY PREDICTED BY IDOCK:   -4.79 KCAL/MOL
REMARK 924 INTRA-LIGAND FREE ENERGY PREDICTED BY IDOCK:   -0.49 KCAL/MOL
REMARK 927      BINDING AFFINITY PREDICTED BY RF-SCORE:    0.00 PKD
ROOT
ATOM      1  N6    A A   1      -5.792   9.435  69.912  1.00  0.00    -0.035 NA 
ATOM      2  C6    A A   1      -6.673   9.074  70.922  1.00  0.00    -0.080 A  
ATOM      3  H61   A A   1      -4.779   9.365  70.005  1.00  0.00     0.000 HD 
ATOM      4  H62   A A   1      -6.008  10.397  69.649  1.00  0.00     0.000 HD 
ATOM      5  C5    A A   1      -8.071   9.172  70.794  1.00  0.00    -0.174 A  
ATOM      6  N7    A A   1      -8.874   9.615  69.766  1.00  0.00    -0.193 NA 
ATOM      7  C8    A A   1     -10.100   9.490  70.229  1.00  0.00    -0.262 A  
ATOM      8  N9    A A   1     -10.124   8.982  71.510  1.00  0.00    -0.329 NA 
ATOM      9  N1    A A   1      -6.166   8.635  72.093  1.00  0.00    -0.070 NA 
ATOM     10  C4    A A   1      -8.828   8.785  71.892  1.00  0.00    -0.154 A  
ATOM     11  C2    A A   1      -7.021   8.296  73.081  1.00  0.00    -0.107 A  
ATOM     12  N3    A A   1      -8.369   8.349  73.075  1.00  0.00    -0.354 NA 
ENDROOT
BRANCH   8  13
ATOM     13  C1*   A A   1     -11.343   8.788  72.249  1.00  0.00    -0.285 C  
ATOM     14  O4*   A A   1     -11.257   7.492  72.883  1.00  0.00    -0.344 OA 
ATOM     15  C4*   A A   1     -11.990   6.543  72.070  1.00  0.00    -0.326 C  
ATOM     16  H2*   A A   1     -14.590   9.302  72.020  1.00  0.00     0.000 HD 
ATOM     17  C3*   A A   1     -13.003   7.333  71.240  1.00  0.00    -0.328 C  
ATOM     18  C2*   A A   1     -12.713   8.805  71.556  1.00  0.00    -0.328 C  
ATOM     19  H3*   A A   1     -14.962   7.460  71.107  1.00  0.00     0.000 HD 
ATOM     20  O3*   A A   1     -14.333   6.970  71.622  1.00  0.00    -0.381 OA 
ATOM     21  O2*   A A   1     -13.742   9.292  72.449  1.00  0.00    -0.465 OA 
BRANCH  15  22
ATOM     22  C5*   A A   1     -11.015   5.760  71.178  1.00  0.00    -0.225 C  
ATOM     23  O5*   A A   1     -11.137   6.178  69.822  1.00  0.00    -0.351 OA 
ATOM     24  H5*   A A   1     -10.535   5.694  69.270  1.00  0.00     0.000 HD 
ENDBRANCH  15  22
ENDBRANCH   8  13
TORSDOF 2
ENDMDL
MODEL      121
REMARK 921   NORMALIZED FREE ENERGY PREDICTED BY IDOCK:   -4.28 KCAL/MOL
REMARK 922        TOTAL FREE ENERGY PREDICTED BY IDOCK:   -5.25 KCAL/MOL
REMARK 923 INTER-LIGAND FREE ENERGY PREDICTED BY IDOCK:   -5.01 KCAL/MOL
REMARK 924 INTRA-LIGAND FREE ENERGY PREDICTED BY IDOCK:   -0.25 KCAL/MOL
REMARK 927      BINDING AFFINITY PREDICTED BY RF-SCORE:    0.00 PKD
ROOT
ATOM      1  N6    A A   1     -13.450  10.574  71.942  1.00  0.00    -0.356 NA 
ATOM      2  C6    A A   1     -13.006   9.278  71.722  1.00  0.00    -0.396 A  
ATOM      3  H61   A A   1     -14.408  10.796  72.216  1.00  0.00     0.000 HD 
ATOM      4  H62   A A   1     -13.240  11.115  71.103  1.00  0.00     0.000 HD 
ATOM      5  C5    A A   1     -11.685   8.972  71.345  1.00  0.00    -0.322 A  
ATOM      6  N7    A A   1     -10.589   9.768  71.096  1.00  0.00    -0.248 NA 
ATOM      7  C8    A A   1      -9.637   8.923  70.763  1.00  0.00    -0.229 A  
ATOM      8  N9    A A   1     -10.068   7.615  70.789  1.00  0.00    -0.189 NA 
ATOM      9  N1    A A   1     -13.887   8.264  71.848  1.00  0.00    -0.378 NA 
ATOM     10  C4    A A   1     -11.386   7.631  71.147  1.00  0.00    -0.266 A  
ATOM     11  C2    A A   1     -13.460   7.004  71.622  1.00  0.00    -0.268 A  
ATOM     12  N3    A A   1     -12.229   6.592  71.256  1.00  0.00    -0.351 NA 
ENDROOT
BRANCH   8  13
ATOM     13  C1*   A A   1      -9.224   6.508  70.428  1.00  0.00    -0.155 C  
ATOM     14  O4*   A A   1      -8.552   6.865  69.198  1.00  0.00    -0.128 OA 
ATOM     15  C4*   A A   1      -9.266   6.248  68.099  1.00  0.00    -0.110 C  
ATOM     16  H2*   A A   1      -9.201   3.213  70.370  1.00  0.00     0.000 HD 
ATOM     17  C3*   A A   1     -10.037   5.054  68.663  1.00  0.00    -0.121 C  
ATOM     18  C2*   A A   1      -9.801   5.108  70.176  1.00  0.00    -0.230 C  
ATOM     19  H3*   A A   1     -10.011   3.098  68.448  1.00  0.00     0.000 HD 
ATOM     20  O3*   A A   1      -9.532   3.840  68.098  1.00  0.00    -0.170 OA 
ATOM     21  O2*   A A   1      -8.844   4.080  70.525  1.00  0.00    -0.076 OA 
BRANCH  15  22
ATOM     22  C5*   A A   1     -10.206   7.274  67.449  1.00  0.00    -0.236 C  
ATOM     23  O5*   A A   1     -11.474   6.684  67.179  1.00  0.00    -0.779 OA 
ATOM     24  H5*   A A   1     -12.056   7.318  66.777  1.00  0.00     0.000 HD 
ENDBRANCH  15  22
ENDBRANCH   8  13
TORSDOF 2
ENDMDL
MODEL      122
REMARK 921   NORMALIZED FREE ENERGY PREDICTED BY IDOCK:   -4.26 KCAL/MOL
REMARK 922        TOTAL FREE ENERGY PREDICTED BY IDOCK:   -5.23 KCAL/MOL
REMARK 923 INTER-LIGAND FREE ENERGY PREDICTED BY IDOCK:   -4.81 KCAL/MOL
REMARK 924 INTRA-LIGAND FREE ENERGY PREDICTED BY IDOCK:   -0.42 KCAL/MOL
REMARK 927      BINDING AFFINITY PREDICTED BY RF-SCORE:    0.00 PKD
ROOT
ATOM      1  N6    A A   1      -7.811   2.812  72.646  1.00  0.00    -0.054 NA 
ATOM      2  C6    A A   1      -8.943   3.601  72.792  1.00  0.00    -0.096 A  
ATOM      3  H61   A A   1      -7.427   2.243  73.400  1.00  0.00     0.000 HD 
ATOM      4  H62   A A   1      -7.060   3.416  72.307  1.00  0.00     0.000 HD 
ATOM      5  C5    A A   1      -9.472   4.386  71.751  1.00  0.00    -0.147 A  
ATOM      6  N7    A A   1      -9.064   4.592  70.451  1.00  0.00    -0.104 NA 
ATOM      7  C8    A A   1      -9.940   5.444  69.962  1.00  0.00    -0.233 A  
ATOM      8  N9    A A   1     -10.898   5.795  70.887  1.00  0.00    -0.270 NA 
ATOM      9  N1    A A   1      -9.551   3.640  73.996  1.00  0.00    -0.095 NA 
ATOM     10  C4    A A   1     -10.604   5.135  72.045  1.00  0.00    -0.200 A  
ATOM     11  C2    A A   1     -10.644   4.417  74.144  1.00  0.00    -0.270 A  
ATOM     12  N3    A A   1     -11.237   5.209  73.226  1.00  0.00    -0.326 NA 
ENDROOT
BRANCH   8  13
ATOM     13  C1*   A A   1     -11.944   6.742  70.605  1.00  0.00    -0.362 C  
ATOM     14  O4*   A A   1     -11.307   7.984  70.227  1.00  0.00    -0.243 OA 
ATOM     15  C4*   A A   1     -11.290   8.853  71.386  1.00  0.00    -0.309 C  
ATOM     16  H2*   A A   1     -14.891   7.713  71.715  1.00  0.00     0.000 HD 
ATOM     17  C3*   A A   1     -12.407   8.392  72.324  1.00  0.00    -0.376 C  
ATOM     18  C2*   A A   1     -12.981   7.132  71.667  1.00  0.00    -0.370 C  
ATOM     19  H3*   A A   1     -14.090   9.132  73.023  1.00  0.00     0.000 HD 
ATOM     20  O3*   A A   1     -13.396   9.418  72.440  1.00  0.00    -0.452 OA 
ATOM     21  O2*   A A   1     -14.248   7.472  71.058  1.00  0.00    -0.278 OA 
BRANCH  15  22
ATOM     22  C5*   A A   1      -9.914   8.784  72.066  1.00  0.00    -0.321 C  
ATOM     23  O5*   A A   1      -9.973   7.955  73.223  1.00  0.00    -0.303 OA 
ATOM     24  H5*   A A   1      -9.123   7.913  73.644  1.00  0.00     0.000 HD 
ENDBRANCH  15  22
ENDBRANCH   8  13
TORSDOF 2
ENDMDL
MODEL      123
REMARK 921   NORMALIZED FREE ENERGY PREDICTED BY IDOCK:   -4.25 KCAL/MOL
REMARK 922        TOTAL FREE ENERGY PREDICTED BY IDOCK:   -5.22 KCAL/MOL
REMARK 923 INTER-LIGAND FREE ENERGY PREDICTED BY IDOCK:   -4.95 KCAL/MOL
REMARK 924 INTRA-LIGAND FREE ENERGY PREDICTED BY IDOCK:   -0.27 KCAL/MOL
REMARK 927      BINDING AFFINITY PREDICTED BY RF-SCORE:    0.00 PKD
ROOT
ATOM      1  N6    A A   1     -10.803   6.357  66.408  1.00  0.00    -0.525 NA 
ATOM      2  C6    A A   1     -10.627   7.382  67.327  1.00  0.00    -0.323 A  
ATOM      3  H61   A A   1     -11.094   5.416  66.673  1.00  0.00     0.000 HD 
ATOM      4  H62   A A   1      -9.934   6.269  65.879  1.00  0.00     0.000 HD 
ATOM      5  C5    A A   1     -10.225   8.681  66.961  1.00  0.00    -0.290 A  
ATOM      6  N7    A A   1      -9.909   9.240  65.742  1.00  0.00    -0.288 NA 
ATOM      7  C8    A A   1      -9.586  10.484  66.025  1.00  0.00    -0.194 A  
ATOM      8  N9    A A   1      -9.682  10.754  67.372  1.00  0.00    -0.169 NA 
ATOM      9  N1    A A   1     -10.824   7.118  68.635  1.00  0.00    -0.154 NA 
ATOM     10  C4    A A   1     -10.078   9.603  67.989  1.00  0.00    -0.178 A  
ATOM     11  C2    A A   1     -10.641   8.110  69.531  1.00  0.00    -0.213 A  
ATOM     12  N3    A A   1     -10.258   9.383  69.300  1.00  0.00    -0.194 NA 
ENDROOT
BRANCH   8  13
ATOM     13  C1*   A A   1      -9.346  12.034  67.936  1.00  0.00    -0.190 C  
ATOM     14  O4*   A A   1     -10.585  12.670  68.324  1.00  0.00    -0.222 OA 
ATOM     15  C4*   A A   1     -10.959  13.602  67.280  1.00  0.00    -0.287 C  
ATOM     16  H2*   A A   1      -7.302  14.579  67.483  1.00  0.00     0.000 HD 
ATOM     17  C3*   A A   1      -9.688  13.971  66.514  1.00  0.00    -0.295 C  
ATOM     18  C2*   A A   1      -8.589  13.095  67.125  1.00  0.00    -0.192 C  
ATOM     19  H3*   A A   1      -8.614  15.592  66.212  1.00  0.00     0.000 HD 
ATOM     20  O3*   A A   1      -9.404  15.362  66.688  1.00  0.00    -0.227 OA 
ATOM     21  O2*   A A   1      -7.771  13.923  67.985  1.00  0.00    -0.122 OA 
BRANCH  15  22
ATOM     22  C5*   A A   1     -12.008  12.958  66.360  1.00  0.00    -0.395 C  
ATOM     23  O5*   A A   1     -12.583  13.938  65.501  1.00  0.00    -0.489 OA 
ATOM     24  H5*   A A   1     -13.232  13.540  64.932  1.00  0.00     0.000 HD 
ENDBRANCH  15  22
ENDBRANCH   8  13
TORSDOF 2
ENDMDL
MODEL      124
REMARK 921   NORMALIZED FREE ENERGY PREDICTED BY IDOCK:   -4.24 KCAL/MOL
REMARK 922        TOTAL FREE ENERGY PREDICTED BY IDOCK:   -5.21 KCAL/MOL
REMARK 923 INTER-LIGAND FREE ENERGY PREDICTED BY IDOCK:   -4.79 KCAL/MOL
REMARK 924 INTRA-LIGAND FREE ENERGY PREDICTED BY IDOCK:   -0.42 KCAL/MOL
REMARK 927      BINDING AFFINITY PREDICTED BY RF-SCORE:    0.00 PKD
ROOT
ATOM      1  N6    A A   1     -11.905   5.883  72.702  1.00  0.00    -0.520 NA 
ATOM      2  C6    A A   1     -11.738   7.028  71.935  1.00  0.00    -0.296 A  
ATOM      3  H61   A A   1     -12.228   5.904  73.669  1.00  0.00     0.000 HD 
ATOM      4  H62   A A   1     -11.020   5.375  72.687  1.00  0.00     0.000 HD 
ATOM      5  C5    A A   1     -11.291   6.999  70.600  1.00  0.00    -0.307 A  
ATOM      6  N7    A A   1     -10.917   5.962  69.774  1.00  0.00    -0.378 NA 
ATOM      7  C8    A A   1     -10.574   6.547  68.646  1.00  0.00    -0.245 A  
ATOM      8  N9    A A   1     -10.713   7.916  68.706  1.00  0.00    -0.115 NA 
ATOM      9  N1    A A   1     -11.989   8.226  72.501  1.00  0.00    -0.391 NA 
ATOM     10  C4    A A   1     -11.159   8.224  69.959  1.00  0.00    -0.147 A  
ATOM     11  C2    A A   1     -11.814   9.341  71.760  1.00  0.00    -0.384 A  
ATOM     12  N3    A A   1     -11.392   9.437  70.483  1.00  0.00    -0.265 NA 
ENDROOT
BRANCH   8  13
ATOM     13  C1*   A A   1     -10.366   8.784  67.612  1.00  0.00    -0.254 C  
ATOM     14  O4*   A A   1      -8.947   8.633  67.379  1.00  0.00    -0.132 OA 
ATOM     15  C4*   A A   1      -8.263   9.731  68.030  1.00  0.00    -0.109 C  
ATOM     16  H2*   A A   1     -11.010  11.787  66.417  1.00  0.00     0.000 HD 
ATOM     17  C3*   A A   1      -9.270  10.871  68.187  1.00  0.00    -0.158 C  
ATOM     18  C2*   A A   1     -10.600  10.299  67.684  1.00  0.00    -0.263 C  
ATOM     19  H3*   A A   1      -9.481  12.704  67.504  1.00  0.00     0.000 HD 
ATOM     20  O3*   A A   1      -8.856  11.996  67.406  1.00  0.00    -0.165 OA 
ATOM     21  O2*   A A   1     -10.865  10.849  66.372  1.00  0.00    -0.230 OA 
BRANCH  15  22
ATOM     22  C5*   A A   1      -7.713   9.269  69.388  1.00  0.00    -0.082 C  
ATOM     23  O5*   A A   1      -8.223  10.089  70.435  1.00  0.00    -0.353 OA 
ATOM     24  H5*   A A   1      -7.883   9.803  71.274  1.00  0.00     0.000 HD 
ENDBRANCH  15  22
ENDBRANCH   8  13
TORSDOF 2
ENDMDL
MODEL      125
REMARK 921   NORMALIZED FREE ENERGY PREDICTED BY IDOCK:   -4.21 KCAL/MOL
REMARK 922        TOTAL FREE ENERGY PREDICTED BY IDOCK:   -5.17 KCAL/MOL
REMARK 923 INTER-LIGAND FREE ENERGY PREDICTED BY IDOCK:   -4.86 KCAL/MOL
REMARK 924 INTRA-LIGAND FREE ENERGY PREDICTED BY IDOCK:   -0.32 KCAL/MOL
REMARK 927      BINDING AFFINITY PREDICTED BY RF-SCORE:    0.00 PKD
ROOT
ATOM      1  N6    A A   1     -12.395  13.858  67.616  1.00  0.00    -0.460 NA 
ATOM      2  C6    A A   1     -11.778  15.016  68.069  1.00  0.00    -0.298 A  
ATOM      3  H61   A A   1     -12.863  13.198  68.237  1.00  0.00     0.000 HD 
ATOM      4  H62   A A   1     -11.703  13.335  67.079  1.00  0.00     0.000 HD 
ATOM      5  C5    A A   1     -11.132  15.927  67.213  1.00  0.00    -0.172 A  
ATOM      6  N7    A A   1     -10.932  15.930  65.850  1.00  0.00    -0.214 NA 
ATOM      7  C8    A A   1     -10.245  17.029  65.620  1.00  0.00    -0.176 A  
ATOM      8  N9    A A   1      -9.996  17.739  66.774  1.00  0.00    -0.317 NA 
ATOM      9  N1    A A   1     -11.771  15.268  69.395  1.00  0.00    -0.320 NA 
ATOM     10  C4    A A   1     -10.547  17.038  67.808  1.00  0.00    -0.350 A  
ATOM     11  C2    A A   1     -11.160  16.386  69.838  1.00  0.00    -0.310 A  
ATOM     12  N3    A A   1     -10.512  17.325  69.118  1.00  0.00    -0.318 NA 
ENDROOT
BRANCH   8  13
ATOM     13  C1*   A A   1      -9.231  18.957  66.790  1.00  0.00    -0.319 C  
ATOM     14  O4*   A A   1      -7.881  18.621  66.399  1.00  0.00    -0.265 OA 
ATOM     15  C4*   A A   1      -7.081  18.495  67.601  1.00  0.00    -0.210 C  
ATOM     16  H2*   A A   1      -8.841  21.716  68.550  1.00  0.00     0.000 HD 
ATOM     17  C3*   A A   1      -7.775  19.299  68.702  1.00  0.00    -0.359 C  
ATOM     18  C2*   A A   1      -9.080  19.793  68.069  1.00  0.00    -0.318 C  
ATOM     19  H3*   A A   1      -7.373  20.890  69.786  1.00  0.00     0.000 HD 
ATOM     20  O3*   A A   1      -6.942  20.391  69.102  1.00  0.00    -0.128 OA 
ATOM     21  O2*   A A   1      -8.934  21.199  67.759  1.00  0.00     0.058 OA 
BRANCH  15  22
ATOM     22  C5*   A A   1      -6.946  17.013  67.982  1.00  0.00    -0.165 C  
ATOM     23  O5*   A A   1      -7.174  16.185  66.846  1.00  0.00    -0.216 OA 
ATOM     24  H5*   A A   1      -7.091  15.268  67.082  1.00  0.00     0.000 HD 
ENDBRANCH  15  22
ENDBRANCH   8  13
TORSDOF 2
ENDMDL
MODEL      126
REMARK 921   NORMALIZED FREE ENERGY PREDICTED BY IDOCK:   -4.19 KCAL/MOL
REMARK 922        TOTAL FREE ENERGY PREDICTED BY IDOCK:   -5.15 KCAL/MOL
REMARK 923 INTER-LIGAND FREE ENERGY PREDICTED BY IDOCK:   -4.65 KCAL/MOL
REMARK 924 INTRA-LIGAND FREE ENERGY PREDICTED BY IDOCK:   -0.51 KCAL/MOL
REMARK 927      BINDING AFFINITY PREDICTED BY RF-SCORE:    0.00 PKD
ROOT
ATOM      1  N6    A A   1     -11.293   4.420  64.938  1.00  0.00    -1.085 NA 
ATOM      2  C6    A A   1     -10.327   4.599  65.918  1.00  0.00    -0.283 A  
ATOM      3  H61   A A   1     -11.300   3.622  64.302  1.00  0.00     0.000 HD 
ATOM      4  H62   A A   1     -11.308   5.265  64.366  1.00  0.00     0.000 HD 
ATOM      5  C5    A A   1     -10.318   5.701  66.795  1.00  0.00    -0.262 A  
ATOM      6  N7    A A   1     -11.148   6.794  66.912  1.00  0.00    -0.348 NA 
ATOM      7  C8    A A   1     -10.630   7.496  67.897  1.00  0.00    -0.185 A  
ATOM      8  N9    A A   1      -9.504   6.903  68.424  1.00  0.00    -0.129 NA 
ATOM      9  N1    A A   1      -9.334   3.692  66.019  1.00  0.00    -0.165 NA 
ATOM     10  C4    A A   1      -9.283   5.756  67.719  1.00  0.00    -0.105 A  
ATOM     11  C2    A A   1      -8.387   3.872  66.963  1.00  0.00    -0.100 A  
ATOM     12  N3    A A   1      -8.274   4.881  67.851  1.00  0.00    -0.100 NA 
ENDROOT
BRANCH   8  13
ATOM     13  C1*   A A   1      -8.736   7.495  69.486  1.00  0.00    -0.137 C  
ATOM     14  O4*   A A   1      -8.553   6.480  70.500  1.00  0.00    -0.139 OA 
ATOM     15  C4*   A A   1      -9.537   6.698  71.540  1.00  0.00    -0.164 C  
ATOM     16  H2*   A A   1      -8.439  10.309  71.176  1.00  0.00     0.000 HD 
ATOM     17  C3*   A A   1      -9.963   8.165  71.470  1.00  0.00    -0.182 C  
ATOM     18  C2*   A A   1      -9.236   8.732  70.246  1.00  0.00    -0.174 C  
ATOM     19  H3*   A A   1      -9.837   9.752  72.626  1.00  0.00     0.000 HD 
ATOM     20  O3*   A A   1      -9.572   8.841  72.669  1.00  0.00    -0.224 OA 
ATOM     21  O2*   A A   1      -8.130   9.543  70.707  1.00  0.00    -0.248 OA 
BRANCH  15  22
ATOM     22  C5*   A A   1     -10.729   5.752  71.333  1.00  0.00    -0.256 C  
ATOM     23  O5*   A A   1     -11.838   6.461  70.790  1.00  0.00    -0.361 OA 
ATOM     24  H5*   A A   1     -12.576   5.876  70.663  1.00  0.00     0.000 HD 
ENDBRANCH  15  22
ENDBRANCH   8  13
TORSDOF 2
ENDMDL
MODEL      127
REMARK 921   NORMALIZED FREE ENERGY PREDICTED BY IDOCK:   -4.19 KCAL/MOL
REMARK 922        TOTAL FREE ENERGY PREDICTED BY IDOCK:   -5.15 KCAL/MOL
REMARK 923 INTER-LIGAND FREE ENERGY PREDICTED BY IDOCK:   -4.67 KCAL/MOL
REMARK 924 INTRA-LIGAND FREE ENERGY PREDICTED BY IDOCK:   -0.48 KCAL/MOL
REMARK 927      BINDING AFFINITY PREDICTED BY RF-SCORE:    0.00 PKD
ROOT
ATOM      1  N6    A A   1     -11.155   7.732  71.961  1.00  0.00    -0.255 NA 
ATOM      2  C6    A A   1     -10.921   7.894  70.602  1.00  0.00    -0.245 A  
ATOM      3  H61   A A   1     -11.010   6.848  72.449  1.00  0.00     0.000 HD 
ATOM      4  H62   A A   1     -12.116   8.026  72.141  1.00  0.00     0.000 HD 
ATOM      5  C5    A A   1     -11.121   9.113  69.928  1.00  0.00    -0.159 A  
ATOM      6  N7    A A   1     -11.569  10.343  70.359  1.00  0.00    -0.312 NA 
ATOM      7  C8    A A   1     -11.567  11.091  69.276  1.00  0.00    -0.314 A  
ATOM      8  N9    A A   1     -11.134  10.401  68.166  1.00  0.00    -0.285 NA 
ATOM      9  N1    A A   1     -10.508   6.827  69.887  1.00  0.00    -0.203 NA 
ATOM     10  C4    A A   1     -10.857   9.125  68.565  1.00  0.00    -0.043 A  
ATOM     11  C2    A A   1     -10.292   6.980  68.564  1.00  0.00    -0.186 A  
ATOM     12  N3    A A   1     -10.451   8.090  67.814  1.00  0.00    -0.228 NA 
ENDROOT
BRANCH   8  13
ATOM     13  C1*   A A   1     -11.078  10.989  66.855  1.00  0.00    -0.213 C  
ATOM     14  O4*   A A   1      -9.705  10.912  66.409  1.00  0.00    -0.190 OA 
ATOM     15  C4*   A A   1      -9.079  12.197  66.649  1.00  0.00    -0.206 C  
ATOM     16  H2*   A A   1     -12.289  13.520  65.125  1.00  0.00     0.000 HD 
ATOM     17  C3*   A A   1     -10.192  13.245  66.715  1.00  0.00    -0.254 C  
ATOM     18  C2*   A A   1     -11.495  12.446  66.610  1.00  0.00    -0.370 C  
ATOM     19  H3*   A A   1     -10.745  14.817  65.670  1.00  0.00     0.000 HD 
ATOM     20  O3*   A A   1     -10.054  14.166  65.630  1.00  0.00    -0.312 OA 
ATOM     21  O2*   A A   1     -12.030  12.618  65.277  1.00  0.00    -0.391 OA 
BRANCH  15  22
ATOM     22  C5*   A A   1      -8.271  12.146  67.954  1.00  0.00    -0.155 C  
ATOM     23  O5*   A A   1      -8.498  13.322  68.725  1.00  0.00    -0.351 OA 
ATOM     24  H5*   A A   1      -7.998  13.291  69.532  1.00  0.00     0.000 HD 
ENDBRANCH  15  22
ENDBRANCH   8  13
TORSDOF 2
ENDMDL
MODEL      128
REMARK 921   NORMALIZED FREE ENERGY PREDICTED BY IDOCK:   -4.18 KCAL/MOL
REMARK 922        TOTAL FREE ENERGY PREDICTED BY IDOCK:   -5.14 KCAL/MOL
REMARK 923 INTER-LIGAND FREE ENERGY PREDICTED BY IDOCK:   -5.01 KCAL/MOL
REMARK 924 INTRA-LIGAND FREE ENERGY PREDICTED BY IDOCK:   -0.13 KCAL/MOL
REMARK 927      BINDING AFFINITY PREDICTED BY RF-SCORE:    0.00 PKD
ROOT
ATOM      1  N6    A A   1      -9.765  12.362  68.865  1.00  0.00    -0.413 NA 
ATOM      2  C6    A A   1      -9.457  13.427  68.030  1.00  0.00    -0.218 A  
ATOM      3  H61   A A   1     -10.419  11.623  68.607  1.00  0.00     0.000 HD 
ATOM      4  H62   A A   1     -10.081  12.753  69.754  1.00  0.00     0.000 HD 
ATOM      5  C5    A A   1      -8.555  14.447  68.387  1.00  0.00    -0.174 A  
ATOM      6  N7    A A   1      -7.819  14.670  69.529  1.00  0.00    -0.041 NA 
ATOM      7  C8    A A   1      -7.173  15.792  69.291  1.00  0.00    -0.211 A  
ATOM      8  N9    A A   1      -7.457  16.302  68.043  1.00  0.00    -0.133 NA 
ATOM      9  N1    A A   1     -10.071  13.506  66.831  1.00  0.00    -0.251 NA 
ATOM     10  C4    A A   1      -8.353  15.457  67.455  1.00  0.00    -0.183 A  
ATOM     11  C2    A A   1      -9.784  14.547  66.024  1.00  0.00    -0.303 A  
ATOM     12  N3    A A   1      -8.944  15.578  66.256  1.00  0.00    -0.319 NA 
ENDROOT
BRANCH   8  13
ATOM     13  C1*   A A   1      -6.904  17.540  67.563  1.00  0.00    -0.159 C  
ATOM     14  O4*   A A   1      -7.255  18.565  68.519  1.00  0.00    -0.268 OA 
ATOM     15  C4*   A A   1      -8.414  19.274  68.016  1.00  0.00    -0.317 C  
ATOM     16  H2*   A A   1      -6.451  19.234  64.772  1.00  0.00     0.000 HD 
ATOM     17  C3*   A A   1      -8.450  19.078  66.499  1.00  0.00    -0.314 C  
ATOM     18  C2*   A A   1      -7.296  18.117  66.196  1.00  0.00    -0.274 C  
ATOM     19  H3*   A A   1      -8.290  20.216  64.902  1.00  0.00     0.000 HD 
ATOM     20  O3*   A A   1      -8.267  20.337  65.844  1.00  0.00    -0.204 OA 
ATOM     21  O2*   A A   1      -6.208  18.877  65.619  1.00  0.00    -0.205 OA 
BRANCH  15  22
ATOM     22  C5*   A A   1      -9.685  18.732  68.687  1.00  0.00    -0.390 C  
ATOM     23  O5*   A A   1     -10.357  19.772  69.391  1.00  0.00    -0.638 OA 
ATOM     24  H5*   A A   1     -11.143  19.438  69.806  1.00  0.00     0.000 HD 
ENDBRANCH  15  22
ENDBRANCH   8  13
TORSDOF 2
ENDMDL
MODEL      129
REMARK 921   NORMALIZED FREE ENERGY PREDICTED BY IDOCK:   -4.15 KCAL/MOL
REMARK 922        TOTAL FREE ENERGY PREDICTED BY IDOCK:   -5.11 KCAL/MOL
REMARK 923 INTER-LIGAND FREE ENERGY PREDICTED BY IDOCK:   -4.83 KCAL/MOL
REMARK 924 INTRA-LIGAND FREE ENERGY PREDICTED BY IDOCK:   -0.28 KCAL/MOL
REMARK 927      BINDING AFFINITY PREDICTED BY RF-SCORE:    0.00 PKD
ROOT
ATOM      1  N6    A A   1     -10.499  11.562  68.837  1.00  0.00    -0.275 NA 
ATOM      2  C6    A A   1     -11.139  10.939  69.899  1.00  0.00    -0.241 A  
ATOM      3  H61   A A   1     -10.769  12.481  68.486  1.00  0.00     0.000 HD 
ATOM      4  H62   A A   1     -10.520  10.917  68.047  1.00  0.00     0.000 HD 
ATOM      5  C5    A A   1     -10.767   9.670  70.382  1.00  0.00    -0.298 A  
ATOM      6  N7    A A   1      -9.794   8.780  69.984  1.00  0.00    -0.174 NA 
ATOM      7  C8    A A   1      -9.933   7.755  70.797  1.00  0.00    -0.181 A  
ATOM      8  N9    A A   1     -10.951   7.944  71.706  1.00  0.00    -0.236 NA 
ATOM      9  N1    A A   1     -12.186  11.563  70.479  1.00  0.00    -0.377 NA 
ATOM     10  C4    A A   1     -11.505   9.164  71.444  1.00  0.00    -0.350 A  
ATOM     11  C2    A A   1     -12.817  10.952  71.502  1.00  0.00    -0.454 A  
ATOM     12  N3    A A   1     -12.554   9.746  72.047  1.00  0.00    -0.371 NA 
ENDROOT
BRANCH   8  13
ATOM     13  C1*   A A   1     -11.324   6.951  72.677  1.00  0.00    -0.235 C  
ATOM     14  O4*   A A   1     -10.715   7.329  73.932  1.00  0.00    -0.318 OA 
ATOM     15  C4*   A A   1      -9.503   6.555  74.098  1.00  0.00    -0.212 C  
ATOM     16  H2*   A A   1     -11.732   3.696  72.988  1.00  0.00     0.000 HD 
ATOM     17  C3*   A A   1      -9.640   5.296  73.239  1.00  0.00    -0.141 C  
ATOM     18  C2*   A A   1     -10.965   5.470  72.489  1.00  0.00    -0.263 C  
ATOM     19  H3*   A A   1      -9.748   3.356  73.544  1.00  0.00     0.000 HD 
ATOM     20  O3*   A A   1      -9.663   4.138  74.078  1.00  0.00    -0.111 OA 
ATOM     21  O2*   A A   1     -11.954   4.612  73.105  1.00  0.00    -0.176 OA 
BRANCH  15  22
ATOM     22  C5*   A A   1      -8.287   7.396  73.679  1.00  0.00    -0.149 C  
ATOM     23  O5*   A A   1      -8.637   8.775  73.613  1.00  0.00    -0.265 OA 
ATOM     24  H5*   A A   1      -7.886   9.295  73.354  1.00  0.00     0.000 HD 
ENDBRANCH  15  22
ENDBRANCH   8  13
TORSDOF 2
ENDMDL
MODEL      130
REMARK 921   NORMALIZED FREE ENERGY PREDICTED BY IDOCK:   -4.13 KCAL/MOL
REMARK 922        TOTAL FREE ENERGY PREDICTED BY IDOCK:   -5.08 KCAL/MOL
REMARK 923 INTER-LIGAND FREE ENERGY PREDICTED BY IDOCK:   -4.95 KCAL/MOL
REMARK 924 INTRA-LIGAND FREE ENERGY PREDICTED BY IDOCK:   -0.14 KCAL/MOL
REMARK 927      BINDING AFFINITY PREDICTED BY RF-SCORE:    0.00 PKD
ROOT
ATOM      1  N6    A A   1      -6.418  13.933  70.307  1.00  0.00    -0.381 NA 
ATOM      2  C6    A A   1      -6.861  14.694  69.234  1.00  0.00    -0.143 A  
ATOM      3  H61   A A   1      -6.583  12.929  70.383  1.00  0.00     0.000 HD 
ATOM      4  H62   A A   1      -6.779  14.367  71.157  1.00  0.00     0.000 HD 
ATOM      5  C5    A A   1      -6.635  16.079  69.129  1.00  0.00    -0.164 A  
ATOM      6  N7    A A   1      -6.003  16.977  69.961  1.00  0.00    -0.226 NA 
ATOM      7  C8    A A   1      -6.121  18.135  69.348  1.00  0.00    -0.250 A  
ATOM      8  N9    A A   1      -6.799  18.025  68.153  1.00  0.00    -0.205 NA 
ATOM      9  N1    A A   1      -7.567  14.085  68.258  1.00  0.00    -0.124 NA 
ATOM     10  C4    A A   1      -7.147  16.713  68.004  1.00  0.00    -0.148 A  
ATOM     11  C2    A A   1      -8.010  14.825  67.221  1.00  0.00    -0.205 A  
ATOM     12  N3    A A   1      -7.857  16.150  67.015  1.00  0.00    -0.199 NA 
ENDROOT
BRANCH   8  13
ATOM     13  C1*   A A   1      -7.089  19.157  67.314  1.00  0.00    -0.210 C  
ATOM     14  O4*   A A   1      -7.768  20.134  68.134  1.00  0.00    -0.276 OA 
ATOM     15  C4*   A A   1      -9.192  20.014  67.895  1.00  0.00    -0.309 C  
ATOM     16  H2*   A A   1      -8.100  19.897  64.266  1.00  0.00     0.000 HD 
ATOM     17  C3*   A A   1      -9.374  19.363  66.523  1.00  0.00    -0.359 C  
ATOM     18  C2*   A A   1      -7.956  19.021  66.054  1.00  0.00    -0.193 C  
ATOM     19  H3*   A A   1     -10.125  19.878  64.779  1.00  0.00     0.000 HD 
ATOM     20  O3*   A A   1     -10.011  20.282  65.631  1.00  0.00    -0.340 OA 
ATOM     21  O2*   A A   1      -7.564  19.981  65.046  1.00  0.00    -0.216 OA 
BRANCH  15  22
ATOM     22  C5*   A A   1      -9.837  19.176  69.009  1.00  0.00    -0.375 C  
ATOM     23  O5*   A A   1     -10.454  20.023  69.974  1.00  0.00    -0.624 OA 
ATOM     24  H5*   A A   1     -10.852  19.506  70.663  1.00  0.00     0.000 HD 
ENDBRANCH  15  22
ENDBRANCH   8  13
TORSDOF 2
ENDMDL
MODEL      131
REMARK 921   NORMALIZED FREE ENERGY PREDICTED BY IDOCK:   -4.12 KCAL/MOL
REMARK 922        TOTAL FREE ENERGY PREDICTED BY IDOCK:   -5.08 KCAL/MOL
REMARK 923 INTER-LIGAND FREE ENERGY PREDICTED BY IDOCK:   -4.56 KCAL/MOL
REMARK 924 INTRA-LIGAND FREE ENERGY PREDICTED BY IDOCK:   -0.52 KCAL/MOL
REMARK 927      BINDING AFFINITY PREDICTED BY RF-SCORE:    0.00 PKD
ROOT
ATOM      1  N6    A A   1      -7.970   6.652  69.117  1.00  0.00    -0.110 NA 
ATOM      2  C6    A A   1      -7.915   8.038  69.090  1.00  0.00    -0.114 A  
ATOM      3  H61   A A   1      -7.454   6.086  69.791  1.00  0.00     0.000 HD 
ATOM      4  H62   A A   1      -7.720   6.319  68.185  1.00  0.00     0.000 HD 
ATOM      5  C5    A A   1      -8.627   8.818  68.160  1.00  0.00    -0.134 A  
ATOM      6  N7    A A   1      -9.467   8.478  67.123  1.00  0.00    -0.153 NA 
ATOM      7  C8    A A   1      -9.818   9.630  66.592  1.00  0.00    -0.224 A  
ATOM      8  N9    A A   1      -9.245  10.700  67.244  1.00  0.00    -0.143 NA 
ATOM      9  N1    A A   1      -7.120   8.669  69.979  1.00  0.00    -0.046 NA 
ATOM     10  C4    A A   1      -8.466  10.195  68.244  1.00  0.00    -0.115 A  
ATOM     11  C2    A A   1      -7.054  10.016  69.946  1.00  0.00    -0.130 A  
ATOM     12  N3    A A   1      -7.684  10.863  69.106  1.00  0.00    -0.138 NA 
ENDROOT
BRANCH   8  13
ATOM     13  C1*   A A   1      -9.444  12.063  66.830  1.00  0.00    -0.208 C  
ATOM     14  O4*   A A   1      -9.713  12.837  68.021  1.00  0.00    -0.207 OA 
ATOM     15  C4*   A A   1     -11.146  13.011  68.133  1.00  0.00    -0.256 C  
ATOM     16  H2*   A A   1     -10.865  13.836  64.443  1.00  0.00     0.000 HD 
ATOM     17  C3*   A A   1     -11.741  12.843  66.733  1.00  0.00    -0.383 C  
ATOM     18  C2*   A A   1     -10.557  12.448  65.844  1.00  0.00    -0.258 C  
ATOM     19  H3*   A A   1     -12.699  13.969  65.436  1.00  0.00     0.000 HD 
ATOM     20  O3*   A A   1     -12.329  14.074  66.305  1.00  0.00    -0.456 OA 
ATOM     21  O2*   A A   1     -10.177  13.598  65.053  1.00  0.00    -0.353 OA 
BRANCH  15  22
ATOM     22  C5*   A A   1     -11.719  11.983  69.119  1.00  0.00    -0.330 C  
ATOM     23  O5*   A A   1     -12.309  10.894  68.416  1.00  0.00    -0.803 OA 
ATOM     24  H5*   A A   1     -12.663  10.258  69.026  1.00  0.00     0.000 HD 
ENDBRANCH  15  22
ENDBRANCH   8  13
TORSDOF 2
ENDMDL
MODEL      132
REMARK 921   NORMALIZED FREE ENERGY PREDICTED BY IDOCK:   -4.12 KCAL/MOL
REMARK 922        TOTAL FREE ENERGY PREDICTED BY IDOCK:   -5.07 KCAL/MOL
REMARK 923 INTER-LIGAND FREE ENERGY PREDICTED BY IDOCK:   -4.72 KCAL/MOL
REMARK 924 INTRA-LIGAND FREE ENERGY PREDICTED BY IDOCK:   -0.36 KCAL/MOL
REMARK 927      BINDING AFFINITY PREDICTED BY RF-SCORE:    0.00 PKD
ROOT
ATOM      1  N6    A A   1     -12.902  11.405  71.767  1.00  0.00    -0.389 NA 
ATOM      2  C6    A A   1     -12.168  11.652  70.615  1.00  0.00    -0.366 A  
ATOM      3  H61   A A   1     -13.106  10.464  72.105  1.00  0.00     0.000 HD 
ATOM      4  H62   A A   1     -13.792  11.895  71.672  1.00  0.00     0.000 HD 
ATOM      5  C5    A A   1     -11.887  12.949  70.147  1.00  0.00    -0.245 A  
ATOM      6  N7    A A   1     -12.227  14.196  70.623  1.00  0.00    -0.339 NA 
ATOM      7  C8    A A   1     -11.699  15.035  69.758  1.00  0.00    -0.307 A  
ATOM      8  N9    A A   1     -11.029  14.385  68.745  1.00  0.00    -0.241 NA 
ATOM      9  N1    A A   1     -11.727  10.601  69.892  1.00  0.00    -0.290 NA 
ATOM     10  C4    A A   1     -11.151  13.045  68.973  1.00  0.00    -0.231 A  
ATOM     11  C2    A A   1     -11.025  10.840  68.765  1.00  0.00    -0.247 A  
ATOM     12  N3    A A   1     -10.698  12.030  68.221  1.00  0.00    -0.215 NA 
ENDROOT
BRANCH   8  13
ATOM     13  C1*   A A   1     -10.397  15.081  67.656  1.00  0.00    -0.243 C  
ATOM     14  O4*   A A   1     -11.448  15.669  66.856  1.00  0.00    -0.115 OA 
ATOM     15  C4*   A A   1     -11.691  14.802  65.722  1.00  0.00    -0.252 C  
ATOM     16  H2*   A A   1      -7.905  14.778  65.520  1.00  0.00     0.000 HD 
ATOM     17  C3*   A A   1     -10.426  13.973  65.497  1.00  0.00    -0.327 C  
ATOM     18  C2*   A A   1      -9.493  14.351  66.653  1.00  0.00    -0.283 C  
ATOM     19  H3*   A A   1      -9.063  13.788  64.090  1.00  0.00     0.000 HD 
ATOM     20  O3*   A A   1      -9.849  14.303  64.231  1.00  0.00     0.287 OA 
ATOM     21  O2*   A A   1      -8.465  15.230  66.141  1.00  0.00    -0.091 OA 
BRANCH  15  22
ATOM     22  C5*   A A   1     -12.911  13.910  66.002  1.00  0.00    -0.252 C  
ATOM     23  O5*   A A   1     -12.606  12.549  65.715  1.00  0.00    -0.569 OA 
ATOM     24  H5*   A A   1     -13.360  11.997  65.888  1.00  0.00     0.000 HD 
ENDBRANCH  15  22
ENDBRANCH   8  13
TORSDOF 2
ENDMDL
MODEL      133
REMARK 921   NORMALIZED FREE ENERGY PREDICTED BY IDOCK:   -4.12 KCAL/MOL
REMARK 922        TOTAL FREE ENERGY PREDICTED BY IDOCK:   -5.07 KCAL/MOL
REMARK 923 INTER-LIGAND FREE ENERGY PREDICTED BY IDOCK:   -4.44 KCAL/MOL
REMARK 924 INTRA-LIGAND FREE ENERGY PREDICTED BY IDOCK:   -0.63 KCAL/MOL
REMARK 927      BINDING AFFINITY PREDICTED BY RF-SCORE:    0.00 PKD
ROOT
ATOM      1  N6    A A   1      -9.642   2.936  70.127  1.00  0.00    -0.121 NA 
ATOM      2  C6    A A   1      -9.296   4.180  70.637  1.00  0.00    -0.148 A  
ATOM      3  H61   A A   1      -9.222   2.065  70.452  1.00  0.00     0.000 HD 
ATOM      4  H62   A A   1      -9.517   2.976  69.115  1.00  0.00     0.000 HD 
ATOM      5  C5    A A   1      -9.876   5.382  70.189  1.00  0.00    -0.207 A  
ATOM      6  N7    A A   1     -10.822   5.646  69.223  1.00  0.00    -0.290 NA 
ATOM      7  C8    A A   1     -10.949   6.956  69.237  1.00  0.00    -0.221 A  
ATOM      8  N9    A A   1     -10.129   7.549  70.172  1.00  0.00    -0.193 NA 
ATOM      9  N1    A A   1      -8.341   4.245  71.587  1.00  0.00    -0.094 NA 
ATOM     10  C4    A A   1      -9.423   6.553  70.782  1.00  0.00    -0.172 A  
ATOM     11  C2    A A   1      -7.994   5.454  72.075  1.00  0.00    -0.113 A  
ATOM     12  N3    A A   1      -8.474   6.665  71.724  1.00  0.00    -0.119 NA 
ENDROOT
BRANCH   8  13
ATOM     13  C1*   A A   1     -10.058   8.975  70.354  1.00  0.00    -0.207 C  
ATOM     14  O4*   A A   1     -10.480   9.255  71.708  1.00  0.00    -0.337 OA 
ATOM     15  C4*   A A   1     -11.869   9.664  71.673  1.00  0.00    -0.384 C  
ATOM     16  H2*   A A   1     -10.685  11.796  68.771  1.00  0.00     0.000 HD 
ATOM     17  C3*   A A   1     -12.159  10.186  70.265  1.00  0.00    -0.204 C  
ATOM     18  C2*   A A   1     -10.870   9.937  69.476  1.00  0.00    -0.246 C  
ATOM     19  H3*   A A   1     -12.658  11.904  69.447  1.00  0.00     0.000 HD 
ATOM     20  O3*   A A   1     -12.477  11.579  70.321  1.00  0.00    -0.267 OA 
ATOM     21  O2*   A A   1     -10.183  11.200  69.315  1.00  0.00    -0.184 OA 
BRANCH  15  22
ATOM     22  C5*   A A   1     -12.770   8.473  72.033  1.00  0.00    -0.376 C  
ATOM     23  O5*   A A   1     -12.050   7.521  72.810  1.00  0.00    -0.556 OA 
ATOM     24  H5*   A A   1     -12.607   6.785  73.032  1.00  0.00     0.000 HD 
ENDBRANCH  15  22
ENDBRANCH   8  13
TORSDOF 2
ENDMDL
MODEL      134
REMARK 921   NORMALIZED FREE ENERGY PREDICTED BY IDOCK:   -4.10 KCAL/MOL
REMARK 922        TOTAL FREE ENERGY PREDICTED BY IDOCK:   -5.06 KCAL/MOL
REMARK 923 INTER-LIGAND FREE ENERGY PREDICTED BY IDOCK:   -4.86 KCAL/MOL
REMARK 924 INTRA-LIGAND FREE ENERGY PREDICTED BY IDOCK:   -0.20 KCAL/MOL
REMARK 927      BINDING AFFINITY PREDICTED BY RF-SCORE:    0.00 PKD
ROOT
ATOM      1  N6    A A   1     -11.985   7.865  72.493  1.00  0.00    -0.532 NA 
ATOM      2  C6    A A   1     -11.522   7.623  71.207  1.00  0.00    -0.269 A  
ATOM      3  H61   A A   1     -12.576   7.210  73.005  1.00  0.00     0.000 HD 
ATOM      4  H62   A A   1     -12.469   8.764  72.479  1.00  0.00     0.000 HD 
ATOM      5  C5    A A   1     -10.707   8.527  70.501  1.00  0.00    -0.221 A  
ATOM      6  N7    A A   1     -10.208   9.769  70.829  1.00  0.00    -0.250 NA 
ATOM      7  C8    A A   1      -9.529  10.142  69.765  1.00  0.00    -0.167 A  
ATOM      8  N9    A A   1      -9.565   9.195  68.765  1.00  0.00    -0.157 NA 
ATOM      9  N1    A A   1     -11.892   6.480  70.592  1.00  0.00    -0.379 NA 
ATOM     10  C4    A A   1     -10.329   8.157  69.217  1.00  0.00    -0.217 A  
ATOM     11  C2    A A   1     -11.454   6.249  69.338  1.00  0.00    -0.278 A  
ATOM     12  N3    A A   1     -10.676   7.037  68.566  1.00  0.00    -0.200 NA 
ENDROOT
BRANCH   8  13
ATOM     13  C1*   A A   1      -8.930   9.384  67.488  1.00  0.00    -0.121 C  
ATOM     14  O4*   A A   1      -8.718  10.804  67.322  1.00  0.00    -0.130 OA 
ATOM     15  C4*   A A   1      -9.785  11.327  66.495  1.00  0.00    -0.202 C  
ATOM     16  H2*   A A   1      -9.021   8.268  64.389  1.00  0.00     0.000 HD 
ATOM     17  C3*   A A   1     -10.346  10.162  65.677  1.00  0.00    -0.140 C  
ATOM     18  C2*   A A   1      -9.597   8.925  66.184  1.00  0.00    -0.265 C  
ATOM     19  H3*   A A   1     -10.452   9.662  63.777  1.00  0.00     0.000 HD 
ATOM     20  O3*   A A   1     -10.103  10.386  64.285  1.00  0.00    -0.334 OA 
ATOM     21  O2*   A A   1      -8.608   8.553  65.196  1.00  0.00    -0.177 OA 
BRANCH  15  22
ATOM     22  C5*   A A   1     -10.864  11.967  67.381  1.00  0.00    -0.242 C  
ATOM     23  O5*   A A   1     -12.002  11.116  67.472  1.00  0.00    -0.580 OA 
ATOM     24  H5*   A A   1     -12.670  11.512  68.020  1.00  0.00     0.000 HD 
ENDBRANCH  15  22
ENDBRANCH   8  13
TORSDOF 2
ENDMDL
MODEL      135
REMARK 921   NORMALIZED FREE ENERGY PREDICTED BY IDOCK:   -4.05 KCAL/MOL
REMARK 922        TOTAL FREE ENERGY PREDICTED BY IDOCK:   -5.00 KCAL/MOL
REMARK 923 INTER-LIGAND FREE ENERGY PREDICTED BY IDOCK:   -4.96 KCAL/MOL
REMARK 924 INTRA-LIGAND FREE ENERGY PREDICTED BY IDOCK:   -0.04 KCAL/MOL
REMARK 927      BINDING AFFINITY PREDICTED BY RF-SCORE:    0.00 PKD
ROOT
ATOM      1  N6    A A   1     -12.309  15.312  63.839  1.00  0.00    -1.003 NA 
ATOM      2  C6    A A   1     -11.539  14.381  64.522  1.00  0.00    -0.384 A  
ATOM      3  H61   A A   1     -12.739  15.121  62.934  1.00  0.00     0.000 HD 
ATOM      4  H62   A A   1     -11.746  16.157  63.737  1.00  0.00     0.000 HD 
ATOM      5  C5    A A   1     -10.945  14.645  65.771  1.00  0.00    -0.330 A  
ATOM      6  N7    A A   1     -10.939  15.765  66.572  1.00  0.00    -0.230 NA 
ATOM      7  C8    A A   1     -10.201  15.426  67.607  1.00  0.00    -0.246 A  
ATOM      8  N9    A A   1      -9.733  14.134  67.513  1.00  0.00    -0.230 NA 
ATOM      9  N1    A A   1     -11.325  13.177  63.953  1.00  0.00    -0.397 NA 
ATOM     10  C4    A A   1     -10.191  13.622  66.333  1.00  0.00    -0.292 A  
ATOM     11  C2    A A   1     -10.566  12.276  64.610  1.00  0.00    -0.303 A  
ATOM     12  N3    A A   1      -9.948  12.415  65.801  1.00  0.00    -0.255 NA 
ENDROOT
BRANCH   8  13
ATOM     13  C1*   A A   1      -8.874  13.541  68.503  1.00  0.00    -0.086 C  
ATOM     14  O4*   A A   1      -8.162  14.619  69.153  1.00  0.00    -0.142 OA 
ATOM     15  C4*   A A   1      -6.848  14.718  68.553  1.00  0.00    -0.107 C  
ATOM     16  H2*   A A   1      -6.890  10.948  68.955  1.00  0.00     0.000 HD 
ATOM     17  C3*   A A   1      -6.522  13.360  67.930  1.00  0.00    -0.151 C  
ATOM     18  C2*   A A   1      -7.792  12.522  68.119  1.00  0.00    -0.151 C  
ATOM     19  H3*   A A   1      -5.202  11.930  68.214  1.00  0.00     0.000 HD 
ATOM     20  O3*   A A   1      -5.404  12.774  68.601  1.00  0.00    -0.058 OA 
ATOM     21  O2*   A A   1      -7.560  11.580  69.192  1.00  0.00    -0.097 OA 
BRANCH  15  22
ATOM     22  C5*   A A   1      -6.838  15.840  67.503  1.00  0.00    -0.189 C  
ATOM     23  O5*   A A   1      -5.501  16.200  67.172  1.00  0.00    -0.306 OA 
ATOM     24  H5*   A A   1      -5.495  16.893  66.523  1.00  0.00     0.000 HD 
ENDBRANCH  15  22
ENDBRANCH   8  13
TORSDOF 2
ENDMDL
MODEL      136
REMARK 921   NORMALIZED FREE ENERGY PREDICTED BY IDOCK:   -4.02 KCAL/MOL
REMARK 922        TOTAL FREE ENERGY PREDICTED BY IDOCK:   -4.97 KCAL/MOL
REMARK 923 INTER-LIGAND FREE ENERGY PREDICTED BY IDOCK:   -4.76 KCAL/MOL
REMARK 924 INTRA-LIGAND FREE ENERGY PREDICTED BY IDOCK:   -0.21 KCAL/MOL
REMARK 927      BINDING AFFINITY PREDICTED BY RF-SCORE:    0.00 PKD
ROOT
ATOM      1  N6    A A   1     -13.525  13.913  65.819  1.00  0.00    -0.465 NA 
ATOM      2  C6    A A   1     -12.139  13.951  65.882  1.00  0.00    -0.433 A  
ATOM      3  H61   A A   1     -14.036  13.512  65.033  1.00  0.00     0.000 HD 
ATOM      4  H62   A A   1     -13.862  14.868  65.946  1.00  0.00     0.000 HD 
ATOM      5  C5    A A   1     -11.434  14.505  66.967  1.00  0.00    -0.370 A  
ATOM      6  N7    A A   1     -11.857  15.112  68.128  1.00  0.00    -0.298 NA 
ATOM      7  C8    A A   1     -10.745  15.446  68.749  1.00  0.00    -0.241 A  
ATOM      8  N9    A A   1      -9.622  15.078  68.041  1.00  0.00    -0.206 NA 
ATOM      9  N1    A A   1     -11.432  13.459  64.843  1.00  0.00    -0.315 NA 
ATOM     10  C4    A A   1     -10.047  14.485  66.888  1.00  0.00    -0.257 A  
ATOM     11  C2    A A   1     -10.085  13.507  64.897  1.00  0.00    -0.254 A  
ATOM     12  N3    A A   1      -9.305  14.012  65.875  1.00  0.00    -0.065 NA 
ENDROOT
BRANCH   8  13
ATOM     13  C1*   A A   1      -8.287  15.366  68.493  1.00  0.00    -0.151 C  
ATOM     14  O4*   A A   1      -8.260  16.755  68.892  1.00  0.00    -0.244 OA 
ATOM     15  C4*   A A   1      -7.700  17.527  67.802  1.00  0.00    -0.205 C  
ATOM     16  H2*   A A   1      -5.139  14.732  67.754  1.00  0.00     0.000 HD 
ATOM     17  C3*   A A   1      -6.857  16.576  66.950  1.00  0.00    -0.213 C  
ATOM     18  C2*   A A   1      -7.073  15.191  67.570  1.00  0.00    -0.198 C  
ATOM     19  H3*   A A   1      -4.958  16.375  66.476  1.00  0.00     0.000 HD 
ATOM     20  O3*   A A   1      -5.482  16.965  67.006  1.00  0.00    -0.140 OA 
ATOM     21  O2*   A A   1      -5.890  14.840  68.325  1.00  0.00    -0.097 OA 
BRANCH  15  22
ATOM     22  C5*   A A   1      -8.832  18.168  66.984  1.00  0.00    -0.262 C  
ATOM     23  O5*   A A   1      -8.454  18.278  65.615  1.00  0.00    -0.341 OA 
ATOM     24  H5*   A A   1      -9.154  18.674  65.109  1.00  0.00     0.000 HD 
ENDBRANCH  15  22
ENDBRANCH   8  13
TORSDOF 2
ENDMDL
MODEL      137
REMARK 921   NORMALIZED FREE ENERGY PREDICTED BY IDOCK:   -4.02 KCAL/MOL
REMARK 922        TOTAL FREE ENERGY PREDICTED BY IDOCK:   -4.96 KCAL/MOL
REMARK 923 INTER-LIGAND FREE ENERGY PREDICTED BY IDOCK:   -4.77 KCAL/MOL
REMARK 924 INTRA-LIGAND FREE ENERGY PREDICTED BY IDOCK:   -0.19 KCAL/MOL
REMARK 927      BINDING AFFINITY PREDICTED BY RF-SCORE:    0.00 PKD
ROOT
ATOM      1  N6    A A   1     -10.602   5.662  70.719  1.00  0.00    -0.263 NA 
ATOM      2  C6    A A   1     -10.523   6.449  69.578  1.00  0.00    -0.230 A  
ATOM      3  H61   A A   1     -10.987   4.718  70.718  1.00  0.00     0.000 HD 
ATOM      4  H62   A A   1     -11.111   6.198  71.424  1.00  0.00     0.000 HD 
ATOM      5  C5    A A   1      -9.992   7.753  69.580  1.00  0.00    -0.190 A  
ATOM      6  N7    A A   1      -9.478   8.539  70.588  1.00  0.00    -0.166 NA 
ATOM      7  C8    A A   1      -9.158   9.668  69.993  1.00  0.00    -0.237 A  
ATOM      8  N9    A A   1      -9.438   9.646  68.645  1.00  0.00    -0.144 NA 
ATOM      9  N1    A A   1     -11.001   5.954  68.418  1.00  0.00    -0.251 NA 
ATOM     10  C4    A A   1      -9.987   8.428  68.366  1.00  0.00    -0.187 A  
ATOM     11  C2    A A   1     -10.937   6.723  67.311  1.00  0.00    -0.363 A  
ATOM     12  N3    A A   1     -10.456   7.978  67.192  1.00  0.00    -0.327 NA 
ENDROOT
BRANCH   8  13
ATOM     13  C1*   A A   1      -9.213  10.775  67.783  1.00  0.00    -0.152 C  
ATOM     14  O4*   A A   1      -9.576  11.961  68.525  1.00  0.00    -0.200 OA 
ATOM     15  C4*   A A   1     -10.914  12.349  68.129  1.00  0.00    -0.228 C  
ATOM     16  H2*   A A   1      -9.565  11.715  64.643  1.00  0.00     0.000 HD 
ATOM     17  C3*   A A   1     -11.174  11.756  66.743  1.00  0.00    -0.328 C  
ATOM     18  C2*   A A   1      -9.933  10.912  66.434  1.00  0.00    -0.221 C  
ATOM     19  H3*   A A   1     -11.503  12.441  64.929  1.00  0.00     0.000 HD 
ATOM     20  O3*   A A   1     -11.341  12.809  65.790  1.00  0.00    -0.297 OA 
ATOM     21  O2*   A A   1      -9.119  11.630  65.478  1.00  0.00    -0.161 OA 
BRANCH  15  22
ATOM     22  C5*   A A   1     -11.931  11.839  69.163  1.00  0.00    -0.293 C  
ATOM     23  O5*   A A   1     -11.651  12.388  70.447  1.00  0.00    -0.530 OA 
ATOM     24  H5*   A A   1     -12.279  12.074  71.086  1.00  0.00     0.000 HD 
ENDBRANCH  15  22
ENDBRANCH   8  13
TORSDOF 2
ENDMDL
MODEL      138
REMARK 921   NORMALIZED FREE ENERGY PREDICTED BY IDOCK:   -4.01 KCAL/MOL
REMARK 922        TOTAL FREE ENERGY PREDICTED BY IDOCK:   -4.96 KCAL/MOL
REMARK 923 INTER-LIGAND FREE ENERGY PREDICTED BY IDOCK:   -4.85 KCAL/MOL
REMARK 924 INTRA-LIGAND FREE ENERGY PREDICTED BY IDOCK:   -0.11 KCAL/MOL
REMARK 927      BINDING AFFINITY PREDICTED BY RF-SCORE:    0.00 PKD
ROOT
ATOM      1  N6    A A   1      -8.203   7.743  63.734  1.00  0.00    -0.349 NA 
ATOM      2  C6    A A   1      -8.649   9.050  63.880  1.00  0.00    -0.132 A  
ATOM      3  H61   A A   1      -8.240   7.239  62.848  1.00  0.00     0.000 HD 
ATOM      4  H62   A A   1      -8.691   7.176  64.428  1.00  0.00     0.000 HD 
ATOM      5  C5    A A   1      -8.599   9.746  65.102  1.00  0.00    -0.158 A  
ATOM      6  N7    A A   1      -8.166   9.378  66.357  1.00  0.00    -0.110 NA 
ATOM      7  C8    A A   1      -8.383  10.439  67.105  1.00  0.00    -0.126 A  
ATOM      8  N9    A A   1      -8.933  11.478  66.388  1.00  0.00    -0.195 NA 
ATOM      9  N1    A A   1      -9.180   9.675  62.808  1.00  0.00    -0.240 NA 
ATOM     10  C4    A A   1      -9.091  11.045  65.103  1.00  0.00    -0.181 A  
ATOM     11  C2    A A   1      -9.625  10.940  62.952  1.00  0.00    -0.344 A  
ATOM     12  N3    A A   1      -9.632  11.702  64.065  1.00  0.00    -0.180 NA 
ENDROOT
BRANCH   8  13
ATOM     13  C1*   A A   1      -9.297  12.733  66.988  1.00  0.00    -0.229 C  
ATOM     14  O4*   A A   1      -9.764  12.448  68.327  1.00  0.00    -0.215 OA 
ATOM     15  C4*   A A   1     -11.212  12.421  68.303  1.00  0.00    -0.263 C  
ATOM     16  H2*   A A   1     -10.775  15.589  66.266  1.00  0.00     0.000 HD 
ATOM     17  C3*   A A   1     -11.668  13.240  67.094  1.00  0.00    -0.376 C  
ATOM     18  C2*   A A   1     -10.375  13.635  66.372  1.00  0.00    -0.286 C  
ATOM     19  H3*   A A   1     -12.678  14.899  66.783  1.00  0.00     0.000 HD 
ATOM     20  O3*   A A   1     -12.394  14.391  67.534  1.00  0.00    -0.273 OA 
ATOM     21  O2*   A A   1     -10.108  15.030  66.648  1.00  0.00    -0.250 OA 
BRANCH  15  22
ATOM     22  C5*   A A   1     -11.703  10.968  68.220  1.00  0.00    -0.229 C  
ATOM     23  O5*   A A   1     -12.569  10.673  69.312  1.00  0.00    -0.715 OA 
ATOM     24  H5*   A A   1     -12.872   9.774  69.261  1.00  0.00     0.000 HD 
ENDBRANCH  15  22
ENDBRANCH   8  13
TORSDOF 2
ENDMDL
MODEL      139
REMARK 921   NORMALIZED FREE ENERGY PREDICTED BY IDOCK:   -4.01 KCAL/MOL
REMARK 922        TOTAL FREE ENERGY PREDICTED BY IDOCK:   -4.95 KCAL/MOL
REMARK 923 INTER-LIGAND FREE ENERGY PREDICTED BY IDOCK:   -4.59 KCAL/MOL
REMARK 924 INTRA-LIGAND FREE ENERGY PREDICTED BY IDOCK:   -0.36 KCAL/MOL
REMARK 927      BINDING AFFINITY PREDICTED BY RF-SCORE:    0.00 PKD
ROOT
ATOM      1  N6    A A   1     -11.209   6.676  70.750  1.00  0.00    -0.293 NA 
ATOM      2  C6    A A   1     -10.376   7.652  70.222  1.00  0.00    -0.214 A  
ATOM      3  H61   A A   1     -11.274   6.481  71.749  1.00  0.00     0.000 HD 
ATOM      4  H62   A A   1     -10.983   5.797  70.282  1.00  0.00     0.000 HD 
ATOM      5  C5    A A   1     -10.285   7.921  68.843  1.00  0.00    -0.205 A  
ATOM      6  N7    A A   1     -10.904   7.355  67.750  1.00  0.00    -0.161 NA 
ATOM      7  C8    A A   1     -10.409   8.005  66.719  1.00  0.00    -0.290 A  
ATOM      8  N9    A A   1      -9.501   8.969  67.097  1.00  0.00    -0.146 NA 
ATOM      9  N1    A A   1      -9.595   8.359  71.065  1.00  0.00    -0.160 NA 
ATOM     10  C4    A A   1      -9.400   8.919  68.458  1.00  0.00    -0.140 A  
ATOM     11  C2    A A   1      -8.774   9.300  70.552  1.00  0.00    -0.236 A  
ATOM     12  N3    A A   1      -8.602   9.642  69.258  1.00  0.00    -0.142 NA 
ENDROOT
BRANCH   8  13
ATOM     13  C1*   A A   1      -8.794   9.789  66.150  1.00  0.00    -0.141 C  
ATOM     14  O4*   A A   1      -8.958  11.164  66.567  1.00  0.00    -0.167 OA 
ATOM     15  C4*   A A   1     -10.021  11.751  65.778  1.00  0.00    -0.238 C  
ATOM     16  H2*   A A   1      -8.208  10.048  62.917  1.00  0.00     0.000 HD 
ATOM     17  C3*   A A   1     -10.142  10.936  64.489  1.00  0.00    -0.341 C  
ATOM     18  C2*   A A   1      -9.151   9.780  64.657  1.00  0.00    -0.245 C  
ATOM     19  H3*   A A   1      -9.881  11.249  62.564  1.00  0.00     0.000 HD 
ATOM     20  O3*   A A   1      -9.806  11.754  63.365  1.00  0.00    -0.374 OA 
ATOM     21  O2*   A A   1      -7.987  10.054  63.841  1.00  0.00    -0.142 OA 
BRANCH  15  22
ATOM     22  C5*   A A   1     -11.331  11.739  66.580  1.00  0.00    -0.316 C  
ATOM     23  O5*   A A   1     -12.374  12.366  65.840  1.00  0.00    -0.638 OA 
ATOM     24  H5*   A A   1     -13.183  12.359  66.335  1.00  0.00     0.000 HD 
ENDBRANCH  15  22
ENDBRANCH   8  13
TORSDOF 2
ENDMDL
MODEL      140
REMARK 921   NORMALIZED FREE ENERGY PREDICTED BY IDOCK:   -4.01 KCAL/MOL
REMARK 922        TOTAL FREE ENERGY PREDICTED BY IDOCK:   -4.95 KCAL/MOL
REMARK 923 INTER-LIGAND FREE ENERGY PREDICTED BY IDOCK:   -4.45 KCAL/MOL
REMARK 924 INTRA-LIGAND FREE ENERGY PREDICTED BY IDOCK:   -0.50 KCAL/MOL
REMARK 927      BINDING AFFINITY PREDICTED BY RF-SCORE:    0.00 PKD
ROOT
ATOM      1  N6    A A   1     -12.394  12.687  65.507  1.00  0.00    -0.632 NA 
ATOM      2  C6    A A   1     -11.277  11.863  65.517  1.00  0.00    -0.299 A  
ATOM      3  H61   A A   1     -12.661  13.253  64.701  1.00  0.00     0.000 HD 
ATOM      4  H62   A A   1     -12.317  13.315  66.308  1.00  0.00     0.000 HD 
ATOM      5  C5    A A   1     -10.909  11.083  66.630  1.00  0.00    -0.225 A  
ATOM      6  N7    A A   1     -11.465  10.940  67.881  1.00  0.00    -0.487 NA 
ATOM      7  C8    A A   1     -10.672  10.090  68.499  1.00  0.00    -0.231 A  
ATOM      8  N9    A A   1      -9.629   9.676  67.700  1.00  0.00    -0.140 NA 
ATOM      9  N1    A A   1     -10.491  11.827  64.421  1.00  0.00    -0.288 NA 
ATOM     10  C4    A A   1      -9.759  10.315  66.501  1.00  0.00    -0.193 A  
ATOM     11  C2    A A   1      -9.398  11.037  64.435  1.00  0.00    -0.195 A  
ATOM     12  N3    A A   1      -8.946  10.252  65.435  1.00  0.00    -0.167 NA 
ENDROOT
BRANCH   8  13
ATOM     13  C1*   A A   1      -8.605   8.776  68.160  1.00  0.00    -0.134 C  
ATOM     14  O4*   A A   1      -8.409   7.787  67.124  1.00  0.00    -0.115 OA 
ATOM     15  C4*   A A   1      -9.151   6.598  67.489  1.00  0.00    -0.116 C  
ATOM     16  H2*   A A   1      -7.586   7.228  70.885  1.00  0.00     0.000 HD 
ATOM     17  C3*   A A   1      -9.349   6.626  69.006  1.00  0.00    -0.133 C  
ATOM     18  C2*   A A   1      -8.767   7.970  69.456  1.00  0.00    -0.136 C  
ATOM     19  H3*   A A   1      -8.779   5.546  70.548  1.00  0.00     0.000 HD 
ATOM     20  O3*   A A   1      -8.656   5.529  69.606  1.00  0.00    -0.106 OA 
ATOM     21  O2*   A A   1      -7.485   7.726  70.082  1.00  0.00    -0.079 OA 
BRANCH  15  22
ATOM     22  C5*   A A   1     -10.493   6.573  66.743  1.00  0.00    -0.230 C  
ATOM     23  O5*   A A   1     -11.534   7.073  67.577  1.00  0.00    -0.546 OA 
ATOM     24  H5*   A A   1     -12.364   7.057  67.116  1.00  0.00     0.000 HD 
ENDBRANCH  15  22
ENDBRANCH   8  13
TORSDOF 2
ENDMDL
MODEL      141
REMARK 921   NORMALIZED FREE ENERGY PREDICTED BY IDOCK:   -3.91 KCAL/MOL
REMARK 922        TOTAL FREE ENERGY PREDICTED BY IDOCK:   -4.84 KCAL/MOL
REMARK 923 INTER-LIGAND FREE ENERGY PREDICTED BY IDOCK:   -4.37 KCAL/MOL
REMARK 924 INTRA-LIGAND FREE ENERGY PREDICTED BY IDOCK:   -0.47 KCAL/MOL
REMARK 927      BINDING AFFINITY PREDICTED BY RF-SCORE:    0.00 PKD
ROOT
ATOM      1  N6    A A   1     -10.445  10.123  65.779  1.00  0.00    -0.130 NA 
ATOM      2  C6    A A   1     -10.089   9.868  67.096  1.00  0.00    -0.215 A  
ATOM      3  H61   A A   1     -10.355  11.042  65.346  1.00  0.00     0.000 HD 
ATOM      4  H62   A A   1     -11.413   9.823  65.662  1.00  0.00     0.000 HD 
ATOM      5  C5    A A   1     -10.213   8.600  67.694  1.00  0.00    -0.239 A  
ATOM      6  N7    A A   1     -10.680   7.396  67.216  1.00  0.00    -0.316 NA 
ATOM      7  C8    A A   1     -10.573   6.572  68.236  1.00  0.00    -0.249 A  
ATOM      8  N9    A A   1     -10.053   7.190  69.352  1.00  0.00    -0.172 NA 
ATOM      9  N1    A A   1      -9.629  10.889  67.849  1.00  0.00    -0.163 NA 
ATOM     10  C4    A A   1      -9.829   8.496  69.025  1.00  0.00    -0.183 A  
ATOM     11  C2    A A   1      -9.296  10.647  69.134  1.00  0.00    -0.160 A  
ATOM     12  N3    A A   1      -9.373   9.483  69.812  1.00  0.00    -0.195 NA 
ENDROOT
BRANCH   8  13
ATOM     13  C1*   A A   1      -9.873   6.510  70.607  1.00  0.00    -0.183 C  
ATOM     14  O4*   A A   1     -11.130   5.875  70.935  1.00  0.00    -0.282 OA 
ATOM     15  C4*   A A   1     -11.832   6.724  71.876  1.00  0.00    -0.326 C  
ATOM     16  H2*   A A   1      -8.433   6.892  73.547  1.00  0.00     0.000 HD 
ATOM     17  C3*   A A   1     -10.790   7.599  72.573  1.00  0.00    -0.314 C  
ATOM     18  C2*   A A   1      -9.465   7.267  71.879  1.00  0.00    -0.148 C  
ATOM     19  H3*   A A   1     -10.097   7.825  74.400  1.00  0.00     0.000 HD 
ATOM     20  O3*   A A   1     -10.744   7.281  73.967  1.00  0.00    -0.288 OA 
ATOM     21  O2*   A A   1      -8.687   6.424  72.760  1.00  0.00    -0.126 OA 
BRANCH  15  22
ATOM     22  C5*   A A   1     -12.877   7.570  71.133  1.00  0.00    -0.222 C  
ATOM     23  O5*   A A   1     -12.396   8.897  70.940  1.00  0.00    -0.458 OA 
ATOM     24  H5*   A A   1     -13.042   9.420  70.481  1.00  0.00     0.000 HD 
ENDBRANCH  15  22
ENDBRANCH   8  13
TORSDOF 2
ENDMDL
MODEL      142
REMARK 921   NORMALIZED FREE ENERGY PREDICTED BY IDOCK:   -3.91 KCAL/MOL
REMARK 922        TOTAL FREE ENERGY PREDICTED BY IDOCK:   -4.84 KCAL/MOL
REMARK 923 INTER-LIGAND FREE ENERGY PREDICTED BY IDOCK:   -4.50 KCAL/MOL
REMARK 924 INTRA-LIGAND FREE ENERGY PREDICTED BY IDOCK:   -0.33 KCAL/MOL
REMARK 927      BINDING AFFINITY PREDICTED BY RF-SCORE:    0.00 PKD
ROOT
ATOM      1  N6    A A   1      -7.792   5.594  66.906  1.00  0.00    -0.101 NA 
ATOM      2  C6    A A   1      -8.669   6.591  67.310  1.00  0.00    -0.110 A  
ATOM      3  H61   A A   1      -7.749   5.244  65.949  1.00  0.00     0.000 HD 
ATOM      4  H62   A A   1      -7.941   4.791  67.518  1.00  0.00     0.000 HD 
ATOM      5  C5    A A   1      -8.729   7.073  68.631  1.00  0.00    -0.123 A  
ATOM      6  N7    A A   1      -8.035   6.730  69.771  1.00  0.00    -0.122 NA 
ATOM      7  C8    A A   1      -8.536   7.507  70.707  1.00  0.00    -0.126 A  
ATOM      8  N9    A A   1      -9.520   8.340  70.222  1.00  0.00    -0.163 NA 
ATOM      9  N1    A A   1      -9.526   7.104  66.402  1.00  0.00    -0.156 NA 
ATOM     10  C4    A A   1      -9.665   8.065  68.893  1.00  0.00    -0.159 A  
ATOM     11  C2    A A   1     -10.389   8.063  66.796  1.00  0.00    -0.290 A  
ATOM     12  N3    A A   1     -10.538   8.599  68.025  1.00  0.00    -0.187 NA 
ENDROOT
BRANCH   8  13
ATOM     13  C1*   A A   1     -10.246   9.259  71.058  1.00  0.00    -0.314 C  
ATOM     14  O4*   A A   1     -10.286   8.689  72.386  1.00  0.00    -0.319 OA 
ATOM     15  C4*   A A   1     -11.568   8.037  72.559  1.00  0.00    -0.403 C  
ATOM     16  H2*   A A   1     -12.880  11.239  71.008  1.00  0.00     0.000 HD 
ATOM     17  C3*   A A   1     -12.545   8.675  71.570  1.00  0.00    -0.322 C  
ATOM     18  C2*   A A   1     -11.697   9.651  70.748  1.00  0.00    -0.314 C  
ATOM     19  H3*   A A   1     -14.189   9.751  71.668  1.00  0.00     0.000 HD 
ATOM     20  O3*   A A   1     -13.582   9.355  72.282  1.00  0.00    -0.447 OA 
ATOM     21  O2*   A A   1     -11.982  10.995  71.200  1.00  0.00    -0.279 OA 
BRANCH  15  22
ATOM     22  C5*   A A   1     -11.421   6.528  72.317  1.00  0.00    -0.289 C  
ATOM     23  O5*   A A   1     -11.703   6.213  70.957  1.00  0.00    -0.281 OA 
ATOM     24  H5*   A A   1     -11.612   5.279  70.807  1.00  0.00     0.000 HD 
ENDBRANCH  15  22
ENDBRANCH   8  13
TORSDOF 2
ENDMDL
MODEL      143
REMARK 921   NORMALIZED FREE ENERGY PREDICTED BY IDOCK:   -3.90 KCAL/MOL
REMARK 922        TOTAL FREE ENERGY PREDICTED BY IDOCK:   -4.83 KCAL/MOL
REMARK 923 INTER-LIGAND FREE ENERGY PREDICTED BY IDOCK:   -4.34 KCAL/MOL
REMARK 924 INTRA-LIGAND FREE ENERGY PREDICTED BY IDOCK:   -0.49 KCAL/MOL
REMARK 927      BINDING AFFINITY PREDICTED BY RF-SCORE:    0.00 PKD
ROOT
ATOM      1  N6    A A   1      -8.893  12.155  68.843  1.00  0.00    -0.372 NA 
ATOM      2  C6    A A   1      -9.480  10.909  68.668  1.00  0.00    -0.190 A  
ATOM      3  H61   A A   1      -8.994  12.916  68.172  1.00  0.00     0.000 HD 
ATOM      4  H62   A A   1      -7.894  12.003  68.985  1.00  0.00     0.000 HD 
ATOM      5  C5    A A   1      -9.341   9.858  69.594  1.00  0.00    -0.228 A  
ATOM      6  N7    A A   1      -8.655   9.761  70.784  1.00  0.00    -0.110 NA 
ATOM      7  C8    A A   1      -8.877   8.530  71.193  1.00  0.00    -0.179 A  
ATOM      8  N9    A A   1      -9.679   7.828  70.321  1.00  0.00    -0.179 NA 
ATOM      9  N1    A A   1     -10.195  10.684  67.546  1.00  0.00    -0.190 NA 
ATOM     10  C4    A A   1      -9.975   8.662  69.282  1.00  0.00    -0.195 A  
ATOM     11  C2    A A   1     -10.755   9.469  67.369  1.00  0.00    -0.227 A  
ATOM     12  N3    A A   1     -10.690   8.392  68.179  1.00  0.00    -0.100 NA 
ENDROOT
BRANCH   8  13
ATOM     13  C1*   A A   1     -10.035   6.450  70.528  1.00  0.00    -0.184 C  
ATOM     14  O4*   A A   1     -11.450   6.327  70.255  1.00  0.00    -0.378 OA 
ATOM     15  C4*   A A   1     -12.157   6.353  71.519  1.00  0.00    -0.231 C  
ATOM     16  H2*   A A   1      -9.439   3.923  72.558  1.00  0.00     0.000 HD 
ATOM     17  C3*   A A   1     -11.172   5.922  72.606  1.00  0.00    -0.291 C  
ATOM     18  C2*   A A   1      -9.830   5.762  71.885  1.00  0.00    -0.164 C  
ATOM     19  H3*   A A   1     -10.991   4.421  73.865  1.00  0.00     0.000 HD 
ATOM     20  O3*   A A   1     -11.602   4.689  73.189  1.00  0.00    -0.276 OA 
ATOM     21  O2*   A A   1      -9.567   4.349  71.718  1.00  0.00    -0.142 OA 
BRANCH  15  22
ATOM     22  C5*   A A   1     -12.706   7.764  71.779  1.00  0.00    -0.329 C  
ATOM     23  O5*   A A   1     -11.816   8.497  72.614  1.00  0.00    -0.369 OA 
ATOM     24  H5*   A A   1     -12.155   9.369  72.775  1.00  0.00     0.000 HD 
ENDBRANCH  15  22
ENDBRANCH   8  13
TORSDOF 2
ENDMDL
MODEL      144
REMARK 921   NORMALIZED FREE ENERGY PREDICTED BY IDOCK:   -3.89 KCAL/MOL
REMARK 922        TOTAL FREE ENERGY PREDICTED BY IDOCK:   -4.82 KCAL/MOL
REMARK 923 INTER-LIGAND FREE ENERGY PREDICTED BY IDOCK:   -4.63 KCAL/MOL
REMARK 924 INTRA-LIGAND FREE ENERGY PREDICTED BY IDOCK:   -0.20 KCAL/MOL
REMARK 927      BINDING AFFINITY PREDICTED BY RF-SCORE:    0.00 PKD
ROOT
ATOM      1  N6    A A   1     -12.545  14.535  69.190  1.00  0.00    -0.538 NA 
ATOM      2  C6    A A   1     -11.860  14.000  68.108  1.00  0.00    -0.367 A  
ATOM      3  H61   A A   1     -12.768  15.527  69.273  1.00  0.00     0.000 HD 
ATOM      4  H62   A A   1     -12.039  14.265  70.034  1.00  0.00     0.000 HD 
ATOM      5  C5    A A   1     -11.552  12.632  67.994  1.00  0.00    -0.343 A  
ATOM      6  N7    A A   1     -11.791  11.560  68.825  1.00  0.00    -0.379 NA 
ATOM      7  C8    A A   1     -11.253  10.533  68.202  1.00  0.00    -0.293 A  
ATOM      8  N9    A A   1     -10.680  10.894  67.002  1.00  0.00    -0.261 NA 
ATOM      9  N1    A A   1     -11.446  14.833  67.131  1.00  0.00    -0.364 NA 
ATOM     10  C4    A A   1     -10.851  12.241  66.860  1.00  0.00    -0.251 A  
ATOM     11  C2    A A   1     -10.768  14.317  66.084  1.00  0.00    -0.295 A  
ATOM     12  N3    A A   1     -10.415  13.033  65.869  1.00  0.00    -0.277 NA 
ENDROOT
BRANCH   8  13
ATOM     13  C1*   A A   1      -9.995   9.957  66.152  1.00  0.00    -0.263 C  
ATOM     14  O4*   A A   1      -9.055   9.235  66.980  1.00  0.00    -0.128 OA 
ATOM     15  C4*   A A   1      -7.749   9.835  66.809  1.00  0.00    -0.098 C  
ATOM     16  H2*   A A   1      -8.686   9.711  63.138  1.00  0.00     0.000 HD 
ATOM     17  C3*   A A   1      -7.748  10.559  65.462  1.00  0.00    -0.127 C  
ATOM     18  C2*   A A   1      -9.181  10.422  64.937  1.00  0.00    -0.221 C  
ATOM     19  H3*   A A   1      -6.806  10.391  63.743  1.00  0.00     0.000 HD 
ATOM     20  O3*   A A   1      -6.807   9.941  64.580  1.00  0.00    -0.114 OA 
ATOM     21  O2*   A A   1      -9.190   9.423  63.890  1.00  0.00    -0.153 OA 
BRANCH  15  22
ATOM     22  C5*   A A   1      -7.464  10.800  67.971  1.00  0.00    -0.090 C  
ATOM     23  O5*   A A   1      -6.496  11.770  67.584  1.00  0.00    -0.065 OA 
ATOM     24  H5*   A A   1      -6.319  12.367  68.302  1.00  0.00     0.000 HD 
ENDBRANCH  15  22
ENDBRANCH   8  13
TORSDOF 2
ENDMDL
MODEL      145
REMARK 921   NORMALIZED FREE ENERGY PREDICTED BY IDOCK:   -3.89 KCAL/MOL
REMARK 922        TOTAL FREE ENERGY PREDICTED BY IDOCK:   -4.82 KCAL/MOL
REMARK 923 INTER-LIGAND FREE ENERGY PREDICTED BY IDOCK:   -4.36 KCAL/MOL
REMARK 924 INTRA-LIGAND FREE ENERGY PREDICTED BY IDOCK:   -0.45 KCAL/MOL
REMARK 927      BINDING AFFINITY PREDICTED BY RF-SCORE:    0.00 PKD
ROOT
ATOM      1  N6    A A   1      -9.365  16.821  69.315  1.00  0.00    -0.149 NA 
ATOM      2  C6    A A   1     -10.215  15.818  68.871  1.00  0.00    -0.219 A  
ATOM      3  H61   A A   1      -9.685  17.621  69.862  1.00  0.00     0.000 HD 
ATOM      4  H62   A A   1      -8.873  17.187  68.499  1.00  0.00     0.000 HD 
ATOM      5  C5    A A   1      -9.773  14.715  68.116  1.00  0.00    -0.220 A  
ATOM      6  N7    A A   1      -8.530  14.360  67.642  1.00  0.00    -0.172 NA 
ATOM      7  C8    A A   1      -8.736  13.238  66.986  1.00  0.00    -0.186 A  
ATOM      8  N9    A A   1     -10.057  12.850  67.020  1.00  0.00    -0.242 NA 
ATOM      9  N1    A A   1     -11.531  15.917  69.150  1.00  0.00    -0.363 NA 
ATOM     10  C4    A A   1     -10.739  13.795  67.730  1.00  0.00    -0.246 A  
ATOM     11  C2    A A   1     -12.361  14.950  68.708  1.00  0.00     0.028 A  
ATOM     12  N3    A A   1     -12.056  13.855  67.980  1.00  0.00    -0.343 NA 
ENDROOT
BRANCH   8  13
ATOM     13  C1*   A A   1     -10.542  11.675  66.345  1.00  0.00    -0.258 C  
ATOM     14  O4*   A A   1     -11.182  10.844  67.340  1.00  0.00    -0.316 OA 
ATOM     15  C4*   A A   1     -10.243   9.818  67.744  1.00  0.00    -0.208 C  
ATOM     16  H2*   A A   1      -9.677   9.520  64.006  1.00  0.00     0.000 HD 
ATOM     17  C3*   A A   1      -9.228   9.651  66.611  1.00  0.00    -0.151 C  
ATOM     18  C2*   A A   1      -9.593  10.734  65.590  1.00  0.00    -0.216 C  
ATOM     19  H3*   A A   1      -8.712   8.238  65.344  1.00  0.00     0.000 HD 
ATOM     20  O3*   A A   1      -9.342   8.342  66.047  1.00  0.00    -0.199 OA 
ATOM     21  O2*   A A   1     -10.264  10.102  64.475  1.00  0.00    -0.256 OA 
BRANCH  15  22
ATOM     22  C5*   A A   1      -9.561  10.225  69.059  1.00  0.00    -0.203 C  
ATOM     23  O5*   A A   1     -10.523  10.724  69.983  1.00  0.00    -0.447 OA 
ATOM     24  H5*   A A   1     -10.102  10.976  70.796  1.00  0.00     0.000 HD 
ENDBRANCH  15  22
ENDBRANCH   8  13
TORSDOF 2
ENDMDL
MODEL      146
REMARK 921   NORMALIZED FREE ENERGY PREDICTED BY IDOCK:   -3.88 KCAL/MOL
REMARK 922        TOTAL FREE ENERGY PREDICTED BY IDOCK:   -4.81 KCAL/MOL
REMARK 923 INTER-LIGAND FREE ENERGY PREDICTED BY IDOCK:   -4.38 KCAL/MOL
REMARK 924 INTRA-LIGAND FREE ENERGY PREDICTED BY IDOCK:   -0.43 KCAL/MOL
REMARK 927      BINDING AFFINITY PREDICTED BY RF-SCORE:    0.00 PKD
ROOT
ATOM      1  N6    A A   1      -9.120   8.155  65.478  1.00  0.00    -0.396 NA 
ATOM      2  C6    A A   1      -9.718   7.791  66.676  1.00  0.00    -0.222 A  
ATOM      3  H61   A A   1      -9.127   7.561  64.648  1.00  0.00     0.000 HD 
ATOM      4  H62   A A   1      -8.146   8.384  65.680  1.00  0.00     0.000 HD 
ATOM      5  C5    A A   1      -9.707   8.610  67.820  1.00  0.00    -0.165 A  
ATOM      6  N7    A A   1      -9.156   9.849  68.063  1.00  0.00    -0.121 NA 
ATOM      7  C8    A A   1      -9.453  10.101  69.320  1.00  0.00    -0.218 A  
ATOM      8  N9    A A   1     -10.176   9.081  69.899  1.00  0.00    -0.194 NA 
ATOM      9  N1    A A   1     -10.314   6.583  66.758  1.00  0.00    -0.217 NA 
ATOM     10  C4    A A   1     -10.336   8.110  68.953  1.00  0.00    -0.211 A  
ATOM     11  C2    A A   1     -10.884   6.222  67.927  1.00  0.00    -0.333 A  
ATOM     12  N3    A A   1     -10.935   6.916  69.082  1.00  0.00    -0.222 NA 
ENDROOT
BRANCH   8  13
ATOM     13  C1*   A A   1     -10.589   9.103  71.277  1.00  0.00    -0.329 C  
ATOM     14  O4*   A A   1      -9.392   9.201  72.081  1.00  0.00    -0.300 OA 
ATOM     15  C4*   A A   1      -9.054   7.873  72.551  1.00  0.00    -0.187 C  
ATOM     16  H2*   A A   1     -12.762   7.708  73.325  1.00  0.00     0.000 HD 
ATOM     17  C3*   A A   1     -10.333   7.035  72.520  1.00  0.00    -0.205 C  
ATOM     18  C2*   A A   1     -11.391   7.948  71.893  1.00  0.00    -0.276 C  
ATOM     19  H3*   A A   1     -11.488   6.132  73.831  1.00  0.00     0.000 HD 
ATOM     20  O3*   A A   1     -10.694   6.653  73.850  1.00  0.00    -0.288 OA 
ATOM     21  O2*   A A   1     -12.265   8.423  72.944  1.00  0.00    -0.274 OA 
BRANCH  15  22
ATOM     22  C5*   A A   1      -7.959   7.270  71.658  1.00  0.00    -0.096 C  
ATOM     23  O5*   A A   1      -8.509   6.272  70.803  1.00  0.00    -0.131 OA 
ATOM     24  H5*   A A   1      -7.833   5.898  70.251  1.00  0.00     0.000 HD 
ENDBRANCH  15  22
ENDBRANCH   8  13
TORSDOF 2
ENDMDL
MODEL      147
REMARK 921   NORMALIZED FREE ENERGY PREDICTED BY IDOCK:   -3.87 KCAL/MOL
REMARK 922        TOTAL FREE ENERGY PREDICTED BY IDOCK:   -4.79 KCAL/MOL
REMARK 923 INTER-LIGAND FREE ENERGY PREDICTED BY IDOCK:   -4.40 KCAL/MOL
REMARK 924 INTRA-LIGAND FREE ENERGY PREDICTED BY IDOCK:   -0.39 KCAL/MOL
REMARK 927      BINDING AFFINITY PREDICTED BY RF-SCORE:    0.00 PKD
ROOT
ATOM      1  N6    A A   1      -9.151   9.470  63.873  1.00  0.00    -0.407 NA 
ATOM      2  C6    A A   1      -9.418   9.725  65.211  1.00  0.00    -0.279 A  
ATOM      3  H61   A A   1      -9.504  10.053  63.114  1.00  0.00     0.000 HD 
ATOM      4  H62   A A   1      -9.442   8.511  63.682  1.00  0.00     0.000 HD 
ATOM      5  C5    A A   1      -8.932   8.920  66.259  1.00  0.00    -0.170 A  
ATOM      6  N7    A A   1      -8.160   7.779  66.264  1.00  0.00    -0.109 NA 
ATOM      7  C8    A A   1      -8.044   7.466  67.537  1.00  0.00    -0.114 A  
ATOM      8  N9    A A   1      -8.703   8.357  68.355  1.00  0.00    -0.136 NA 
ATOM      9  N1    A A   1     -10.204  10.776  65.523  1.00  0.00    -0.267 NA 
ATOM     10  C4    A A   1      -9.290   9.289  67.549  1.00  0.00    -0.127 A  
ATOM     11  C2    A A   1     -10.476  11.017  66.823  1.00  0.00    -0.251 A  
ATOM     12  N3    A A   1     -10.071  10.320  67.904  1.00  0.00    -0.164 NA 
ENDROOT
BRANCH   8  13
ATOM     13  C1*   A A   1      -8.756   8.210  69.785  1.00  0.00    -0.135 C  
ATOM     14  O4*   A A   1      -8.862   6.796  70.067  1.00  0.00    -0.140 OA 
ATOM     15  C4*   A A   1     -10.256   6.490  70.318  1.00  0.00    -0.192 C  
ATOM     16  H2*   A A   1     -10.074   9.614  72.460  1.00  0.00     0.000 HD 
ATOM     17  C3*   A A   1     -10.941   7.787  70.753  1.00  0.00    -0.252 C  
ATOM     18  C2*   A A   1      -9.864   8.868  70.619  1.00  0.00    -0.212 C  
ATOM     19  H3*   A A   1     -11.821   8.471  72.374  1.00  0.00     0.000 HD 
ATOM     20  O3*   A A   1     -11.395   7.666  72.104  1.00  0.00    -0.263 OA 
ATOM     21  O2*   A A   1      -9.388   9.206  71.943  1.00  0.00    -0.349 OA 
BRANCH  15  22
ATOM     22  C5*   A A   1     -10.897   5.908  69.050  1.00  0.00    -0.313 C  
ATOM     23  O5*   A A   1     -11.520   6.940  68.290  1.00  0.00    -0.524 OA 
ATOM     24  H5*   A A   1     -11.917   6.580  67.506  1.00  0.00     0.000 HD 
ENDBRANCH  15  22
ENDBRANCH   8  13
TORSDOF 2
ENDMDL
MODEL      148
REMARK 921   NORMALIZED FREE ENERGY PREDICTED BY IDOCK:   -3.85 KCAL/MOL
REMARK 922        TOTAL FREE ENERGY PREDICTED BY IDOCK:   -4.77 KCAL/MOL
REMARK 923 INTER-LIGAND FREE ENERGY PREDICTED BY IDOCK:   -4.14 KCAL/MOL
REMARK 924 INTRA-LIGAND FREE ENERGY PREDICTED BY IDOCK:   -0.63 KCAL/MOL
REMARK 927      BINDING AFFINITY PREDICTED BY RF-SCORE:    0.00 PKD
ROOT
ATOM      1  N6    A A   1      -9.595   9.821  64.861  1.00  0.00    -0.387 NA 
ATOM      2  C6    A A   1      -9.161   8.892  65.797  1.00  0.00    -0.221 A  
ATOM      3  H61   A A   1      -9.464   9.703  63.857  1.00  0.00     0.000 HD 
ATOM      4  H62   A A   1      -9.191  10.723  65.117  1.00  0.00     0.000 HD 
ATOM      5  C5    A A   1      -9.342   9.056  67.183  1.00  0.00    -0.147 A  
ATOM      6  N7    A A   1      -9.914  10.066  67.926  1.00  0.00    -0.150 NA 
ATOM      7  C8    A A   1      -9.775   9.674  69.175  1.00  0.00    -0.178 A  
ATOM      8  N9    A A   1      -9.142   8.455  69.272  1.00  0.00    -0.150 NA 
ATOM      9  N1    A A   1      -8.511   7.793  65.362  1.00  0.00    -0.135 NA 
ATOM     10  C4    A A   1      -8.846   8.050  68.002  1.00  0.00    -0.128 A  
ATOM     11  C2    A A   1      -8.077   6.896  66.271  1.00  0.00    -0.112 A  
ATOM     12  N3    A A   1      -8.190   6.946  67.614  1.00  0.00    -0.116 NA 
ENDROOT
BRANCH   8  13
ATOM     13  C1*   A A   1      -8.841   7.831  70.532  1.00  0.00    -0.145 C  
ATOM     14  O4*   A A   1      -9.555   6.575  70.570  1.00  0.00    -0.168 OA 
ATOM     15  C4*   A A   1     -10.769   6.769  71.336  1.00  0.00    -0.224 C  
ATOM     16  H2*   A A   1      -8.426   8.558  73.720  1.00  0.00     0.000 HD 
ATOM     17  C3*   A A   1     -10.548   7.975  72.251  1.00  0.00    -0.291 C  
ATOM     18  C2*   A A   1      -9.167   8.517  71.866  1.00  0.00    -0.255 C  
ATOM     19  H3*   A A   1     -10.446   8.307  74.187  1.00  0.00     0.000 HD 
ATOM     20  O3*   A A   1     -10.583   7.558  73.619  1.00  0.00    -0.348 OA 
ATOM     21  O2*   A A   1      -8.224   8.133  72.894  1.00  0.00    -0.152 OA 
BRANCH  15  22
ATOM     22  C5*   A A   1     -11.955   6.990  70.384  1.00  0.00    -0.207 C  
ATOM     23  O5*   A A   1     -11.652   6.483  69.088  1.00  0.00    -0.629 OA 
ATOM     24  H5*   A A   1     -12.385   6.620  68.499  1.00  0.00     0.000 HD 
ENDBRANCH  15  22
ENDBRANCH   8  13
TORSDOF 2
ENDMDL
MODEL      149
REMARK 921   NORMALIZED FREE ENERGY PREDICTED BY IDOCK:   -3.73 KCAL/MOL
REMARK 922        TOTAL FREE ENERGY PREDICTED BY IDOCK:   -4.64 KCAL/MOL
REMARK 923 INTER-LIGAND FREE ENERGY PREDICTED BY IDOCK:   -4.25 KCAL/MOL
REMARK 924 INTRA-LIGAND FREE ENERGY PREDICTED BY IDOCK:   -0.39 KCAL/MOL
REMARK 927      BINDING AFFINITY PREDICTED BY RF-SCORE:    0.00 PKD
ROOT
ATOM      1  N6    A A   1      -7.949   6.099  65.472  1.00  0.00    -0.110 NA 
ATOM      2  C6    A A   1      -8.246   7.330  64.901  1.00  0.00    -0.073 A  
ATOM      3  H61   A A   1      -7.358   5.403  65.017  1.00  0.00     0.000 HD 
ATOM      4  H62   A A   1      -8.835   5.647  65.698  1.00  0.00     0.000 HD 
ATOM      5  C5    A A   1      -9.061   8.290  65.529  1.00  0.00    -0.006 A  
ATOM      6  N7    A A   1      -9.733   8.287  66.732  1.00  0.00    -0.217 NA 
ATOM      7  C8    A A   1     -10.343   9.452  66.771  1.00  0.00    -0.233 A  
ATOM      8  N9    A A   1     -10.093  10.210  65.648  1.00  0.00    -0.272 NA 
ATOM      9  N1    A A   1      -7.754   7.609  63.676  1.00  0.00    -0.119 NA 
ATOM     10  C4    A A   1      -9.282   9.473  64.835  1.00  0.00    -0.223 A  
ATOM     11  C2    A A   1      -8.053   8.799  63.115  1.00  0.00    -0.176 A  
ATOM     12  N3    A A   1      -8.819   9.790  63.616  1.00  0.00    -0.222 NA 
ENDROOT
BRANCH   8  13
ATOM     13  C1*   A A   1     -10.677  11.507  65.438  1.00  0.00    -0.278 C  
ATOM     14  O4*   A A   1      -9.592  12.462  65.385  1.00  0.00    -0.163 OA 
ATOM     15  C4*   A A   1      -9.481  13.090  66.685  1.00  0.00    -0.256 C  
ATOM     16  H2*   A A   1     -13.251  13.343  66.368  1.00  0.00     0.000 HD 
ATOM     17  C3*   A A   1     -10.837  12.954  67.380  1.00  0.00    -0.251 C  
ATOM     18  C2*   A A   1     -11.686  12.104  66.429  1.00  0.00    -0.324 C  
ATOM     19  H3*   A A   1     -12.254  14.163  68.011  1.00  0.00     0.000 HD 
ATOM     20  O3*   A A   1     -11.412  14.248  67.579  1.00  0.00    -0.309 OA 
ATOM     21  O2*   A A   1     -12.626  12.974  65.755  1.00  0.00    -0.500 OA 
BRANCH  15  22
ATOM     22  C5*   A A   1      -8.360  12.419  67.493  1.00  0.00    -0.173 C  
ATOM     23  O5*   A A   1      -8.332  12.929  68.823  1.00  0.00    -0.345 OA 
ATOM     24  H5*   A A   1      -7.639  12.515  69.323  1.00  0.00     0.000 HD 
ENDBRANCH  15  22
ENDBRANCH   8  13
TORSDOF 2
ENDMDL
MODEL      150
REMARK 921   NORMALIZED FREE ENERGY PREDICTED BY IDOCK:   -3.73 KCAL/MOL
REMARK 922        TOTAL FREE ENERGY PREDICTED BY IDOCK:   -4.64 KCAL/MOL
REMARK 923 INTER-LIGAND FREE ENERGY PREDICTED BY IDOCK:   -4.21 KCAL/MOL
REMARK 924 INTRA-LIGAND FREE ENERGY PREDICTED BY IDOCK:   -0.43 KCAL/MOL
REMARK 927      BINDING AFFINITY PREDICTED BY RF-SCORE:    0.00 PKD
ROOT
ATOM      1  N6    A A   1     -11.739  10.698  70.837  1.00  0.00    -0.322 NA 
ATOM      2  C6    A A   1     -11.863   9.399  71.310  1.00  0.00    -0.360 A  
ATOM      3  H61   A A   1     -12.518  11.222  70.438  1.00  0.00     0.000 HD 
ATOM      4  H62   A A   1     -10.985  10.700  70.148  1.00  0.00     0.000 HD 
ATOM      5  C5    A A   1     -10.788   8.676  71.860  1.00  0.00    -0.348 A  
ATOM      6  N7    A A   1      -9.462   8.995  72.049  1.00  0.00    -0.336 NA 
ATOM      7  C8    A A   1      -8.936   7.915  72.587  1.00  0.00    -0.192 A  
ATOM      8  N9    A A   1      -9.866   6.912  72.757  1.00  0.00    -0.164 NA 
ATOM      9  N1    A A   1     -13.063   8.790  71.215  1.00  0.00    -0.235 NA 
ATOM     10  C4    A A   1     -11.057   7.380  72.282  1.00  0.00    -0.266 A  
ATOM     11  C2    A A   1     -13.183   7.522  71.663  1.00  0.00    -0.356 A  
ATOM     12  N3    A A   1     -12.230   6.734  72.202  1.00  0.00    -0.265 NA 
ENDROOT
BRANCH   8  13
ATOM     13  C1*   A A   1      -9.530   5.620  73.291  1.00  0.00    -0.142 C  
ATOM     14  O4*   A A   1      -8.399   5.126  72.538  1.00  0.00    -0.115 OA 
ATOM     15  C4*   A A   1      -8.893   4.211  71.530  1.00  0.00    -0.112 C  
ATOM     16  H2*   A A   1     -10.944   2.866  74.422  1.00  0.00     0.000 HD 
ATOM     17  C3*   A A   1     -10.252   3.692  72.005  1.00  0.00    -0.075 C  
ATOM     18  C2*   A A   1     -10.542   4.465  73.296  1.00  0.00    -0.210 C  
ATOM     19  H3*   A A   1     -11.020   1.962  72.540  1.00  0.00     0.000 HD 
ATOM     20  O3*   A A   1     -10.176   2.284  72.245  1.00  0.00    -0.156 OA 
ATOM     21  O2*   A A   1     -10.317   3.580  74.418  1.00  0.00    -0.166 OA 
BRANCH  15  22
ATOM     22  C5*   A A   1      -9.005   4.935  70.180  1.00  0.00    -0.107 C  
ATOM     23  O5*   A A   1     -10.371   5.169  69.852  1.00  0.00    -0.279 OA 
ATOM     24  H5*   A A   1     -10.440   5.617  69.018  1.00  0.00     0.000 HD 
ENDBRANCH  15  22
ENDBRANCH   8  13
TORSDOF 2
ENDMDL
MODEL      151
REMARK 921   NORMALIZED FREE ENERGY PREDICTED BY IDOCK:   -3.71 KCAL/MOL
REMARK 922        TOTAL FREE ENERGY PREDICTED BY IDOCK:   -4.62 KCAL/MOL
REMARK 923 INTER-LIGAND FREE ENERGY PREDICTED BY IDOCK:   -5.68 KCAL/MOL
REMARK 924 INTRA-LIGAND FREE ENERGY PREDICTED BY IDOCK:    1.06 KCAL/MOL
REMARK 927      BINDING AFFINITY PREDICTED BY RF-SCORE:    0.00 PKD
ROOT
ATOM      1  N6    A A   1     -11.361  16.287  63.650  1.00  0.00    -1.053 NA 
ATOM      2  C6    A A   1     -11.124  16.706  64.952  1.00  0.00    -0.129 A  
ATOM      3  H61   A A   1     -11.243  16.895  62.840  1.00  0.00     0.000 HD 
ATOM      4  H62   A A   1     -12.311  15.916  63.618  1.00  0.00     0.000 HD 
ATOM      5  C5    A A   1     -11.287  15.867  66.071  1.00  0.00     0.212 A  
ATOM      6  N7    A A   1     -11.695  14.557  66.190  1.00  0.00    -0.367 NA 
ATOM      7  C8    A A   1     -11.671  14.321  67.484  1.00  0.00    -0.384 A  
ATOM      8  N9    A A   1     -11.262  15.420  68.207  1.00  0.00    -0.308 NA 
ATOM      9  N1    A A   1     -10.746  17.984  65.160  1.00  0.00    -0.565 NA 
ATOM     10  C4    A A   1     -11.024  16.426  67.315  1.00  0.00    -0.118 A  
ATOM     11  C2    A A   1     -10.528  18.397  66.426  1.00  0.00    -0.383 A  
ATOM     12  N3    A A   1     -10.653  17.690  67.568  1.00  0.00    -0.364 NA 
ENDROOT
BRANCH   8  13
ATOM     13  C1*   A A   1     -11.190  15.426  69.644  1.00  0.00    -0.283 C  
ATOM     14  O4*   A A   1     -10.662  14.143  70.051  1.00  0.00     0.096 OA 
ATOM     15  C4*   A A   1     -11.773  13.301  70.443  1.00  0.00    -0.083 C  
ATOM     16  H2*   A A   1     -12.879  16.421  72.293  1.00  0.00     0.000 HD 
ATOM     17  C3*   A A   1     -12.935  14.221  70.823  1.00  0.00    -0.304 C  
ATOM     18  C2*   A A   1     -12.439  15.637  70.510  1.00  0.00    -0.398 C  
ATOM     19  H3*   A A   1     -13.960  14.640  72.450  1.00  0.00     0.000 HD 
ATOM     20  O3*   A A   1     -13.238  14.069  72.213  1.00  0.00    -0.391 OA 
ATOM     21  O2*   A A   1     -12.105  16.290  71.757  1.00  0.00    -0.462 OA 
BRANCH  15  22
ATOM     22  C5*   A A   1     -12.149  12.364  69.285  1.00  0.00    -0.165 C  
ATOM     23  O5*   A A   1     -11.133  11.386  69.088  1.00  0.00    -0.228 OA 
ATOM     24  H5*   A A   1     -11.365  10.806  68.373  1.00  0.00     0.000 HD 
ENDBRANCH  15  22
ENDBRANCH   8  13
TORSDOF 2
ENDMDL
MODEL      152
REMARK 921   NORMALIZED FREE ENERGY PREDICTED BY IDOCK:   -3.70 KCAL/MOL
REMARK 922        TOTAL FREE ENERGY PREDICTED BY IDOCK:   -4.61 KCAL/MOL
REMARK 923 INTER-LIGAND FREE ENERGY PREDICTED BY IDOCK:   -4.18 KCAL/MOL
REMARK 924 INTRA-LIGAND FREE ENERGY PREDICTED BY IDOCK:   -0.43 KCAL/MOL
REMARK 927      BINDING AFFINITY PREDICTED BY RF-SCORE:    0.00 PKD
ROOT
ATOM      1  N6    A A   1      -5.496  11.707  70.192  1.00  0.00    -0.098 NA 
ATOM      2  C6    A A   1      -6.406  12.090  69.216  1.00  0.00    -0.102 A  
ATOM      3  H61   A A   1      -4.635  12.221  70.382  1.00  0.00     0.000 HD 
ATOM      4  H62   A A   1      -5.237  10.738  70.004  1.00  0.00     0.000 HD 
ATOM      5  C5    A A   1      -7.593  11.380  68.954  1.00  0.00    -0.114 A  
ATOM      6  N7    A A   1      -8.125  10.235  69.504  1.00  0.00    -0.167 NA 
ATOM      7  C8    A A   1      -9.245  10.041  68.841  1.00  0.00    -0.169 A  
ATOM      8  N9    A A   1      -9.463  11.012  67.890  1.00  0.00    -0.162 NA 
ATOM      9  N1    A A   1      -6.129  13.175  68.465  1.00  0.00    -0.072 NA 
ATOM     10  C4    A A   1      -8.405  11.873  67.940  1.00  0.00    -0.152 A  
ATOM     11  C2    A A   1      -7.007  13.540  67.507  1.00  0.00    -0.145 A  
ATOM     12  N3    A A   1      -8.167  12.942  67.165  1.00  0.00    -0.169 NA 
ENDROOT
BRANCH   8  13
ATOM     13  C1*   A A   1     -10.601  11.001  67.010  1.00  0.00    -0.256 C  
ATOM     14  O4*   A A   1     -10.527   9.785  66.230  1.00  0.00    -0.191 OA 
ATOM     15  C4*   A A   1      -9.953  10.111  64.940  1.00  0.00    -0.288 C  
ATOM     16  H2*   A A   1     -12.392  13.009  65.107  1.00  0.00     0.000 HD 
ATOM     17  C3*   A A   1     -10.189  11.602  64.695  1.00  0.00    -0.281 C  
ATOM     18  C2*   A A   1     -10.834  12.119  65.985  1.00  0.00    -0.282 C  
ATOM     19  H3*   A A   1     -11.202  12.703  63.417  1.00  0.00     0.000 HD 
ATOM     20  O3*   A A   1     -11.056  11.777  63.570  1.00  0.00    -0.407 OA 
ATOM     21  O2*   A A   1     -12.247  12.316  65.741  1.00  0.00    -0.622 OA 
BRANCH  15  22
ATOM     22  C5*   A A   1      -8.456   9.766  64.936  1.00  0.00    -0.157 C  
ATOM     23  O5*   A A   1      -7.675  10.946  64.776  1.00  0.00    -0.350 OA 
ATOM     24  H5*   A A   1      -6.749  10.733  64.773  1.00  0.00     0.000 HD 
ENDBRANCH  15  22
ENDBRANCH   8  13
TORSDOF 2
ENDMDL
MODEL      153
REMARK 921   NORMALIZED FREE ENERGY PREDICTED BY IDOCK:   -3.70 KCAL/MOL
REMARK 922        TOTAL FREE ENERGY PREDICTED BY IDOCK:   -4.60 KCAL/MOL
REMARK 923 INTER-LIGAND FREE ENERGY PREDICTED BY IDOCK:   -4.29 KCAL/MOL
REMARK 924 INTRA-LIGAND FREE ENERGY PREDICTED BY IDOCK:   -0.31 KCAL/MOL
REMARK 927      BINDING AFFINITY PREDICTED BY RF-SCORE:    0.00 PKD
ROOT
ATOM      1  N6    A A   1      -8.254   8.870  72.132  1.00  0.00    -0.368 NA 
ATOM      2  C6    A A   1      -9.077   9.112  71.040  1.00  0.00    -0.237 A  
ATOM      3  H61   A A   1      -8.564   8.363  72.961  1.00  0.00     0.000 HD 
ATOM      4  H62   A A   1      -7.890   9.771  72.444  1.00  0.00     0.000 HD 
ATOM      5  C5    A A   1      -8.650   9.812  69.896  1.00  0.00    -0.218 A  
ATOM      6  N7    A A   1      -7.450  10.405  69.572  1.00  0.00    -0.134 NA 
ATOM      7  C8    A A   1      -7.651  10.924  68.380  1.00  0.00    -0.104 A  
ATOM      8  N9    A A   1      -8.927  10.691  67.918  1.00  0.00    -0.136 NA 
ATOM      9  N1    A A   1     -10.354   8.680  71.087  1.00  0.00    -0.214 NA 
ATOM     10  C4    A A   1      -9.586   9.989  68.886  1.00  0.00    -0.181 A  
ATOM     11  C2    A A   1     -11.159   8.925  70.032  1.00  0.00    -0.170 A  
ATOM     12  N3    A A   1     -10.865   9.583  68.891  1.00  0.00    -0.190 NA 
ENDROOT
BRANCH   8  13
ATOM     13  C1*   A A   1      -9.403  11.189  66.655  1.00  0.00    -0.177 C  
ATOM     14  O4*   A A   1      -9.140  12.611  66.630  1.00  0.00    -0.222 OA 
ATOM     15  C4*   A A   1     -10.362  13.302  66.985  1.00  0.00    -0.246 C  
ATOM     16  H2*   A A   1     -11.911  10.849  64.544  1.00  0.00     0.000 HD 
ATOM     17  C3*   A A   1     -11.529  12.360  66.682  1.00  0.00    -0.370 C  
ATOM     18  C2*   A A   1     -10.874  11.048  66.239  1.00  0.00    -0.170 C  
ATOM     19  H3*   A A   1     -13.068  12.329  65.457  1.00  0.00     0.000 HD 
ATOM     20  O3*   A A   1     -12.343  12.914  65.645  1.00  0.00    -0.459 OA 
ATOM     21  O2*   A A   1     -11.000  10.937  64.802  1.00  0.00    -0.178 OA 
BRANCH  15  22
ATOM     22  C5*   A A   1     -10.324  13.696  68.469  1.00  0.00    -0.243 C  
ATOM     23  O5*   A A   1     -11.453  13.164  69.154  1.00  0.00    -0.273 OA 
ATOM     24  H5*   A A   1     -11.429  13.408  70.072  1.00  0.00     0.000 HD 
ENDBRANCH  15  22
ENDBRANCH   8  13
TORSDOF 2
ENDMDL
MODEL      154
REMARK 921   NORMALIZED FREE ENERGY PREDICTED BY IDOCK:   -3.69 KCAL/MOL
REMARK 922        TOTAL FREE ENERGY PREDICTED BY IDOCK:   -4.59 KCAL/MOL
REMARK 923 INTER-LIGAND FREE ENERGY PREDICTED BY IDOCK:   -4.02 KCAL/MOL
REMARK 924 INTRA-LIGAND FREE ENERGY PREDICTED BY IDOCK:   -0.57 KCAL/MOL
REMARK 927      BINDING AFFINITY PREDICTED BY RF-SCORE:    0.00 PKD
ROOT
ATOM      1  N6    A A   1      -9.656   4.949  70.328  1.00  0.00    -0.177 NA 
ATOM      2  C6    A A   1     -10.033   5.680  69.211  1.00  0.00    -0.189 A  
ATOM      3  H61   A A   1      -9.530   3.936  70.314  1.00  0.00     0.000 HD 
ATOM      4  H62   A A   1     -10.321   5.163  71.072  1.00  0.00     0.000 HD 
ATOM      5  C5    A A   1     -10.208   7.077  69.230  1.00  0.00    -0.186 A  
ATOM      6  N7    A A   1     -10.088   8.008  70.239  1.00  0.00    -0.191 NA 
ATOM      7  C8    A A   1     -10.392   9.154  69.667  1.00  0.00    -0.219 A  
ATOM      8  N9    A A   1     -10.700   9.005  68.333  1.00  0.00    -0.149 NA 
ATOM      9  N1    A A   1     -10.272   5.021  68.058  1.00  0.00    -0.117 NA 
ATOM     10  C4    A A   1     -10.599   7.675  68.039  1.00  0.00    -0.151 A  
ATOM     11  C2    A A   1     -10.652   5.730  66.974  1.00  0.00    -0.300 A  
ATOM     12  N3    A A   1     -10.852   7.060  66.874  1.00  0.00    -0.346 NA 
ENDROOT
BRANCH   8  13
ATOM     13  C1*   A A   1     -11.102  10.105  67.497  1.00  0.00    -0.181 C  
ATOM     14  O4*   A A   1     -10.251  10.088  66.329  1.00  0.00    -0.241 OA 
ATOM     15  C4*   A A   1      -9.194  11.058  66.527  1.00  0.00    -0.171 C  
ATOM     16  H2*   A A   1     -12.059  13.252  67.688  1.00  0.00     0.000 HD 
ATOM     17  C3*   A A   1      -9.691  12.079  67.551  1.00  0.00    -0.187 C  
ATOM     18  C2*   A A   1     -11.058  11.554  68.003  1.00  0.00    -0.254 C  
ATOM     19  H3*   A A   1     -10.112  14.001  67.574  1.00  0.00     0.000 HD 
ATOM     20  O3*   A A   1      -9.803  13.367  66.938  1.00  0.00    -0.242 OA 
ATOM     21  O2*   A A   1     -12.086  12.356  67.375  1.00  0.00    -0.505 OA 
BRANCH  15  22
ATOM     22  C5*   A A   1      -7.919  10.348  67.008  1.00  0.00    -0.116 C  
ATOM     23  O5*   A A   1      -7.976   8.960  66.694  1.00  0.00    -0.102 OA 
ATOM     24  H5*   A A   1      -7.188   8.521  66.992  1.00  0.00     0.000 HD 
ENDBRANCH  15  22
ENDBRANCH   8  13
TORSDOF 2
ENDMDL
MODEL      155
REMARK 921   NORMALIZED FREE ENERGY PREDICTED BY IDOCK:   -3.68 KCAL/MOL
REMARK 922        TOTAL FREE ENERGY PREDICTED BY IDOCK:   -4.58 KCAL/MOL
REMARK 923 INTER-LIGAND FREE ENERGY PREDICTED BY IDOCK:   -4.11 KCAL/MOL
REMARK 924 INTRA-LIGAND FREE ENERGY PREDICTED BY IDOCK:   -0.47 KCAL/MOL
REMARK 927      BINDING AFFINITY PREDICTED BY RF-SCORE:    0.00 PKD
ROOT
ATOM      1  N6    A A   1      -8.998  11.752  62.852  1.00  0.00    -0.642 NA 
ATOM      2  C6    A A   1      -9.014  10.739  63.800  1.00  0.00    -0.162 A  
ATOM      3  H61   A A   1      -8.508  11.672  61.960  1.00  0.00     0.000 HD 
ATOM      4  H62   A A   1      -8.656  12.596  63.313  1.00  0.00     0.000 HD 
ATOM      5  C5    A A   1      -9.689  10.850  65.030  1.00  0.00    -0.267 A  
ATOM      6  N7    A A   1     -10.424  11.871  65.592  1.00  0.00    -0.252 NA 
ATOM      7  C8    A A   1     -10.791  11.405  66.766  1.00  0.00    -0.286 A  
ATOM      8  N9    A A   1     -10.330  10.126  66.987  1.00  0.00    -0.233 NA 
ATOM      9  N1    A A   1      -8.328   9.605  63.546  1.00  0.00    -0.157 NA 
ATOM     10  C4    A A   1      -9.609   9.760  65.888  1.00  0.00    -0.250 A  
ATOM     11  C2    A A   1      -8.332   8.625  64.473  1.00  0.00    -0.147 A  
ATOM     12  N3    A A   1      -8.936   8.618  65.679  1.00  0.00    -0.194 NA 
ENDROOT
BRANCH   8  13
ATOM     13  C1*   A A   1     -10.568   9.413  68.214  1.00  0.00    -0.210 C  
ATOM     14  O4*   A A   1     -10.169  10.281  69.299  1.00  0.00    -0.201 OA 
ATOM     15  C4*   A A   1      -8.838   9.893  69.721  1.00  0.00    -0.211 C  
ATOM     16  H2*   A A   1     -10.298   6.399  69.521  1.00  0.00     0.000 HD 
ATOM     17  C3*   A A   1      -8.627   8.439  69.297  1.00  0.00    -0.130 C  
ATOM     18  C2*   A A   1      -9.886   8.069  68.506  1.00  0.00    -0.174 C  
ATOM     19  H3*   A A   1      -8.344   6.710  70.192  1.00  0.00     0.000 HD 
ATOM     20  O3*   A A   1      -8.476   7.613  70.455  1.00  0.00    -0.132 OA 
ATOM     21  O2*   A A   1     -10.720   7.232  69.340  1.00  0.00    -0.235 OA 
BRANCH  15  22
ATOM     22  C5*   A A   1      -7.798  10.826  69.083  1.00  0.00    -0.142 C  
ATOM     23  O5*   A A   1      -7.212  10.209  67.941  1.00  0.00    -0.084 OA 
ATOM     24  H5*   A A   1      -6.568  10.786  67.546  1.00  0.00     0.000 HD 
ENDBRANCH  15  22
ENDBRANCH   8  13
TORSDOF 2
ENDMDL
MODEL      156
REMARK 921   NORMALIZED FREE ENERGY PREDICTED BY IDOCK:   -3.67 KCAL/MOL
REMARK 922        TOTAL FREE ENERGY PREDICTED BY IDOCK:   -4.57 KCAL/MOL
REMARK 923 INTER-LIGAND FREE ENERGY PREDICTED BY IDOCK:   -4.28 KCAL/MOL
REMARK 924 INTRA-LIGAND FREE ENERGY PREDICTED BY IDOCK:   -0.29 KCAL/MOL
REMARK 927      BINDING AFFINITY PREDICTED BY RF-SCORE:    0.00 PKD
ROOT
ATOM      1  N6    A A   1     -12.339  13.643  69.497  1.00  0.00    -0.252 NA 
ATOM      2  C6    A A   1     -11.897  12.428  68.993  1.00  0.00    -0.300 A  
ATOM      3  H61   A A   1     -12.378  14.496  68.938  1.00  0.00     0.000 HD 
ATOM      4  H62   A A   1     -11.784  13.848  70.328  1.00  0.00     0.000 HD 
ATOM      5  C5    A A   1     -11.843  11.251  69.764  1.00  0.00    -0.364 A  
ATOM      6  N7    A A   1     -12.155  10.996  71.081  1.00  0.00    -0.293 NA 
ATOM      7  C8    A A   1     -11.882   9.718  71.242  1.00  0.00    -0.399 A  
ATOM      8  N9    A A   1     -11.411   9.136  70.086  1.00  0.00    -0.155 NA 
ATOM      9  N1    A A   1     -11.473  12.375  67.713  1.00  0.00    -0.302 NA 
ATOM     10  C4    A A   1     -11.367  10.110  69.131  1.00  0.00    -0.143 A  
ATOM     11  C2    A A   1     -11.031  11.197  67.226  1.00  0.00    -0.296 A  
ATOM     12  N3    A A   1     -10.931  10.013  67.865  1.00  0.00    -0.275 NA 
ENDROOT
BRANCH   8  13
ATOM     13  C1*   A A   1     -11.008   7.757  70.016  1.00  0.00    -0.214 C  
ATOM     14  O4*   A A   1      -9.981   7.559  71.014  1.00  0.00    -0.186 OA 
ATOM     15  C4*   A A   1      -8.693   7.623  70.355  1.00  0.00    -0.143 C  
ATOM     16  H2*   A A   1     -10.397   5.373  67.824  1.00  0.00     0.000 HD 
ATOM     17  C3*   A A   1      -8.915   7.295  68.878  1.00  0.00    -0.133 C  
ATOM     18  C2*   A A   1     -10.433   7.153  68.726  1.00  0.00    -0.202 C  
ATOM     19  H3*   A A   1      -8.379   5.873  67.627  1.00  0.00     0.000 HD 
ATOM     20  O3*   A A   1      -8.241   6.077  68.545  1.00  0.00    -0.109 OA 
ATOM     21  O2*   A A   1     -10.753   5.746  68.622  1.00  0.00    -0.246 OA 
BRANCH  15  22
ATOM     22  C5*   A A   1      -8.084   9.021  70.539  1.00  0.00    -0.154 C  
ATOM     23  O5*   A A   1      -8.703   9.693  71.631  1.00  0.00    -0.117 OA 
ATOM     24  H5*   A A   1      -8.327  10.558  71.745  1.00  0.00     0.000 HD 
ENDBRANCH  15  22
ENDBRANCH   8  13
TORSDOF 2
ENDMDL
MODEL      157
REMARK 921   NORMALIZED FREE ENERGY PREDICTED BY IDOCK:   -3.65 KCAL/MOL
REMARK 922        TOTAL FREE ENERGY PREDICTED BY IDOCK:   -4.55 KCAL/MOL
REMARK 923 INTER-LIGAND FREE ENERGY PREDICTED BY IDOCK:   -4.41 KCAL/MOL
REMARK 924 INTRA-LIGAND FREE ENERGY PREDICTED BY IDOCK:   -0.14 KCAL/MOL
REMARK 927      BINDING AFFINITY PREDICTED BY RF-SCORE:    0.00 PKD
ROOT
ATOM      1  N6    A A   1     -12.057  13.896  65.625  1.00  0.00    -0.396 NA 
ATOM      2  C6    A A   1     -11.400  12.679  65.509  1.00  0.00    -0.321 A  
ATOM      3  H61   A A   1     -12.097  14.581  64.869  1.00  0.00     0.000 HD 
ATOM      4  H62   A A   1     -11.679  14.370  66.446  1.00  0.00     0.000 HD 
ATOM      5  C5    A A   1     -11.345  11.735  66.551  1.00  0.00    -0.305 A  
ATOM      6  N7    A A   1     -11.845  11.746  67.834  1.00  0.00    -0.574 NA 
ATOM      7  C8    A A   1     -11.461  10.597  68.348  1.00  0.00    -0.259 A  
ATOM      8  N9    A A   1     -10.737   9.842  67.452  1.00  0.00    -0.269 NA 
ATOM      9  N1    A A   1     -10.761  12.397  64.355  1.00  0.00    -0.315 NA 
ATOM     10  C4    A A   1     -10.641  10.564  66.297  1.00  0.00    -0.133 A  
ATOM     11  C2    A A   1     -10.111  11.220  64.246  1.00  0.00    -0.313 A  
ATOM     12  N3    A A   1      -9.988  10.245  65.170  1.00  0.00    -0.319 NA 
ENDROOT
BRANCH   8  13
ATOM     13  C1*   A A   1     -10.173   8.561  67.787  1.00  0.00    -0.225 C  
ATOM     14  O4*   A A   1      -9.703   8.644  69.152  1.00  0.00    -0.168 OA 
ATOM     15  C4*   A A   1      -8.276   8.891  69.122  1.00  0.00    -0.118 C  
ATOM     16  H2*   A A   1      -8.326   6.155  66.498  1.00  0.00     0.000 HD 
ATOM     17  C3*   A A   1      -7.752   8.403  67.771  1.00  0.00    -0.103 C  
ATOM     18  C2*   A A   1      -9.000   7.968  66.995  1.00  0.00    -0.138 C  
ATOM     19  H3*   A A   1      -6.525   7.006  67.128  1.00  0.00     0.000 HD 
ATOM     20  O3*   A A   1      -6.851   7.309  67.967  1.00  0.00    -0.065 OA 
ATOM     21  O2*   A A   1      -9.053   6.522  66.989  1.00  0.00    -0.123 OA 
BRANCH  15  22
ATOM     22  C5*   A A   1      -8.003  10.389  69.328  1.00  0.00    -0.157 C  
ATOM     23  O5*   A A   1      -6.724  10.584  69.923  1.00  0.00    -0.109 OA 
ATOM     24  H5*   A A   1      -6.556  11.510  70.050  1.00  0.00     0.000 HD 
ENDBRANCH  15  22
ENDBRANCH   8  13
TORSDOF 2
ENDMDL
MODEL      158
REMARK 921   NORMALIZED FREE ENERGY PREDICTED BY IDOCK:   -3.65 KCAL/MOL
REMARK 922        TOTAL FREE ENERGY PREDICTED BY IDOCK:   -4.55 KCAL/MOL
REMARK 923 INTER-LIGAND FREE ENERGY PREDICTED BY IDOCK:   -4.08 KCAL/MOL
REMARK 924 INTRA-LIGAND FREE ENERGY PREDICTED BY IDOCK:   -0.47 KCAL/MOL
REMARK 927      BINDING AFFINITY PREDICTED BY RF-SCORE:    0.00 PKD
ROOT
ATOM      1  N6    A A   1     -11.842   7.749  73.083  1.00  0.00    -0.634 NA 
ATOM      2  C6    A A   1     -11.129   7.187  72.034  1.00  0.00    -0.245 A  
ATOM      3  H61   A A   1     -12.527   7.230  73.632  1.00  0.00     0.000 HD 
ATOM      4  H62   A A   1     -12.307   8.583  72.723  1.00  0.00     0.000 HD 
ATOM      5  C5    A A   1     -10.183   7.903  71.277  1.00  0.00    -0.187 A  
ATOM      6  N7    A A   1      -9.754   9.211  71.335  1.00  0.00    -0.294 NA 
ATOM      7  C8    A A   1      -8.872   9.311  70.363  1.00  0.00    -0.234 A  
ATOM      8  N9    A A   1      -8.709   8.125  69.682  1.00  0.00    -0.141 NA 
ATOM      9  N1    A A   1     -11.372   5.901  71.704  1.00  0.00    -0.246 NA 
ATOM     10  C4    A A   1      -9.554   7.214  70.248  1.00  0.00    -0.169 A  
ATOM     11  C2    A A   1     -10.689   5.357  70.675  1.00  0.00    -0.187 A  
ATOM     12  N3    A A   1      -9.768   5.941  69.882  1.00  0.00    -0.160 NA 
ENDROOT
BRANCH   8  13
ATOM     13  C1*   A A   1      -7.828   7.989  68.553  1.00  0.00    -0.115 C  
ATOM     14  O4*   A A   1      -8.206   8.997  67.590  1.00  0.00    -0.108 OA 
ATOM     15  C4*   A A   1      -9.045   8.372  66.587  1.00  0.00    -0.164 C  
ATOM     16  H2*   A A   1      -6.373   5.684  66.700  1.00  0.00     0.000 HD 
ATOM     17  C3*   A A   1      -8.734   6.874  66.597  1.00  0.00    -0.128 C  
ATOM     18  C2*   A A   1      -7.746   6.682  67.753  1.00  0.00    -0.107 C  
ATOM     19  H3*   A A   1      -7.963   5.560  65.352  1.00  0.00     0.000 HD 
ATOM     20  O3*   A A   1      -8.156   6.491  65.346  1.00  0.00    -0.117 OA 
ATOM     21  O2*   A A   1      -6.424   6.494  67.196  1.00  0.00    -0.039 OA 
BRANCH  15  22
ATOM     22  C5*   A A   1     -10.523   8.645  66.902  1.00  0.00    -0.258 C  
ATOM     23  O5*   A A   1     -11.142   7.479  67.435  1.00  0.00    -0.547 OA 
ATOM     24  H5*   A A   1     -12.056   7.648  67.630  1.00  0.00     0.000 HD 
ENDBRANCH  15  22
ENDBRANCH   8  13
TORSDOF 2
ENDMDL
MODEL      159
REMARK 921   NORMALIZED FREE ENERGY PREDICTED BY IDOCK:   -3.63 KCAL/MOL
REMARK 922        TOTAL FREE ENERGY PREDICTED BY IDOCK:   -4.53 KCAL/MOL
REMARK 923 INTER-LIGAND FREE ENERGY PREDICTED BY IDOCK:   -5.07 KCAL/MOL
REMARK 924 INTRA-LIGAND FREE ENERGY PREDICTED BY IDOCK:    0.54 KCAL/MOL
REMARK 927      BINDING AFFINITY PREDICTED BY RF-SCORE:    0.00 PKD
ROOT
ATOM      1  N6    A A   1     -13.369  15.639  71.606  1.00  0.00    -0.492 NA 
ATOM      2  C6    A A   1     -12.625  14.974  70.641  1.00  0.00    -0.374 A  
ATOM      3  H61   A A   1     -13.473  16.654  71.627  1.00  0.00     0.000 HD 
ATOM      4  H62   A A   1     -13.013  15.350  72.518  1.00  0.00     0.000 HD 
ATOM      5  C5    A A   1     -12.481  13.574  70.612  1.00  0.00    -0.333 A  
ATOM      6  N7    A A   1     -12.959  12.580  71.437  1.00  0.00    -0.320 NA 
ATOM      7  C8    A A   1     -12.481  11.467  70.923  1.00  0.00    -0.366 A  
ATOM      8  N9    A A   1     -11.718  11.698  69.800  1.00  0.00    -0.331 NA 
ATOM      9  N1    A A   1     -11.986  15.703  69.703  1.00  0.00    -0.364 NA 
ATOM     10  C4    A A   1     -11.697  13.047  69.594  1.00  0.00    -0.297 A  
ATOM     11  C2    A A   1     -11.252  15.059  68.772  1.00  0.00    -0.277 A  
ATOM     12  N3    A A   1     -11.040  13.733  68.646  1.00  0.00    -0.256 NA 
ENDROOT
BRANCH   8  13
ATOM     13  C1*   A A   1     -11.055  10.645  69.078  1.00  0.00    -0.254 C  
ATOM     14  O4*   A A   1     -11.489   9.392  69.653  1.00  0.00    -0.074 OA 
ATOM     15  C4*   A A   1     -10.471   8.944  70.580  1.00  0.00    -0.221 C  
ATOM     16  H2*   A A   1      -8.134   9.892  67.749  1.00  0.00     0.000 HD 
ATOM     17  C3*   A A   1      -9.154   9.607  70.174  1.00  0.00    -0.240 C  
ATOM     18  C2*   A A   1      -9.523  10.550  69.023  1.00  0.00    -0.201 C  
ATOM     19  H3*   A A   1      -7.400   9.023  69.501  1.00  0.00     0.000 HD 
ATOM     20  O3*   A A   1      -8.218   8.611  69.753  1.00  0.00    -0.114 OA 
ATOM     21  O2*   A A   1      -9.082   9.950  67.783  1.00  0.00    -0.131 OA 
BRANCH  15  22
ATOM     22  C5*   A A   1     -10.874   9.316  72.015  1.00  0.00    -0.031 C  
ATOM     23  O5*   A A   1     -11.337   8.166  72.716  1.00  0.00    -0.397 OA 
ATOM     24  H5*   A A   1     -11.586   8.396  73.602  1.00  0.00     0.000 HD 
ENDBRANCH  15  22
ENDBRANCH   8  13
TORSDOF 2
ENDMDL
MODEL      160
REMARK 921   NORMALIZED FREE ENERGY PREDICTED BY IDOCK:   -3.62 KCAL/MOL
REMARK 922        TOTAL FREE ENERGY PREDICTED BY IDOCK:   -4.52 KCAL/MOL
REMARK 923 INTER-LIGAND FREE ENERGY PREDICTED BY IDOCK:   -4.14 KCAL/MOL
REMARK 924 INTRA-LIGAND FREE ENERGY PREDICTED BY IDOCK:   -0.37 KCAL/MOL
REMARK 927      BINDING AFFINITY PREDICTED BY RF-SCORE:    0.00 PKD
ROOT
ATOM      1  N6    A A   1      -6.562   7.733  68.489  1.00  0.00    -0.055 NA 
ATOM      2  C6    A A   1      -7.566   8.280  69.275  1.00  0.00    -0.094 A  
ATOM      3  H61   A A   1      -5.718   7.312  68.878  1.00  0.00     0.000 HD 
ATOM      4  H62   A A   1      -6.267   8.451  67.827  1.00  0.00     0.000 HD 
ATOM      5  C5    A A   1      -8.730   8.861  68.739  1.00  0.00    -0.137 A  
ATOM      6  N7    A A   1      -9.154   9.051  67.442  1.00  0.00    -0.130 NA 
ATOM      7  C8    A A   1     -10.312   9.666  67.560  1.00  0.00    -0.241 A  
ATOM      8  N9    A A   1     -10.656   9.879  68.877  1.00  0.00    -0.211 NA 
ATOM      9  N1    A A   1      -7.408   8.281  70.615  1.00  0.00    -0.055 NA 
ATOM     10  C4    A A   1      -9.645   9.381  69.646  1.00  0.00    -0.188 A  
ATOM     11  C2    A A   1      -8.378   8.825  71.380  1.00  0.00    -0.168 A  
ATOM     12  N3    A A   1      -9.527   9.408  70.983  1.00  0.00    -0.230 NA 
ENDROOT
BRANCH   8  13
ATOM     13  C1*   A A   1     -11.858  10.567  69.266  1.00  0.00    -0.170 C  
ATOM     14  O4*   A A   1     -12.169  11.513  68.218  1.00  0.00    -0.561 OA 
ATOM     15  C4*   A A   1     -11.688  12.816  68.629  1.00  0.00    -0.324 C  
ATOM     16  H2*   A A   1     -13.323  11.869  71.916  1.00  0.00     0.000 HD 
ATOM     17  C3*   A A   1     -11.586  12.809  70.155  1.00  0.00    -0.052 C  
ATOM     18  C2*   A A   1     -11.934  11.375  70.569  1.00  0.00    -0.356 C  
ATOM     19  H3*   A A   1     -12.447  13.747  71.655  1.00  0.00     0.000 HD 
ATOM     20  O3*   A A   1     -12.510  13.751  70.707  1.00  0.00    -0.340 OA 
ATOM     21  O2*   A A   1     -13.276  11.369  71.109  1.00  0.00    -0.204 OA 
BRANCH  15  22
ATOM     22  C5*   A A   1     -10.329  13.099  67.972  1.00  0.00    -0.238 C  
ATOM     23  O5*   A A   1      -9.268  12.778  68.867  1.00  0.00    -0.389 OA 
ATOM     24  H5*   A A   1      -8.428  12.953  68.461  1.00  0.00     0.000 HD 
ENDBRANCH  15  22
ENDBRANCH   8  13
TORSDOF 2
ENDMDL
MODEL      161
REMARK 921   NORMALIZED FREE ENERGY PREDICTED BY IDOCK:   -3.62 KCAL/MOL
REMARK 922        TOTAL FREE ENERGY PREDICTED BY IDOCK:   -4.51 KCAL/MOL
REMARK 923 INTER-LIGAND FREE ENERGY PREDICTED BY IDOCK:   -4.19 KCAL/MOL
REMARK 924 INTRA-LIGAND FREE ENERGY PREDICTED BY IDOCK:   -0.33 KCAL/MOL
REMARK 927      BINDING AFFINITY PREDICTED BY RF-SCORE:    0.00 PKD
ROOT
ATOM      1  N6    A A   1     -11.452  15.897  68.817  1.00  0.00    -0.378 NA 
ATOM      2  C6    A A   1     -11.441  14.518  68.977  1.00  0.00    -0.290 A  
ATOM      3  H61   A A   1     -11.959  16.526  69.439  1.00  0.00     0.000 HD 
ATOM      4  H62   A A   1     -11.765  16.091  67.866  1.00  0.00     0.000 HD 
ATOM      5  C5    A A   1     -10.741  13.651  68.118  1.00  0.00    -0.248 A  
ATOM      6  N7    A A   1      -9.973  13.882  66.999  1.00  0.00    -0.253 NA 
ATOM      7  C8    A A   1      -9.594  12.684  66.606  1.00  0.00    -0.249 A  
ATOM      8  N9    A A   1     -10.081  11.689  67.425  1.00  0.00    -0.197 NA 
ATOM      9  N1    A A   1     -12.158  13.980  69.986  1.00  0.00    -0.329 NA 
ATOM     10  C4    A A   1     -10.831  12.292  68.393  1.00  0.00    -0.230 A  
ATOM     11  C2    A A   1     -12.160  12.639  70.135  1.00  0.00    -0.294 A  
ATOM     12  N3    A A   1     -11.533  11.714  69.379  1.00  0.00    -0.283 NA 
ENDROOT
BRANCH   8  13
ATOM     13  C1*   A A   1      -9.837  10.292  67.184  1.00  0.00    -0.185 C  
ATOM     14  O4*   A A   1      -9.389   9.714  68.431  1.00  0.00    -0.133 OA 
ATOM     15  C4*   A A   1      -7.943   9.631  68.397  1.00  0.00    -0.096 C  
ATOM     16  H2*   A A   1      -8.569   8.264  64.916  1.00  0.00     0.000 HD 
ATOM     17  C3*   A A   1      -7.518   9.624  66.928  1.00  0.00    -0.091 C  
ATOM     18  C2*   A A   1      -8.815   9.825  66.137  1.00  0.00    -0.141 C  
ATOM     19  H3*   A A   1      -6.634   8.370  65.695  1.00  0.00     0.000 HD 
ATOM     20  O3*   A A   1      -6.899   8.375  66.608  1.00  0.00    -0.066 OA 
ATOM     21  O2*   A A   1      -9.201   8.554  65.564  1.00  0.00    -0.152 OA 
BRANCH  15  22
ATOM     22  C5*   A A   1      -7.336  10.820  69.157  1.00  0.00    -0.115 C  
ATOM     23  O5*   A A   1      -7.320  10.558  70.557  1.00  0.00    -0.456 OA 
ATOM     24  H5*   A A   1      -6.945  11.293  71.027  1.00  0.00     0.000 HD 
ENDBRANCH  15  22
ENDBRANCH   8  13
TORSDOF 2
ENDMDL
MODEL      162
REMARK 921   NORMALIZED FREE ENERGY PREDICTED BY IDOCK:   -3.60 KCAL/MOL
REMARK 922        TOTAL FREE ENERGY PREDICTED BY IDOCK:   -4.50 KCAL/MOL
REMARK 923 INTER-LIGAND FREE ENERGY PREDICTED BY IDOCK:   -4.09 KCAL/MOL
REMARK 924 INTRA-LIGAND FREE ENERGY PREDICTED BY IDOCK:   -0.40 KCAL/MOL
REMARK 927      BINDING AFFINITY PREDICTED BY RF-SCORE:    0.00 PKD
ROOT
ATOM      1  N6    A A   1      -7.280   4.257  74.466  1.00  0.00    -0.070 NA 
ATOM      2  C6    A A   1      -7.971   5.416  74.141  1.00  0.00    -0.103 A  
ATOM      3  H61   A A   1      -6.355   4.262  74.896  1.00  0.00     0.000 HD 
ATOM      4  H62   A A   1      -7.219   3.691  73.618  1.00  0.00     0.000 HD 
ATOM      5  C5    A A   1      -9.246   5.409  73.546  1.00  0.00    -0.130 A  
ATOM      6  N7    A A   1     -10.072   4.382  73.146  1.00  0.00    -0.144 NA 
ATOM      7  C8    A A   1     -11.127   4.985  72.640  1.00  0.00    -0.197 A  
ATOM      8  N9    A A   1     -11.020   6.357  72.698  1.00  0.00    -0.242 NA 
ATOM      9  N1    A A   1      -7.382   6.607  74.379  1.00  0.00    -0.098 NA 
ATOM     10  C4    A A   1      -9.813   6.646  73.266  1.00  0.00    -0.179 A  
ATOM     11  C2    A A   1      -8.047   7.734  74.052  1.00  0.00    -0.207 A  
ATOM     12  N3    A A   1      -9.263   7.851  73.480  1.00  0.00    -0.280 NA 
ENDROOT
BRANCH   8  13
ATOM     13  C1*   A A   1     -12.028   7.240  72.175  1.00  0.00    -0.269 C  
ATOM     14  O4*   A A   1     -12.049   7.064  70.740  1.00  0.00    -0.355 OA 
ATOM     15  C4*   A A   1     -11.275   8.133  70.143  1.00  0.00    -0.134 C  
ATOM     16  H2*   A A   1     -13.232  10.282  72.577  1.00  0.00     0.000 HD 
ATOM     17  C3*   A A   1     -11.242   9.291  71.141  1.00  0.00    -0.343 C  
ATOM     18  C2*   A A   1     -11.954   8.758  72.390  1.00  0.00    -0.299 C  
ATOM     19  H3*   A A   1     -11.904  11.142  71.213  1.00  0.00     0.000 HD 
ATOM     20  O3*   A A   1     -11.924  10.422  70.593  1.00  0.00    -0.294 OA 
ATOM     21  O2*   A A   1     -13.277   9.342  72.444  1.00  0.00    -0.431 OA 
BRANCH  15  22
ATOM     22  C5*   A A   1      -9.861   7.630  69.813  1.00  0.00    -0.181 C  
ATOM     23  O5*   A A   1      -8.883   8.435  70.463  1.00  0.00    -0.138 OA 
ATOM     24  H5*   A A   1      -8.009   8.124  70.259  1.00  0.00     0.000 HD 
ENDBRANCH  15  22
ENDBRANCH   8  13
TORSDOF 2
ENDMDL
MODEL      163
REMARK 921   NORMALIZED FREE ENERGY PREDICTED BY IDOCK:   -3.57 KCAL/MOL
REMARK 922        TOTAL FREE ENERGY PREDICTED BY IDOCK:   -4.46 KCAL/MOL
REMARK 923 INTER-LIGAND FREE ENERGY PREDICTED BY IDOCK:   -4.32 KCAL/MOL
REMARK 924 INTRA-LIGAND FREE ENERGY PREDICTED BY IDOCK:   -0.14 KCAL/MOL
REMARK 927      BINDING AFFINITY PREDICTED BY RF-SCORE:    0.00 PKD
ROOT
ATOM      1  N6    A A   1     -11.759   7.680  73.247  1.00  0.00    -0.601 NA 
ATOM      2  C6    A A   1     -11.429   7.399  71.929  1.00  0.00    -0.266 A  
ATOM      3  H61   A A   1     -11.916   6.956  73.948  1.00  0.00     0.000 HD 
ATOM      4  H62   A A   1     -12.588   8.276  73.233  1.00  0.00     0.000 HD 
ATOM      5  C5    A A   1     -11.212   8.398  70.961  1.00  0.00    -0.266 A  
ATOM      6  N7    A A   1     -11.275   9.772  71.024  1.00  0.00    -0.358 NA 
ATOM      7  C8    A A   1     -10.995  10.171  69.801  1.00  0.00    -0.280 A  
ATOM      8  N9    A A   1     -10.751   9.115  68.952  1.00  0.00    -0.185 NA 
ATOM      9  N1    A A   1     -11.337   6.108  71.547  1.00  0.00    -0.290 NA 
ATOM     10  C4    A A   1     -10.900   7.968  69.678  1.00  0.00    -0.169 A  
ATOM     11  C2    A A   1     -11.029   5.832  70.263  1.00  0.00    -0.276 A  
ATOM     12  N3    A A   1     -10.804   6.699  69.254  1.00  0.00    -0.265 NA 
ENDROOT
BRANCH   8  13
ATOM     13  C1*   A A   1     -10.459   9.290  67.554  1.00  0.00    -0.274 C  
ATOM     14  O4*   A A   1      -9.632   8.176  67.146  1.00  0.00    -0.153 OA 
ATOM     15  C4*   A A   1      -8.252   8.614  67.148  1.00  0.00    -0.107 C  
ATOM     16  H2*   A A   1      -9.696  11.634  65.367  1.00  0.00     0.000 HD 
ATOM     17  C3*   A A   1      -8.253  10.137  67.004  1.00  0.00    -0.118 C  
ATOM     18  C2*   A A   1      -9.731  10.538  67.036  1.00  0.00    -0.177 C  
ATOM     19  H3*   A A   1      -7.638  11.453  65.677  1.00  0.00     0.000 HD 
ATOM     20  O3*   A A   1      -7.638  10.507  65.767  1.00  0.00    -0.143 OA 
ATOM     21  O2*   A A   1     -10.146  10.861  65.688  1.00  0.00    -0.239 OA 
BRANCH  15  22
ATOM     22  C5*   A A   1      -7.566   8.169  68.448  1.00  0.00    -0.105 C  
ATOM     23  O5*   A A   1      -6.691   9.187  68.923  1.00  0.00    -0.051 OA 
ATOM     24  H5*   A A   1      -6.267   8.912  69.727  1.00  0.00     0.000 HD 
ENDBRANCH  15  22
ENDBRANCH   8  13
TORSDOF 2
ENDMDL
MODEL      164
REMARK 921   NORMALIZED FREE ENERGY PREDICTED BY IDOCK:   -3.56 KCAL/MOL
REMARK 922        TOTAL FREE ENERGY PREDICTED BY IDOCK:   -4.45 KCAL/MOL
REMARK 923 INTER-LIGAND FREE ENERGY PREDICTED BY IDOCK:   -4.12 KCAL/MOL
REMARK 924 INTRA-LIGAND FREE ENERGY PREDICTED BY IDOCK:   -0.34 KCAL/MOL
REMARK 927      BINDING AFFINITY PREDICTED BY RF-SCORE:    0.00 PKD
ROOT
ATOM      1  N6    A A   1     -11.166   5.700  66.314  1.00  0.00    -0.749 NA 
ATOM      2  C6    A A   1     -10.751   6.548  67.331  1.00  0.00    -0.340 A  
ATOM      3  H61   A A   1     -11.807   4.921  66.465  1.00  0.00     0.000 HD 
ATOM      4  H62   A A   1     -10.327   5.323  65.871  1.00  0.00     0.000 HD 
ATOM      5  C5    A A   1      -9.866   7.623  67.123  1.00  0.00    -0.202 A  
ATOM      6  N7    A A   1      -9.219   8.080  65.996  1.00  0.00    -0.157 NA 
ATOM      7  C8    A A   1      -8.509   9.105  66.418  1.00  0.00    -0.123 A  
ATOM      8  N9    A A   1      -8.671   9.332  67.767  1.00  0.00    -0.120 NA 
ATOM      9  N1    A A   1     -11.194   6.317  68.585  1.00  0.00    -0.334 NA 
ATOM     10  C4    A A   1      -9.530   8.381  68.237  1.00  0.00    -0.138 A  
ATOM     11  C2    A A   1     -10.782   7.132  69.577  1.00  0.00    -0.239 A  
ATOM     12  N3    A A   1      -9.941   8.184  69.499  1.00  0.00    -0.183 NA 
ENDROOT
BRANCH   8  13
ATOM     13  C1*   A A   1      -7.972  10.373  68.472  1.00  0.00    -0.114 C  
ATOM     14  O4*   A A   1      -8.946  11.381  68.824  1.00  0.00    -0.159 OA 
ATOM     15  C4*   A A   1      -8.865  12.448  67.847  1.00  0.00    -0.180 C  
ATOM     16  H2*   A A   1      -5.137  12.053  68.412  1.00  0.00     0.000 HD 
ATOM     17  C3*   A A   1      -7.473  12.389  67.216  1.00  0.00    -0.135 C  
ATOM     18  C2*   A A   1      -6.815  11.145  67.822  1.00  0.00    -0.073 C  
ATOM     19  H3*   A A   1      -5.879  13.540  67.147  1.00  0.00     0.000 HD 
ATOM     20  O3*   A A   1      -6.744  13.576  67.539  1.00  0.00    -0.166 OA 
ATOM     21  O2*   A A   1      -5.854  11.575  68.814  1.00  0.00    -0.046 OA 
BRANCH  15  22
ATOM     22  C5*   A A   1      -9.972  12.274  66.795  1.00  0.00    -0.205 C  
ATOM     23  O5*   A A   1      -9.650  12.998  65.612  1.00  0.00    -0.455 OA 
ATOM     24  H5*   A A   1     -10.334  12.891  64.961  1.00  0.00     0.000 HD 
ENDBRANCH  15  22
ENDBRANCH   8  13
TORSDOF 2
ENDMDL
MODEL      165
REMARK 921   NORMALIZED FREE ENERGY PREDICTED BY IDOCK:   -3.56 KCAL/MOL
REMARK 922        TOTAL FREE ENERGY PREDICTED BY IDOCK:   -4.45 KCAL/MOL
REMARK 923 INTER-LIGAND FREE ENERGY PREDICTED BY IDOCK:   -4.08 KCAL/MOL
REMARK 924 INTRA-LIGAND FREE ENERGY PREDICTED BY IDOCK:   -0.37 KCAL/MOL
REMARK 927      BINDING AFFINITY PREDICTED BY RF-SCORE:    0.00 PKD
ROOT
ATOM      1  N6    A A   1      -7.143  10.411  66.538  1.00  0.00    -0.107 NA 
ATOM      2  C6    A A   1      -8.204  10.463  67.431  1.00  0.00    -0.117 A  
ATOM      3  H61   A A   1      -7.024  11.078  65.775  1.00  0.00     0.000 HD 
ATOM      4  H62   A A   1      -7.135   9.476  66.129  1.00  0.00     0.000 HD 
ATOM      5  C5    A A   1      -8.369   9.543  68.483  1.00  0.00    -0.118 A  
ATOM      6  N7    A A   1      -7.631   8.448  68.876  1.00  0.00    -0.095 NA 
ATOM      7  C8    A A   1      -8.283   7.965  69.912  1.00  0.00    -0.120 A  
ATOM      8  N9    A A   1      -9.409   8.702  70.208  1.00  0.00    -0.161 NA 
ATOM      9  N1    A A   1      -9.138  11.424  67.269  1.00  0.00    -0.160 NA 
ATOM     10  C4    A A   1      -9.486   9.711  69.292  1.00  0.00    -0.179 A  
ATOM     11  C2    A A   1     -10.177  11.469  68.128  1.00  0.00    -0.194 A  
ATOM     12  N3    A A   1     -10.440  10.646  69.165  1.00  0.00    -0.210 NA 
ENDROOT
BRANCH   8  13
ATOM     13  C1*   A A   1     -10.310   8.354  71.275  1.00  0.00    -0.214 C  
ATOM     14  O4*   A A   1     -10.260   6.918  71.426  1.00  0.00    -0.197 OA 
ATOM     15  C4*   A A   1     -11.396   6.351  70.729  1.00  0.00    -0.350 C  
ATOM     16  H2*   A A   1     -13.273   9.137  72.486  1.00  0.00     0.000 HD 
ATOM     17  C3*   A A   1     -12.462   7.442  70.623  1.00  0.00     0.006 C  
ATOM     18  C2*   A A   1     -11.804   8.697  71.207  1.00  0.00    -0.295 C  
ATOM     19  H3*   A A   1     -14.283   7.741  71.306  1.00  0.00     0.000 HD 
ATOM     20  O3*   A A   1     -13.620   7.063  71.372  1.00  0.00    -0.334 OA 
ATOM     21  O2*   A A   1     -12.348   8.925  72.528  1.00  0.00    -0.349 OA 
BRANCH  15  22
ATOM     22  C5*   A A   1     -10.959   5.849  69.345  1.00  0.00    -0.350 C  
ATOM     23  O5*   A A   1     -11.319   6.791  68.339  1.00  0.00    -0.538 OA 
ATOM     24  H5*   A A   1     -11.049   6.480  67.483  1.00  0.00     0.000 HD 
ENDBRANCH  15  22
ENDBRANCH   8  13
TORSDOF 2
ENDMDL
MODEL      166
REMARK 921   NORMALIZED FREE ENERGY PREDICTED BY IDOCK:   -3.56 KCAL/MOL
REMARK 922        TOTAL FREE ENERGY PREDICTED BY IDOCK:   -4.45 KCAL/MOL
REMARK 923 INTER-LIGAND FREE ENERGY PREDICTED BY IDOCK:   -4.01 KCAL/MOL
REMARK 924 INTRA-LIGAND FREE ENERGY PREDICTED BY IDOCK:   -0.44 KCAL/MOL
REMARK 927      BINDING AFFINITY PREDICTED BY RF-SCORE:    0.00 PKD
ROOT
ATOM      1  N6    A A   1      -5.838  10.773  67.414  1.00  0.00    -0.044 NA 
ATOM      2  C6    A A   1      -6.433  11.960  67.816  1.00  0.00    -0.084 A  
ATOM      3  H61   A A   1      -4.827  10.642  67.376  1.00  0.00     0.000 HD 
ATOM      4  H62   A A   1      -6.209  10.543  66.491  1.00  0.00     0.000 HD 
ATOM      5  C5    A A   1      -7.828  12.141  67.867  1.00  0.00    -0.147 A  
ATOM      6  N7    A A   1      -8.879  11.306  67.556  1.00  0.00    -0.139 NA 
ATOM      7  C8    A A   1      -9.954  12.031  67.783  1.00  0.00    -0.195 A  
ATOM      8  N9    A A   1      -9.644  13.296  68.232  1.00  0.00    -0.225 NA 
ATOM      9  N1    A A   1      -5.640  13.000  68.148  1.00  0.00    -0.083 NA 
ATOM     10  C4    A A   1      -8.283  13.387  68.278  1.00  0.00    -0.160 A  
ATOM     11  C2    A A   1      -6.218  14.159  68.526  1.00  0.00    -0.093 A  
ATOM     12  N3    A A   1      -7.533  14.449  68.611  1.00  0.00    -0.120 NA 
ENDROOT
BRANCH   8  13
ATOM     13  C1*   A A   1     -10.645  14.290  68.515  1.00  0.00    -0.257 C  
ATOM     14  O4*   A A   1     -11.404  14.491  67.301  1.00  0.00    -0.322 OA 
ATOM     15  C4*   A A   1     -10.893  15.675  66.641  1.00  0.00    -0.266 C  
ATOM     16  H2*   A A   1     -11.052  17.129  70.139  1.00  0.00     0.000 HD 
ATOM     17  C3*   A A   1     -10.206  16.534  67.703  1.00  0.00    -0.279 C  
ATOM     18  C2*   A A   1     -10.265  15.700  68.987  1.00  0.00    -0.225 C  
ATOM     19  H3*   A A   1     -10.480  18.307  68.511  1.00  0.00     0.000 HD 
ATOM     20  O3*   A A   1     -10.907  17.772  67.852  1.00  0.00    -0.365 OA 
ATOM     21  O2*   A A   1     -11.288  16.256  69.846  1.00  0.00    -0.323 OA 
BRANCH  15  22
ATOM     22  C5*   A A   1      -9.919  15.267  65.525  1.00  0.00    -0.348 C  
ATOM     23  O5*   A A   1      -8.579  15.565  65.902  1.00  0.00    -0.331 OA 
ATOM     24  H5*   A A   1      -7.977  15.313  65.212  1.00  0.00     0.000 HD 
ENDBRANCH  15  22
ENDBRANCH   8  13
TORSDOF 2
ENDMDL
MODEL      167
REMARK 921   NORMALIZED FREE ENERGY PREDICTED BY IDOCK:   -3.56 KCAL/MOL
REMARK 922        TOTAL FREE ENERGY PREDICTED BY IDOCK:   -4.45 KCAL/MOL
REMARK 923 INTER-LIGAND FREE ENERGY PREDICTED BY IDOCK:   -4.38 KCAL/MOL
REMARK 924 INTRA-LIGAND FREE ENERGY PREDICTED BY IDOCK:   -0.07 KCAL/MOL
REMARK 927      BINDING AFFINITY PREDICTED BY RF-SCORE:    0.00 PKD
ROOT
ATOM      1  N6    A A   1      -8.767  11.689  67.666  1.00  0.00    -0.151 NA 
ATOM      2  C6    A A   1      -8.254  12.966  67.485  1.00  0.00    -0.184 A  
ATOM      3  H61   A A   1      -8.202  10.903  67.988  1.00  0.00     0.000 HD 
ATOM      4  H62   A A   1      -9.206  11.410  66.788  1.00  0.00     0.000 HD 
ATOM      5  C5    A A   1      -9.034  14.050  67.041  1.00  0.00    -0.235 A  
ATOM      6  N7    A A   1     -10.360  14.148  66.682  1.00  0.00    -0.273 NA 
ATOM      7  C8    A A   1     -10.515  15.408  66.334  1.00  0.00    -0.303 A  
ATOM      8  N9    A A   1      -9.348  16.129  66.454  1.00  0.00    -0.272 NA 
ATOM      9  N1    A A   1      -6.942  13.174  67.719  1.00  0.00    -0.129 NA 
ATOM     10  C4    A A   1      -8.384  15.269  66.894  1.00  0.00    -0.243 A  
ATOM     11  C2    A A   1      -6.439  14.412  67.531  1.00  0.00    -0.042 A  
ATOM     12  N3    A A   1      -7.083  15.520  67.109  1.00  0.00    -0.201 NA 
ENDROOT
BRANCH   8  13
ATOM     13  C1*   A A   1      -9.251  17.519  66.097  1.00  0.00    -0.135 C  
ATOM     14  O4*   A A   1      -8.092  18.055  66.775  1.00  0.00    -0.225 OA 
ATOM     15  C4*   A A   1      -8.544  18.737  67.971  1.00  0.00    -0.297 C  
ATOM     16  H2*   A A   1     -11.134  20.179  65.608  1.00  0.00     0.000 HD 
ATOM     17  C3*   A A   1     -10.009  19.121  67.756  1.00  0.00    -0.357 C  
ATOM     18  C2*   A A   1     -10.385  18.508  66.403  1.00  0.00    -0.423 C  
ATOM     19  H3*   A A   1     -11.049  20.784  67.606  1.00  0.00     0.000 HD 
ATOM     20  O3*   A A   1     -10.139  20.545  67.739  1.00  0.00    -0.372 OA 
ATOM     21  O2*   A A   1     -10.432  19.568  65.419  1.00  0.00    -0.439 OA 
BRANCH  15  22
ATOM     22  C5*   A A   1      -8.372  17.818  69.190  1.00  0.00     0.116 C  
ATOM     23  O5*   A A   1      -7.000  17.476  69.365  1.00  0.00    -0.215 OA 
ATOM     24  H5*   A A   1      -6.894  16.908  70.119  1.00  0.00     0.000 HD 
ENDBRANCH  15  22
ENDBRANCH   8  13
TORSDOF 2
ENDMDL
MODEL      168
REMARK 921   NORMALIZED FREE ENERGY PREDICTED BY IDOCK:   -3.55 KCAL/MOL
REMARK 922        TOTAL FREE ENERGY PREDICTED BY IDOCK:   -4.44 KCAL/MOL
REMARK 923 INTER-LIGAND FREE ENERGY PREDICTED BY IDOCK:   -3.91 KCAL/MOL
REMARK 924 INTRA-LIGAND FREE ENERGY PREDICTED BY IDOCK:   -0.52 KCAL/MOL
REMARK 927      BINDING AFFINITY PREDICTED BY RF-SCORE:    0.00 PKD
ROOT
ATOM      1  N6    A A   1      -9.911   8.756  65.717  1.00  0.00    -0.458 NA 
ATOM      2  C6    A A   1     -10.224   8.968  67.052  1.00  0.00    -0.266 A  
ATOM      3  H61   A A   1      -9.838   9.511  65.035  1.00  0.00     0.000 HD 
ATOM      4  H62   A A   1     -10.581   8.078  65.350  1.00  0.00     0.000 HD 
ATOM      5  C5    A A   1     -10.325   7.925  67.992  1.00  0.00    -0.209 A  
ATOM      6  N7    A A   1     -10.180   6.560  67.876  1.00  0.00    -0.153 NA 
ATOM      7  C8    A A   1     -10.410   6.100  69.087  1.00  0.00    -0.218 A  
ATOM      8  N9    A A   1     -10.695   7.108  69.982  1.00  0.00    -0.242 NA 
ATOM      9  N1    A A   1     -10.470  10.228  67.465  1.00  0.00    -0.226 NA 
ATOM     10  C4    A A   1     -10.657   8.285  69.292  1.00  0.00    -0.181 A  
ATOM     11  C2    A A   1     -10.788  10.435  68.760  1.00  0.00    -0.232 A  
ATOM     12  N3    A A   1     -10.915   9.521  69.745  1.00  0.00    -0.233 NA 
ENDROOT
BRANCH   8  13
ATOM     13  C1*   A A   1     -11.019   6.857  71.361  1.00  0.00    -0.240 C  
ATOM     14  O4*   A A   1     -10.171   7.710  72.162  1.00  0.00    -0.192 OA 
ATOM     15  C4*   A A   1      -9.049   6.921  72.629  1.00  0.00    -0.134 C  
ATOM     16  H2*   A A   1     -11.758   4.387  73.414  1.00  0.00     0.000 HD 
ATOM     17  C3*   A A   1      -9.476   5.453  72.601  1.00  0.00    -0.147 C  
ATOM     18  C2*   A A   1     -10.876   5.459  71.978  1.00  0.00    -0.202 C  
ATOM     19  H3*   A A   1      -9.764   4.017  73.914  1.00  0.00     0.000 HD 
ATOM     20  O3*   A A   1      -9.499   4.929  73.931  1.00  0.00    -0.126 OA 
ATOM     21  O2*   A A   1     -11.846   5.253  73.032  1.00  0.00    -0.265 OA 
BRANCH  15  22
ATOM     22  C5*   A A   1      -7.828   7.173  71.732  1.00  0.00    -0.093 C  
ATOM     23  O5*   A A   1      -7.852   8.502  71.220  1.00  0.00    -0.096 OA 
ATOM     24  H5*   A A   1      -7.097   8.657  70.666  1.00  0.00     0.000 HD 
ENDBRANCH  15  22
ENDBRANCH   8  13
TORSDOF 2
ENDMDL
MODEL      169
REMARK 921   NORMALIZED FREE ENERGY PREDICTED BY IDOCK:   -3.54 KCAL/MOL
REMARK 922        TOTAL FREE ENERGY PREDICTED BY IDOCK:   -4.43 KCAL/MOL
REMARK 923 INTER-LIGAND FREE ENERGY PREDICTED BY IDOCK:   -4.05 KCAL/MOL
REMARK 924 INTRA-LIGAND FREE ENERGY PREDICTED BY IDOCK:   -0.38 KCAL/MOL
REMARK 927      BINDING AFFINITY PREDICTED BY RF-SCORE:    0.00 PKD
ROOT
ATOM      1  N6    A A   1      -9.507   3.110  68.843  1.00  0.00    -0.158 NA 
ATOM      2  C6    A A   1      -9.553   4.461  68.529  1.00  0.00    -0.143 A  
ATOM      3  H61   A A   1      -9.613   2.372  68.147  1.00  0.00     0.000 HD 
ATOM      4  H62   A A   1     -10.202   2.943  69.572  1.00  0.00     0.000 HD 
ATOM      5  C5    A A   1      -9.407   5.478  69.490  1.00  0.00    -0.130 A  
ATOM      6  N7    A A   1      -9.219   5.439  70.854  1.00  0.00    -0.148 NA 
ATOM      7  C8    A A   1      -9.175   6.704  71.216  1.00  0.00    -0.155 A  
ATOM      8  N9    A A   1      -9.323   7.558  70.146  1.00  0.00    -0.158 NA 
ATOM      9  N1    A A   1      -9.775   4.818  67.247  1.00  0.00    -0.169 NA 
ATOM     10  C4    A A   1      -9.487   6.787  69.032  1.00  0.00    -0.133 A  
ATOM     11  C2    A A   1      -9.833   6.130  66.941  1.00  0.00    -0.159 A  
ATOM     12  N3    A A   1      -9.711   7.187  67.771  1.00  0.00    -0.135 NA 
ENDROOT
BRANCH   8  13
ATOM     13  C1*   A A   1      -9.347   8.990  70.289  1.00  0.00    -0.198 C  
ATOM     14  O4*   A A   1      -9.908   9.281  71.589  1.00  0.00    -0.278 OA 
ATOM     15  C4*   A A   1     -11.308   9.609  71.414  1.00  0.00    -0.374 C  
ATOM     16  H2*   A A   1      -9.977  11.728  68.566  1.00  0.00     0.000 HD 
ATOM     17  C3*   A A   1     -11.494  10.076  69.969  1.00  0.00    -0.248 C  
ATOM     18  C2*   A A   1     -10.125   9.881  69.310  1.00  0.00    -0.203 C  
ATOM     19  H3*   A A   1     -12.007  11.740  69.054  1.00  0.00     0.000 HD 
ATOM     20  O3*   A A   1     -11.891  11.450  69.952  1.00  0.00    -0.301 OA 
ATOM     21  O2*   A A   1      -9.496  11.176  69.172  1.00  0.00    -0.117 OA 
BRANCH  15  22
ATOM     22  C5*   A A   1     -12.173   8.378  71.727  1.00  0.00    -0.330 C  
ATOM     23  O5*   A A   1     -12.534   7.706  70.524  1.00  0.00    -0.513 OA 
ATOM     24  H5*   A A   1     -13.069   6.945  70.718  1.00  0.00     0.000 HD 
ENDBRANCH  15  22
ENDBRANCH   8  13
TORSDOF 2
ENDMDL
MODEL      170
REMARK 921   NORMALIZED FREE ENERGY PREDICTED BY IDOCK:   -3.54 KCAL/MOL
REMARK 922        TOTAL FREE ENERGY PREDICTED BY IDOCK:   -4.42 KCAL/MOL
REMARK 923 INTER-LIGAND FREE ENERGY PREDICTED BY IDOCK:   -4.03 KCAL/MOL
REMARK 924 INTRA-LIGAND FREE ENERGY PREDICTED BY IDOCK:   -0.39 KCAL/MOL
REMARK 927      BINDING AFFINITY PREDICTED BY RF-SCORE:    0.00 PKD
ROOT
ATOM      1  N6    A A   1     -11.963  12.117  70.248  1.00  0.00    -0.462 NA 
ATOM      2  C6    A A   1     -11.249  10.928  70.190  1.00  0.00    -0.237 A  
ATOM      3  H61   A A   1     -12.539  12.382  71.046  1.00  0.00     0.000 HD 
ATOM      4  H62   A A   1     -12.555  12.157  69.417  1.00  0.00     0.000 HD 
ATOM      5  C5    A A   1     -10.454  10.562  69.088  1.00  0.00    -0.228 A  
ATOM      6  N7    A A   1     -10.197  11.187  67.888  1.00  0.00    -0.176 NA 
ATOM      7  C8    A A   1      -9.397  10.359  67.250  1.00  0.00    -0.146 A  
ATOM      8  N9    A A   1      -9.123   9.228  67.987  1.00  0.00    -0.128 NA 
ATOM      9  N1    A A   1     -11.342  10.069  71.226  1.00  0.00    -0.330 NA 
ATOM     10  C4    A A   1      -9.805   9.336  69.164  1.00  0.00    -0.167 A  
ATOM     11  C2    A A   1     -10.659   8.906  71.166  1.00  0.00    -0.265 A  
ATOM     12  N3    A A   1      -9.873   8.450  70.169  1.00  0.00    -0.179 NA 
ENDROOT
BRANCH   8  13
ATOM     13  C1*   A A   1      -8.303   8.154  67.492  1.00  0.00    -0.123 C  
ATOM     14  O4*   A A   1      -9.020   7.536  66.399  1.00  0.00    -0.153 OA 
ATOM     15  C4*   A A   1      -9.682   6.352  66.906  1.00  0.00    -0.153 C  
ATOM     16  H2*   A A   1      -6.320   5.744  68.551  1.00  0.00     0.000 HD 
ATOM     17  C3*   A A   1      -8.933   5.909  68.164  1.00  0.00    -0.115 C  
ATOM     18  C2*   A A   1      -7.873   6.991  68.396  1.00  0.00    -0.122 C  
ATOM     19  H3*   A A   1      -7.869   4.353  68.727  1.00  0.00     0.000 HD 
ATOM     20  O3*   A A   1      -8.334   4.629  67.945  1.00  0.00    -0.098 OA 
ATOM     21  O2*   A A   1      -6.587   6.464  67.991  1.00  0.00    -0.060 OA 
BRANCH  15  22
ATOM     22  C5*   A A   1     -11.155   6.668  67.206  1.00  0.00    -0.345 C  
ATOM     23  O5*   A A   1     -11.462   6.364  68.563  1.00  0.00    -0.547 OA 
ATOM     24  H5*   A A   1     -12.373   6.559  68.749  1.00  0.00     0.000 HD 
ENDBRANCH  15  22
ENDBRANCH   8  13
TORSDOF 2
ENDMDL
MODEL      171
REMARK 921   NORMALIZED FREE ENERGY PREDICTED BY IDOCK:   -3.50 KCAL/MOL
REMARK 922        TOTAL FREE ENERGY PREDICTED BY IDOCK:   -4.38 KCAL/MOL
REMARK 923 INTER-LIGAND FREE ENERGY PREDICTED BY IDOCK:   -4.19 KCAL/MOL
REMARK 924 INTRA-LIGAND FREE ENERGY PREDICTED BY IDOCK:   -0.19 KCAL/MOL
REMARK 927      BINDING AFFINITY PREDICTED BY RF-SCORE:    0.00 PKD
ROOT
ATOM      1  N6    A A   1      -5.535  14.747  69.626  1.00  0.00    -0.093 NA 
ATOM      2  C6    A A   1      -6.870  14.702  69.250  1.00  0.00    -0.143 A  
ATOM      3  H61   A A   1      -5.176  15.397  70.327  1.00  0.00     0.000 HD 
ATOM      4  H62   A A   1      -4.984  14.879  68.778  1.00  0.00     0.000 HD 
ATOM      5  C5    A A   1      -7.366  13.806  68.284  1.00  0.00    -0.118 A  
ATOM      6  N7    A A   1      -6.749  12.847  67.512  1.00  0.00    -0.154 NA 
ATOM      7  C8    A A   1      -7.717  12.341  66.778  1.00  0.00     0.079 A  
ATOM      8  N9    A A   1      -8.934  12.929  67.044  1.00  0.00    -0.220 NA 
ATOM      9  N1    A A   1      -7.731  15.574  69.816  1.00  0.00    -0.132 NA 
ATOM     10  C4    A A   1      -8.723  13.882  68.000  1.00  0.00    -0.183 A  
ATOM     11  C2    A A   1      -9.026  15.540  69.442  1.00  0.00    -0.275 A  
ATOM     12  N3    A A   1      -9.612  14.734  68.532  1.00  0.00    -0.212 NA 
ENDROOT
BRANCH   8  13
ATOM     13  C1*   A A   1     -10.140  12.576  66.345  1.00  0.00    -0.243 C  
ATOM     14  O4*   A A   1     -10.067  13.177  65.033  1.00  0.00    -0.284 OA 
ATOM     15  C4*   A A   1     -10.835  14.405  65.055  1.00  0.00    -0.407 C  
ATOM     16  H2*   A A   1     -13.381  12.231  66.836  1.00  0.00     0.000 HD 
ATOM     17  C3*   A A   1     -11.850  14.292  66.194  1.00  0.00    -0.402 C  
ATOM     18  C2*   A A   1     -11.524  12.963  66.885  1.00  0.00    -0.341 C  
ATOM     19  H3*   A A   1     -13.808  14.222  66.370  1.00  0.00     0.000 HD 
ATOM     20  O3*   A A   1     -13.178  14.292  65.663  1.00  0.00    -0.558 OA 
ATOM     21  O2*   A A   1     -12.524  11.991  66.501  1.00  0.00    -0.081 OA 
BRANCH  15  22
ATOM     22  C5*   A A   1      -9.895  15.604  65.251  1.00  0.00    -0.115 C  
ATOM     23  O5*   A A   1     -10.416  16.488  66.239  1.00  0.00    -0.308 OA 
ATOM     24  H5*   A A   1      -9.835  17.229  66.360  1.00  0.00     0.000 HD 
ENDBRANCH  15  22
ENDBRANCH   8  13
TORSDOF 2
ENDMDL
MODEL      172
REMARK 921   NORMALIZED FREE ENERGY PREDICTED BY IDOCK:   -3.48 KCAL/MOL
REMARK 922        TOTAL FREE ENERGY PREDICTED BY IDOCK:   -4.36 KCAL/MOL
REMARK 923 INTER-LIGAND FREE ENERGY PREDICTED BY IDOCK:   -3.99 KCAL/MOL
REMARK 924 INTRA-LIGAND FREE ENERGY PREDICTED BY IDOCK:   -0.37 KCAL/MOL
REMARK 927      BINDING AFFINITY PREDICTED BY RF-SCORE:    0.00 PKD
ROOT
ATOM      1  N6    A A   1      -9.750   3.711  66.601  1.00  0.00    -0.386 NA 
ATOM      2  C6    A A   1      -9.689   3.866  67.979  1.00  0.00    -0.064 A  
ATOM      3  H61   A A   1      -9.318   2.929  66.110  1.00  0.00     0.000 HD 
ATOM      4  H62   A A   1      -9.392   4.570  66.182  1.00  0.00     0.000 HD 
ATOM      5  C5    A A   1     -10.285   4.946  68.658  1.00  0.00    -0.042 A  
ATOM      6  N7    A A   1     -10.997   6.037  68.210  1.00  0.00    -0.300 NA 
ATOM      7  C8    A A   1     -11.281   6.715  69.302  1.00  0.00    -0.266 A  
ATOM      8  N9    A A   1     -10.787   6.108  70.436  1.00  0.00    -0.284 NA 
ATOM      9  N1    A A   1      -9.005   2.955  68.702  1.00  0.00    -0.122 NA 
ATOM     10  C4    A A   1     -10.133   4.978  70.038  1.00  0.00    -0.272 A  
ATOM     11  C2    A A   1      -8.933   3.112  70.040  1.00  0.00    -0.103 A  
ATOM     12  N3    A A   1      -9.458   4.099  70.795  1.00  0.00    -0.157 NA 
ENDROOT
BRANCH   8  13
ATOM     13  C1*   A A   1     -10.934   6.674  71.750  1.00  0.00    -0.240 C  
ATOM     14  O4*   A A   1     -10.987   8.110  71.595  1.00  0.00    -0.233 OA 
ATOM     15  C4*   A A   1      -9.670   8.643  71.876  1.00  0.00    -0.313 C  
ATOM     16  H2*   A A   1      -9.861   6.289  74.842  1.00  0.00     0.000 HD 
ATOM     17  C3*   A A   1      -8.939   7.624  72.752  1.00  0.00    -0.161 C  
ATOM     18  C2*   A A   1      -9.892   6.429  72.851  1.00  0.00    -0.167 C  
ATOM     19  H3*   A A   1      -8.222   7.559  74.583  1.00  0.00     0.000 HD 
ATOM     20  O3*   A A   1      -8.677   8.191  74.039  1.00  0.00    -0.258 OA 
ATOM     21  O2*   A A   1     -10.506   6.441  74.161  1.00  0.00    -0.320 OA 
BRANCH  15  22
ATOM     22  C5*   A A   1      -8.920   8.899  70.560  1.00  0.00    -0.192 C  
ATOM     23  O5*   A A   1      -8.051   7.811  70.263  1.00  0.00    -0.108 OA 
ATOM     24  H5*   A A   1      -7.588   7.969  69.449  1.00  0.00     0.000 HD 
ENDBRANCH  15  22
ENDBRANCH   8  13
TORSDOF 2
ENDMDL
MODEL      173
REMARK 921   NORMALIZED FREE ENERGY PREDICTED BY IDOCK:   -3.48 KCAL/MOL
REMARK 922        TOTAL FREE ENERGY PREDICTED BY IDOCK:   -4.36 KCAL/MOL
REMARK 923 INTER-LIGAND FREE ENERGY PREDICTED BY IDOCK:   -4.59 KCAL/MOL
REMARK 924 INTRA-LIGAND FREE ENERGY PREDICTED BY IDOCK:    0.23 KCAL/MOL
REMARK 927      BINDING AFFINITY PREDICTED BY RF-SCORE:    0.00 PKD
ROOT
ATOM      1  N6    A A   1      -5.445  12.631  68.815  1.00  0.00    -0.061 NA 
ATOM      2  C6    A A   1      -6.586  13.177  68.243  1.00  0.00    -0.097 A  
ATOM      3  H61   A A   1      -5.427  11.709  69.251  1.00  0.00     0.000 HD 
ATOM      4  H62   A A   1      -5.100  13.300  69.504  1.00  0.00     0.000 HD 
ATOM      5  C5    A A   1      -6.610  14.449  67.642  1.00  0.00    -0.152 A  
ATOM      6  N7    A A   1      -5.639  15.413  67.482  1.00  0.00    -0.331 NA 
ATOM      7  C8    A A   1      -6.253  16.399  66.864  1.00  0.00    -0.043 A  
ATOM      8  N9    A A   1      -7.577  16.115  66.614  1.00  0.00    -0.233 NA 
ATOM      9  N1    A A   1      -7.733  12.467  68.287  1.00  0.00    -0.134 NA 
ATOM     10  C4    A A   1      -7.826  14.871  67.120  1.00  0.00    -0.170 A  
ATOM     11  C2    A A   1      -8.846  13.002  67.743  1.00  0.00    -0.188 A  
ATOM     12  N3    A A   1      -8.990  14.203  67.147  1.00  0.00    -0.216 NA 
ENDROOT
BRANCH   8  13
ATOM     13  C1*   A A   1      -8.471  17.049  65.983  1.00  0.00    -0.136 C  
ATOM     14  O4*   A A   1      -7.965  18.376  66.255  1.00  0.00    -0.294 OA 
ATOM     15  C4*   A A   1      -8.712  18.924  67.367  1.00  0.00    -0.274 C  
ATOM     16  H2*   A A   1     -11.681  17.562  65.442  1.00  0.00     0.000 HD 
ATOM     17  C3*   A A   1     -10.051  18.187  67.431  1.00  0.00    -0.351 C  
ATOM     18  C2*   A A   1      -9.961  17.107  66.348  1.00  0.00    -0.306 C  
ATOM     19  H3*   A A   1     -11.952  18.644  67.208  1.00  0.00     0.000 HD 
ATOM     20  O3*   A A   1     -11.120  19.101  67.169  1.00  0.00    -0.396 OA 
ATOM     21  O2*   A A   1     -10.758  17.527  65.216  1.00  0.00    -0.656 OA 
BRANCH  15  22
ATOM     22  C5*   A A   1      -7.910  18.754  68.667  1.00  0.00    -0.328 C  
ATOM     23  O5*   A A   1      -6.514  18.849  68.405  1.00  0.00    -0.221 OA 
ATOM     24  H5*   A A   1      -6.018  18.744  69.208  1.00  0.00     0.000 HD 
ENDBRANCH  15  22
ENDBRANCH   8  13
TORSDOF 2
ENDMDL
MODEL      174
REMARK 921   NORMALIZED FREE ENERGY PREDICTED BY IDOCK:   -3.41 KCAL/MOL
REMARK 922        TOTAL FREE ENERGY PREDICTED BY IDOCK:   -4.28 KCAL/MOL
REMARK 923 INTER-LIGAND FREE ENERGY PREDICTED BY IDOCK:   -4.05 KCAL/MOL
REMARK 924 INTRA-LIGAND FREE ENERGY PREDICTED BY IDOCK:   -0.23 KCAL/MOL
REMARK 927      BINDING AFFINITY PREDICTED BY RF-SCORE:    0.00 PKD
ROOT
ATOM      1  N6    A A   1     -13.849   8.874  73.171  1.00  0.00    -1.176 NA 
ATOM      2  C6    A A   1     -12.888   8.217  72.415  1.00  0.00    -0.222 A  
ATOM      3  H61   A A   1     -14.531   8.385  73.750  1.00  0.00     0.000 HD 
ATOM      4  H62   A A   1     -14.367   9.486  72.540  1.00  0.00     0.000 HD 
ATOM      5  C5    A A   1     -11.947   8.892  71.615  1.00  0.00    -0.345 A  
ATOM      6  N7    A A   1     -11.738  10.230  71.365  1.00  0.00    -0.302 NA 
ATOM      7  C8    A A   1     -10.728  10.255  70.522  1.00  0.00    -0.144 A  
ATOM      8  N9    A A   1     -10.271   8.991  70.219  1.00  0.00    -0.190 NA 
ATOM      9  N1    A A   1     -12.872   6.868  72.423  1.00  0.00     0.114 NA 
ATOM     10  C4    A A   1     -11.052   8.104  70.903  1.00  0.00    -0.258 A  
ATOM     11  C2    A A   1     -11.947   6.228  71.677  1.00  0.00    -0.212 A  
ATOM     12  N3    A A   1     -11.003   6.763  70.876  1.00  0.00    -0.248 NA 
ENDROOT
BRANCH   8  13
ATOM     13  C1*   A A   1      -9.198   8.751  69.292  1.00  0.00    -0.149 C  
ATOM     14  O4*   A A   1      -8.543   7.530  69.702  1.00  0.00    -0.134 OA 
ATOM     15  C4*   A A   1      -7.362   7.884  70.462  1.00  0.00    -0.067 C  
ATOM     16  H2*   A A   1      -6.844  10.347  67.626  1.00  0.00     0.000 HD 
ATOM     17  C3*   A A   1      -6.961   9.303  70.055  1.00  0.00    -0.060 C  
ATOM     18  C2*   A A   1      -8.064   9.767  69.097  1.00  0.00    -0.107 C  
ATOM     19  H3*   A A   1      -5.435  10.161  69.157  1.00  0.00     0.000 HD 
ATOM     20  O3*   A A   1      -5.685   9.280  69.410  1.00  0.00    -0.035 OA 
ATOM     21  O2*   A A   1      -7.546   9.717  67.747  1.00  0.00    -0.090 OA 
BRANCH  15  22
ATOM     22  C5*   A A   1      -7.664   7.791  71.965  1.00  0.00    -0.089 C  
ATOM     23  O5*   A A   1      -7.610   9.082  72.564  1.00  0.00    -0.339 OA 
ATOM     24  H5*   A A   1      -7.797   9.024  73.494  1.00  0.00     0.000 HD 
ENDBRANCH  15  22
ENDBRANCH   8  13
TORSDOF 2
ENDMDL
MODEL      175
REMARK 921   NORMALIZED FREE ENERGY PREDICTED BY IDOCK:   -3.36 KCAL/MOL
REMARK 922        TOTAL FREE ENERGY PREDICTED BY IDOCK:   -4.23 KCAL/MOL
REMARK 923 INTER-LIGAND FREE ENERGY PREDICTED BY IDOCK:   -4.34 KCAL/MOL
REMARK 924 INTRA-LIGAND FREE ENERGY PREDICTED BY IDOCK:    0.11 KCAL/MOL
REMARK 927      BINDING AFFINITY PREDICTED BY RF-SCORE:    0.00 PKD
ROOT
ATOM      1  N6    A A   1      -6.838  18.789  68.469  1.00  0.00    -0.254 NA 
ATOM      2  C6    A A   1      -6.746  17.458  68.086  1.00  0.00    -0.178 A  
ATOM      3  H61   A A   1      -6.067  19.450  68.376  1.00  0.00     0.000 HD 
ATOM      4  H62   A A   1      -7.137  18.805  69.445  1.00  0.00     0.000 HD 
ATOM      5  C5    A A   1      -7.810  16.546  68.215  1.00  0.00    -0.175 A  
ATOM      6  N7    A A   1      -9.087  16.683  68.713  1.00  0.00    -0.250 NA 
ATOM      7  C8    A A   1      -9.617  15.484  68.594  1.00  0.00    -0.203 A  
ATOM      8  N9    A A   1      -8.740  14.579  68.038  1.00  0.00    -0.160 NA 
ATOM      9  N1    A A   1      -5.574  17.009  67.592  1.00  0.00    -0.125 NA 
ATOM     10  C4    A A   1      -7.570  15.242  67.801  1.00  0.00    -0.154 A  
ATOM     11  C2    A A   1      -5.478  15.712  67.231  1.00  0.00     0.195 A  
ATOM     12  N3    A A   1      -6.422  14.751  67.310  1.00  0.00    -0.263 NA 
ENDROOT
BRANCH   8  13
ATOM     13  C1*   A A   1      -9.071  13.194  67.838  1.00  0.00    -0.207 C  
ATOM     14  O4*   A A   1      -9.612  13.071  66.503  1.00  0.00    -0.252 OA 
ATOM     15  C4*   A A   1     -11.057  13.057  66.602  1.00  0.00    -0.289 C  
ATOM     16  H2*   A A   1     -10.378  10.616  69.422  1.00  0.00     0.000 HD 
ATOM     17  C3*   A A   1     -11.418  12.602  68.017  1.00  0.00    -0.318 C  
ATOM     18  C2*   A A   1     -10.076  12.470  68.745  1.00  0.00    -0.048 C  
ATOM     19  H3*   A A   1     -12.333  11.068  68.841  1.00  0.00     0.000 HD 
ATOM     20  O3*   A A   1     -12.108  11.351  67.962  1.00  0.00    -0.629 OA 
ATOM     21  O2*   A A   1      -9.756  11.064  68.860  1.00  0.00    -0.197 OA 
BRANCH  15  22
ATOM     22  C5*   A A   1     -11.612  14.457  66.298  1.00  0.00    -0.372 C  
ATOM     23  O5*   A A   1     -12.806  14.362  65.528  1.00  0.00    -0.458 OA 
ATOM     24  H5*   A A   1     -13.149  15.227  65.340  1.00  0.00     0.000 HD 
ENDBRANCH  15  22
ENDBRANCH   8  13
TORSDOF 2
ENDMDL
MODEL      176
REMARK 921   NORMALIZED FREE ENERGY PREDICTED BY IDOCK:   -3.36 KCAL/MOL
REMARK 922        TOTAL FREE ENERGY PREDICTED BY IDOCK:   -4.23 KCAL/MOL
REMARK 923 INTER-LIGAND FREE ENERGY PREDICTED BY IDOCK:   -3.82 KCAL/MOL
REMARK 924 INTRA-LIGAND FREE ENERGY PREDICTED BY IDOCK:   -0.41 KCAL/MOL
REMARK 927      BINDING AFFINITY PREDICTED BY RF-SCORE:    0.00 PKD
ROOT
ATOM      1  N6    A A   1      -8.014   5.587  66.784  1.00  0.00    -0.101 NA 
ATOM      2  C6    A A   1      -7.684   6.912  67.029  1.00  0.00    -0.103 A  
ATOM      3  H61   A A   1      -7.384   4.810  66.983  1.00  0.00     0.000 HD 
ATOM      4  H62   A A   1      -8.285   5.516  65.803  1.00  0.00     0.000 HD 
ATOM      5  C5    A A   1      -8.554   7.984  66.754  1.00  0.00    -0.130 A  
ATOM      6  N7    A A   1      -9.821   8.029  66.215  1.00  0.00    -0.155 NA 
ATOM      7  C8    A A   1     -10.119   9.311  66.182  1.00  0.00    -0.233 A  
ATOM      8  N9    A A   1      -9.103  10.095  66.680  1.00  0.00    -0.143 NA 
ATOM      9  N1    A A   1      -6.462   7.191  67.527  1.00  0.00    -0.052 NA 
ATOM     10  C4    A A   1      -8.085   9.259  67.040  1.00  0.00    -0.112 A  
ATOM     11  C2    A A   1      -6.134   8.481  67.753  1.00  0.00    -0.048 A  
ATOM     12  N3    A A   1      -6.878   9.583  67.530  1.00  0.00    -0.081 NA 
ENDROOT
BRANCH   8  13
ATOM     13  C1*   A A   1      -9.173  11.532  66.717  1.00  0.00    -0.181 C  
ATOM     14  O4*   A A   1      -9.138  11.927  68.107  1.00  0.00    -0.178 OA 
ATOM     15  C4*   A A   1     -10.497  12.182  68.538  1.00  0.00    -0.233 C  
ATOM     16  H2*   A A   1     -10.692  14.063  65.252  1.00  0.00     0.000 HD 
ATOM     17  C3*   A A   1     -11.323  12.499  67.291  1.00  0.00    -0.315 C  
ATOM     18  C2*   A A   1     -10.362  12.293  66.115  1.00  0.00    -0.242 C  
ATOM     19  H3*   A A   1     -12.308  14.045  66.577  1.00  0.00     0.000 HD 
ATOM     20  O3*   A A   1     -11.794  13.848  67.351  1.00  0.00    -0.360 OA 
ATOM     21  O2*   A A   1      -9.956  13.592  65.625  1.00  0.00    -0.284 OA 
BRANCH  15  22
ATOM     22  C5*   A A   1     -11.044  10.955  69.284  1.00  0.00    -0.248 C  
ATOM     23  O5*   A A   1     -12.468  10.954  69.260  1.00  0.00    -0.617 OA 
ATOM     24  H5*   A A   1     -12.807  10.196  69.721  1.00  0.00     0.000 HD 
ENDBRANCH  15  22
ENDBRANCH   8  13
TORSDOF 2
ENDMDL
MODEL      177
REMARK 921   NORMALIZED FREE ENERGY PREDICTED BY IDOCK:   -3.36 KCAL/MOL
REMARK 922        TOTAL FREE ENERGY PREDICTED BY IDOCK:   -4.22 KCAL/MOL
REMARK 923 INTER-LIGAND FREE ENERGY PREDICTED BY IDOCK:   -4.03 KCAL/MOL
REMARK 924 INTRA-LIGAND FREE ENERGY PREDICTED BY IDOCK:   -0.20 KCAL/MOL
REMARK 927      BINDING AFFINITY PREDICTED BY RF-SCORE:    0.00 PKD
ROOT
ATOM      1  N6    A A   1      -8.276  15.850  66.434  1.00  0.00    -0.284 NA 
ATOM      2  C6    A A   1      -9.051  14.737  66.729  1.00  0.00    -0.267 A  
ATOM      3  H61   A A   1      -8.657  16.697  66.012  1.00  0.00     0.000 HD 
ATOM      4  H62   A A   1      -7.504  15.536  65.844  1.00  0.00     0.000 HD 
ATOM      5  C5    A A   1      -8.525  13.568  67.310  1.00  0.00    -0.193 A  
ATOM      6  N7    A A   1      -7.248  13.221  67.692  1.00  0.00    -0.150 NA 
ATOM      7  C8    A A   1      -7.364  11.994  68.154  1.00  0.00    -0.094 A  
ATOM      8  N9    A A   1      -8.660  11.534  68.091  1.00  0.00    -0.149 NA 
ATOM      9  N1    A A   1     -10.364  14.763  66.419  1.00  0.00    -0.284 NA 
ATOM     10  C4    A A   1      -9.416  12.527  67.539  1.00  0.00    -0.185 A  
ATOM     11  C2    A A   1     -11.115  13.676  66.693  1.00  0.00    -0.306 A  
ATOM     12  N3    A A   1     -10.725  12.508  67.243  1.00  0.00    -0.230 NA 
ENDROOT
BRANCH   8  13
ATOM     13  C1*   A A   1      -9.038  10.208  68.501  1.00  0.00    -0.134 C  
ATOM     14  O4*   A A   1      -8.157   9.283  67.824  1.00  0.00    -0.103 OA 
ATOM     15  C4*   A A   1      -8.854   8.762  66.666  1.00  0.00    -0.131 C  
ATOM     16  H2*   A A   1     -11.708   8.382  69.133  1.00  0.00     0.000 HD 
ATOM     17  C3*   A A   1     -10.354   8.916  66.923  1.00  0.00    -0.262 C  
ATOM     18  C2*   A A   1     -10.453   9.664  68.257  1.00  0.00    -0.219 C  
ATOM     19  H3*   A A   1     -11.899   7.722  67.160  1.00  0.00     0.000 HD 
ATOM     20  O3*   A A   1     -10.967   7.627  67.000  1.00  0.00    -0.277 OA 
ATOM     21  O2*   A A   1     -10.832   8.718  69.284  1.00  0.00    -0.187 OA 
BRANCH  15  22
ATOM     22  C5*   A A   1      -8.413   9.526  65.408  1.00  0.00    -0.148 C  
ATOM     23  O5*   A A   1      -9.428   9.466  64.410  1.00  0.00    -0.424 OA 
ATOM     24  H5*   A A   1      -9.156   9.938  63.632  1.00  0.00     0.000 HD 
ENDBRANCH  15  22
ENDBRANCH   8  13
TORSDOF 2
ENDMDL
MODEL      178
REMARK 921   NORMALIZED FREE ENERGY PREDICTED BY IDOCK:   -3.35 KCAL/MOL
REMARK 922        TOTAL FREE ENERGY PREDICTED BY IDOCK:   -4.21 KCAL/MOL
REMARK 923 INTER-LIGAND FREE ENERGY PREDICTED BY IDOCK:   -3.75 KCAL/MOL
REMARK 924 INTRA-LIGAND FREE ENERGY PREDICTED BY IDOCK:   -0.46 KCAL/MOL
REMARK 927      BINDING AFFINITY PREDICTED BY RF-SCORE:    0.00 PKD
ROOT
ATOM      1  N6    A A   1     -10.576  13.624  66.647  1.00  0.00    -0.276 NA 
ATOM      2  C6    A A   1     -10.415  12.284  66.323  1.00  0.00    -0.238 A  
ATOM      3  H61   A A   1     -10.454  14.379  65.972  1.00  0.00     0.000 HD 
ATOM      4  H62   A A   1      -9.963  13.822  67.439  1.00  0.00     0.000 HD 
ATOM      5  C5    A A   1     -10.583  11.243  67.254  1.00  0.00    -0.233 A  
ATOM      6  N7    A A   1     -10.898  11.246  68.595  1.00  0.00    -0.190 NA 
ATOM      7  C8    A A   1     -10.894   9.975  68.937  1.00  0.00    -0.220 A  
ATOM      8  N9    A A   1     -10.594   9.151  67.876  1.00  0.00    -0.236 NA 
ATOM      9  N1    A A   1     -10.054  11.964  65.063  1.00  0.00    -0.260 NA 
ATOM     10  C4    A A   1     -10.378   9.950  66.790  1.00  0.00    -0.217 A  
ATOM     11  C2    A A   1      -9.884  10.663  64.749  1.00  0.00    -0.310 A  
ATOM     12  N3    A A   1     -10.014   9.587  65.551  1.00  0.00    -0.250 NA 
ENDROOT
BRANCH   8  13
ATOM     13  C1*   A A   1     -10.491   7.721  68.004  1.00  0.00    -0.185 C  
ATOM     14  O4*   A A   1      -9.507   7.452  69.028  1.00  0.00    -0.149 OA 
ATOM     15  C4*   A A   1      -8.249   7.151  68.376  1.00  0.00    -0.125 C  
ATOM     16  H2*   A A   1     -10.444   4.980  66.174  1.00  0.00     0.000 HD 
ATOM     17  C3*   A A   1      -8.568   6.674  66.958  1.00  0.00    -0.113 C  
ATOM     18  C2*   A A   1     -10.085   6.837  66.817  1.00  0.00    -0.183 C  
ATOM     19  H3*   A A   1      -8.370   5.012  65.925  1.00  0.00     0.000 HD 
ATOM     20  O3*   A A   1      -8.172   5.308  66.805  1.00  0.00    -0.108 OA 
ATOM     21  O2*   A A   1     -10.695   5.528  66.909  1.00  0.00    -0.280 OA 
BRANCH  15  22
ATOM     22  C5*   A A   1      -7.356   8.400  68.366  1.00  0.00    -0.094 C  
ATOM     23  O5*   A A   1      -7.355   9.000  67.074  1.00  0.00    -0.085 OA 
ATOM     24  H5*   A A   1      -6.803   9.773  67.068  1.00  0.00     0.000 HD 
ENDBRANCH  15  22
ENDBRANCH   8  13
TORSDOF 2
ENDMDL
MODEL      179
REMARK 921   NORMALIZED FREE ENERGY PREDICTED BY IDOCK:   -3.34 KCAL/MOL
REMARK 922        TOTAL FREE ENERGY PREDICTED BY IDOCK:   -4.21 KCAL/MOL
REMARK 923 INTER-LIGAND FREE ENERGY PREDICTED BY IDOCK:   -3.76 KCAL/MOL
REMARK 924 INTRA-LIGAND FREE ENERGY PREDICTED BY IDOCK:   -0.45 KCAL/MOL
REMARK 927      BINDING AFFINITY PREDICTED BY RF-SCORE:    0.00 PKD
ROOT
ATOM      1  N6    A A   1      -8.875   4.165  68.083  1.00  0.00    -0.104 NA 
ATOM      2  C6    A A   1      -8.465   5.483  68.228  1.00  0.00    -0.097 A  
ATOM      3  H61   A A   1      -8.297   3.369  68.352  1.00  0.00     0.000 HD 
ATOM      4  H62   A A   1      -9.138   4.034  67.105  1.00  0.00     0.000 HD 
ATOM      5  C5    A A   1      -9.262   6.581  67.856  1.00  0.00    -0.110 A  
ATOM      6  N7    A A   1     -10.517   6.662  67.293  1.00  0.00    -0.235 NA 
ATOM      7  C8    A A   1     -10.734   7.953  67.155  1.00  0.00    -0.236 A  
ATOM      8  N9    A A   1      -9.676   8.710  67.607  1.00  0.00    -0.152 NA 
ATOM      9  N1    A A   1      -7.233   5.725  68.723  1.00  0.00    -0.080 NA 
ATOM     10  C4    A A   1      -8.717   7.844  68.048  1.00  0.00    -0.125 A  
ATOM     11  C2    A A   1      -6.827   7.005  68.853  1.00  0.00    -0.072 A  
ATOM     12  N3    A A   1      -7.498   8.131  68.531  1.00  0.00    -0.096 NA 
ENDROOT
BRANCH   8  13
ATOM     13  C1*   A A   1      -9.656  10.146  67.529  1.00  0.00    -0.156 C  
ATOM     14  O4*   A A   1      -9.407  10.644  68.864  1.00  0.00    -0.172 OA 
ATOM     15  C4*   A A   1     -10.677  11.025  69.447  1.00  0.00    -0.205 C  
ATOM     16  H2*   A A   1     -11.210  12.658  66.067  1.00  0.00     0.000 HD 
ATOM     17  C3*   A A   1     -11.647  11.302  68.297  1.00  0.00    -0.300 C  
ATOM     18  C2*   A A   1     -10.870  10.940  67.027  1.00  0.00    -0.266 C  
ATOM     19  H3*   A A   1     -12.627  12.854  67.589  1.00  0.00     0.000 HD 
ATOM     20  O3*   A A   1     -12.024  12.682  68.303  1.00  0.00    -0.320 OA 
ATOM     21  O2*   A A   1     -10.458  12.166  66.378  1.00  0.00    -0.223 OA 
BRANCH  15  22
ATOM     22  C5*   A A   1     -11.188   9.901  70.361  1.00  0.00    -0.313 C  
ATOM     23  O5*   A A   1     -12.600   9.763  70.236  1.00  0.00    -0.497 OA 
ATOM     24  H5*   A A   1     -12.917   9.069  70.801  1.00  0.00     0.000 HD 
ENDBRANCH  15  22
ENDBRANCH   8  13
TORSDOF 2
ENDMDL
MODEL      180
REMARK 921   NORMALIZED FREE ENERGY PREDICTED BY IDOCK:   -3.32 KCAL/MOL
REMARK 922        TOTAL FREE ENERGY PREDICTED BY IDOCK:   -4.19 KCAL/MOL
REMARK 923 INTER-LIGAND FREE ENERGY PREDICTED BY IDOCK:   -3.59 KCAL/MOL
REMARK 924 INTRA-LIGAND FREE ENERGY PREDICTED BY IDOCK:   -0.59 KCAL/MOL
REMARK 927      BINDING AFFINITY PREDICTED BY RF-SCORE:    0.00 PKD
ROOT
ATOM      1  N6    A A   1     -11.776   9.344  71.637  1.00  0.00    -0.381 NA 
ATOM      2  C6    A A   1     -11.265   8.075  71.869  1.00  0.00    -0.280 A  
ATOM      3  H61   A A   1     -12.040   9.983  72.387  1.00  0.00     0.000 HD 
ATOM      4  H62   A A   1     -12.587   9.239  71.027  1.00  0.00     0.000 HD 
ATOM      5  C5    A A   1     -10.901   7.193  70.835  1.00  0.00    -0.244 A  
ATOM      6  N7    A A   1     -10.954   7.307  69.463  1.00  0.00    -0.205 NA 
ATOM      7  C8    A A   1     -10.498   6.155  69.018  1.00  0.00    -0.248 A  
ATOM      8  N9    A A   1     -10.149   5.303  70.043  1.00  0.00    -0.243 NA 
ATOM      9  N1    A A   1     -11.136   7.654  73.145  1.00  0.00    -0.388 NA 
ATOM     10  C4    A A   1     -10.414   5.949  71.216  1.00  0.00    -0.233 A  
ATOM     11  C2    A A   1     -10.651   6.415  73.371  1.00  0.00    -0.276 A  
ATOM     12  N3    A A   1     -10.274   5.487  72.468  1.00  0.00    -0.184 NA 
ENDROOT
BRANCH   8  13
ATOM     13  C1*   A A   1      -9.659   3.969  69.815  1.00  0.00    -0.210 C  
ATOM     14  O4*   A A   1      -8.378   3.865  70.475  1.00  0.00    -0.060 OA 
ATOM     15  C4*   A A   1      -7.341   4.058  69.482  1.00  0.00    -0.053 C  
ATOM     16  H2*   A A   1      -9.483   1.670  67.460  1.00  0.00     0.000 HD 
ATOM     17  C3*   A A   1      -7.943   3.720  68.117  1.00  0.00    -0.072 C  
ATOM     18  C2*   A A   1      -9.422   3.433  68.396  1.00  0.00    -0.145 C  
ATOM     19  H3*   A A   1      -7.658   2.365  66.719  1.00  0.00     0.000 HD 
ATOM     20  O3*   A A   1      -7.284   2.576  67.567  1.00  0.00    -0.051 OA 
ATOM     21  O2*   A A   1      -9.629   2.002  68.338  1.00  0.00    -0.198 OA 
BRANCH  15  22
ATOM     22  C5*   A A   1      -6.834   5.507  69.533  1.00  0.00    -0.061 C  
ATOM     23  O5*   A A   1      -6.993   6.042  70.844  1.00  0.00    -0.063 OA 
ATOM     24  H5*   A A   1      -6.680   6.938  70.876  1.00  0.00     0.000 HD 
ENDBRANCH  15  22
ENDBRANCH   8  13
TORSDOF 2
ENDMDL
MODEL      181
REMARK 921   NORMALIZED FREE ENERGY PREDICTED BY IDOCK:   -3.32 KCAL/MOL
REMARK 922        TOTAL FREE ENERGY PREDICTED BY IDOCK:   -4.18 KCAL/MOL
REMARK 923 INTER-LIGAND FREE ENERGY PREDICTED BY IDOCK:   -3.82 KCAL/MOL
REMARK 924 INTRA-LIGAND FREE ENERGY PREDICTED BY IDOCK:   -0.36 KCAL/MOL
REMARK 927      BINDING AFFINITY PREDICTED BY RF-SCORE:    0.00 PKD
ROOT
ATOM      1  N6    A A   1      -8.882  13.864  68.526  1.00  0.00    -0.272 NA 
ATOM      2  C6    A A   1      -9.603  12.678  68.487  1.00  0.00    -0.109 A  
ATOM      3  H61   A A   1      -9.301  14.776  68.345  1.00  0.00     0.000 HD 
ATOM      4  H62   A A   1      -8.091  13.760  67.890  1.00  0.00     0.000 HD 
ATOM      5  C5    A A   1      -9.025  11.419  68.736  1.00  0.00    -0.080 A  
ATOM      6  N7    A A   1      -7.736  11.039  69.036  1.00  0.00    -0.138 NA 
ATOM      7  C8    A A   1      -7.795   9.728  69.140  1.00  0.00    -0.095 A  
ATOM      8  N9    A A   1      -9.066   9.245  68.925  1.00  0.00    -0.138 NA 
ATOM      9  N1    A A   1     -10.913  12.730  68.168  1.00  0.00    -0.235 NA 
ATOM     10  C4    A A   1      -9.866  10.317  68.651  1.00  0.00    -0.173 A  
ATOM     11  C2    A A   1     -11.612  11.577  68.117  1.00  0.00    -0.308 A  
ATOM     12  N3    A A   1     -11.170  10.321  68.332  1.00  0.00    -0.254 NA 
ENDROOT
BRANCH   8  13
ATOM     13  C1*   A A   1      -9.382   7.842  68.947  1.00  0.00    -0.146 C  
ATOM     14  O4*   A A   1      -8.394   7.168  68.134  1.00  0.00    -0.122 OA 
ATOM     15  C4*   A A   1      -8.970   6.937  66.825  1.00  0.00    -0.132 C  
ATOM     16  H2*   A A   1     -11.960   5.791  68.856  1.00  0.00     0.000 HD 
ATOM     17  C3*   A A   1     -10.491   6.948  66.983  1.00  0.00    -0.304 C  
ATOM     18  C2*   A A   1     -10.735   7.315  68.450  1.00  0.00    -0.121 C  
ATOM     19  H3*   A A   1     -11.965   5.662  66.771  1.00  0.00     0.000 HD 
ATOM     20  O3*   A A   1     -11.020   5.655  66.673  1.00  0.00    -0.263 OA 
ATOM     21  O2*   A A   1     -11.122   6.117  69.163  1.00  0.00    -0.350 OA 
BRANCH  15  22
ATOM     22  C5*   A A   1      -8.494   8.022  65.848  1.00  0.00    -0.143 C  
ATOM     23  O5*   A A   1      -9.561   8.913  65.537  1.00  0.00    -0.440 OA 
ATOM     24  H5*   A A   1      -9.267   9.584  64.933  1.00  0.00     0.000 HD 
ENDBRANCH  15  22
ENDBRANCH   8  13
TORSDOF 2
ENDMDL
MODEL      182
REMARK 921   NORMALIZED FREE ENERGY PREDICTED BY IDOCK:   -3.31 KCAL/MOL
REMARK 922        TOTAL FREE ENERGY PREDICTED BY IDOCK:   -4.17 KCAL/MOL
REMARK 923 INTER-LIGAND FREE ENERGY PREDICTED BY IDOCK:   -3.99 KCAL/MOL
REMARK 924 INTRA-LIGAND FREE ENERGY PREDICTED BY IDOCK:   -0.18 KCAL/MOL
REMARK 927      BINDING AFFINITY PREDICTED BY RF-SCORE:    0.00 PKD
ROOT
ATOM      1  N6    A A   1      -9.914  15.306  70.651  1.00  0.00    -0.221 NA 
ATOM      2  C6    A A   1      -9.916  14.897  69.324  1.00  0.00    -0.175 A  
ATOM      3  H61   A A   1      -9.381  16.109  70.984  1.00  0.00     0.000 HD 
ATOM      4  H62   A A   1      -9.640  14.502  71.217  1.00  0.00     0.000 HD 
ATOM      5  C5    A A   1     -10.650  13.787  68.864  1.00  0.00    -0.205 A  
ATOM      6  N7    A A   1     -11.463  12.885  69.513  1.00  0.00    -0.254 NA 
ATOM      7  C8    A A   1     -11.857  12.058  68.569  1.00  0.00    -0.311 A  
ATOM      8  N9    A A   1     -11.336  12.387  67.337  1.00  0.00    -0.300 NA 
ATOM      9  N1    A A   1      -9.158  15.576  68.438  1.00  0.00    -0.185 NA 
ATOM     10  C4    A A   1     -10.547  13.488  67.511  1.00  0.00    -0.244 A  
ATOM     11  C2    A A   1      -9.148  15.171  67.151  1.00  0.00    -0.211 A  
ATOM     12  N3    A A   1      -9.804  14.130  66.598  1.00  0.00    -0.273 NA 
ENDROOT
BRANCH   8  13
ATOM     13  C1*   A A   1     -11.588  11.612  66.151  1.00  0.00    -0.028 C  
ATOM     14  O4*   A A   1     -11.226  10.244  66.448  1.00  0.00     0.149 OA 
ATOM     15  C4*   A A   1      -9.899  10.003  65.921  1.00  0.00    -0.264 C  
ATOM     16  H2*   A A   1     -11.295  11.773  62.872  1.00  0.00     0.000 HD 
ATOM     17  C3*   A A   1      -9.654  11.023  64.808  1.00  0.00    -0.248 C  
ATOM     18  C2*   A A   1     -10.889  11.930  64.821  1.00  0.00    -0.307 C  
ATOM     19  H3*   A A   1      -9.361  10.983  62.863  1.00  0.00     0.000 HD 
ATOM     20  O3*   A A   1      -9.514  10.349  63.554  1.00  0.00    -0.270 OA 
ATOM     21  O2*   A A   1     -11.727  11.576  63.696  1.00  0.00    -0.376 OA 
BRANCH  15  22
ATOM     22  C5*   A A   1      -8.861  10.132  67.046  1.00  0.00    -0.135 C  
ATOM     23  O5*   A A   1      -9.108   9.166  68.063  1.00  0.00    -0.132 OA 
ATOM     24  H5*   A A   1      -8.467   9.246  68.759  1.00  0.00     0.000 HD 
ENDBRANCH  15  22
ENDBRANCH   8  13
TORSDOF 2
ENDMDL
MODEL      183
REMARK 921   NORMALIZED FREE ENERGY PREDICTED BY IDOCK:   -3.29 KCAL/MOL
REMARK 922        TOTAL FREE ENERGY PREDICTED BY IDOCK:   -4.15 KCAL/MOL
REMARK 923 INTER-LIGAND FREE ENERGY PREDICTED BY IDOCK:   -4.49 KCAL/MOL
REMARK 924 INTRA-LIGAND FREE ENERGY PREDICTED BY IDOCK:    0.34 KCAL/MOL
REMARK 927      BINDING AFFINITY PREDICTED BY RF-SCORE:    0.00 PKD
ROOT
ATOM      1  N6    A A   1     -12.467  15.825  63.643  1.00  0.00    -0.742 NA 
ATOM      2  C6    A A   1     -11.388  15.564  64.475  1.00  0.00    -0.314 A  
ATOM      3  H61   A A   1     -12.750  16.768  63.378  1.00  0.00     0.000 HD 
ATOM      4  H62   A A   1     -13.282  15.364  64.048  1.00  0.00     0.000 HD 
ATOM      5  C5    A A   1     -10.997  14.262  64.841  1.00  0.00    -0.404 A  
ATOM      6  N7    A A   1     -11.515  13.023  64.535  1.00  0.00    -0.331 NA 
ATOM      7  C8    A A   1     -10.743  12.175  65.180  1.00  0.00    -0.292 A  
ATOM      8  N9    A A   1      -9.746  12.811  65.888  1.00  0.00    -0.237 NA 
ATOM      9  N1    A A   1     -10.696  16.606  64.981  1.00  0.00    -0.694 NA 
ATOM     10  C4    A A   1      -9.904  14.153  65.691  1.00  0.00    -0.249 A  
ATOM     11  C2    A A   1      -9.654  16.354  65.801  1.00  0.00    -0.192 A  
ATOM     12  N3    A A   1      -9.191  15.159  66.221  1.00  0.00    -0.300 NA 
ENDROOT
BRANCH   8  13
ATOM     13  C1*   A A   1      -8.797  12.104  66.705  1.00  0.00    -0.182 C  
ATOM     14  O4*   A A   1      -9.443  11.823  67.967  1.00  0.00    -0.175 OA 
ATOM     15  C4*   A A   1      -9.018  12.824  68.924  1.00  0.00     0.340 C  
ATOM     16  H2*   A A   1      -5.593  12.083  67.476  1.00  0.00     0.000 HD 
ATOM     17  C3*   A A   1      -7.684  13.391  68.435  1.00  0.00    -0.138 C  
ATOM     18  C2*   A A   1      -7.442  12.722  67.078  1.00  0.00     0.072 C  
ATOM     19  H3*   A A   1      -5.820  13.420  69.065  1.00  0.00     0.000 HD 
ATOM     20  O3*   A A   1      -6.649  13.068  69.368  1.00  0.00    -0.109 OA 
ATOM     21  O2*   A A   1      -6.431  11.700  67.246  1.00  0.00    -0.093 OA 
BRANCH  15  22
ATOM     22  C5*   A A   1     -10.089  13.919  69.041  1.00  0.00    -0.018 C  
ATOM     23  O5*   A A   1      -9.588  15.027  69.784  1.00  0.00    -0.435 OA 
ATOM     24  H5*   A A   1     -10.250  15.703  69.856  1.00  0.00     0.000 HD 
ENDBRANCH  15  22
ENDBRANCH   8  13
TORSDOF 2
ENDMDL
MODEL      184
REMARK 921   NORMALIZED FREE ENERGY PREDICTED BY IDOCK:   -3.29 KCAL/MOL
REMARK 922        TOTAL FREE ENERGY PREDICTED BY IDOCK:   -4.15 KCAL/MOL
REMARK 923 INTER-LIGAND FREE ENERGY PREDICTED BY IDOCK:   -3.99 KCAL/MOL
REMARK 924 INTRA-LIGAND FREE ENERGY PREDICTED BY IDOCK:   -0.15 KCAL/MOL
REMARK 927      BINDING AFFINITY PREDICTED BY RF-SCORE:    0.00 PKD
ROOT
ATOM      1  N6    A A   1     -11.708   9.051  71.859  1.00  0.00    -0.367 NA 
ATOM      2  C6    A A   1     -10.527   9.314  71.179  1.00  0.00    -0.331 A  
ATOM      3  H61   A A   1     -11.760   8.424  72.662  1.00  0.00     0.000 HD 
ATOM      4  H62   A A   1     -12.389   8.725  71.173  1.00  0.00     0.000 HD 
ATOM      5  C5    A A   1     -10.455  10.180  70.071  1.00  0.00    -0.274 A  
ATOM      6  N7    A A   1     -11.416  10.912  69.409  1.00  0.00    -0.275 NA 
ATOM      7  C8    A A   1     -10.760  11.514  68.439  1.00  0.00    -0.208 A  
ATOM      8  N9    A A   1      -9.417  11.205  68.448  1.00  0.00    -0.182 NA 
ATOM      9  N1    A A   1      -9.399   8.691  71.579  1.00  0.00    -0.224 NA 
ATOM     10  C4    A A   1      -9.208  10.339  69.482  1.00  0.00    -0.170 A  
ATOM     11  C2    A A   1      -8.253   8.936  70.911  1.00  0.00    -0.175 A  
ATOM     12  N3    A A   1      -8.064   9.737  69.842  1.00  0.00    -0.166 NA 
ENDROOT
BRANCH   8  13
ATOM     13  C1*   A A   1      -8.495  11.709  67.466  1.00  0.00    -0.150 C  
ATOM     14  O4*   A A   1      -9.261  12.027  66.282  1.00  0.00    -0.225 OA 
ATOM     15  C4*   A A   1      -9.133  10.925  65.351  1.00  0.00    -0.198 C  
ATOM     16  H2*   A A   1      -5.466  11.176  66.282  1.00  0.00     0.000 HD 
ATOM     17  C3*   A A   1      -7.846  10.176  65.700  1.00  0.00    -0.145 C  
ATOM     18  C2*   A A   1      -7.317  10.863  66.963  1.00  0.00    -0.118 C  
ATOM     19  H3*   A A   1      -6.116   9.816  64.835  1.00  0.00     0.000 HD 
ATOM     20  O3*   A A   1      -6.915  10.281  64.619  1.00  0.00    -0.133 OA 
ATOM     21  O2*   A A   1      -6.196  11.699  66.592  1.00  0.00    -0.143 OA 
BRANCH  15  22
ATOM     22  C5*   A A   1     -10.364  10.012  65.453  1.00  0.00    -0.041 C  
ATOM     23  O5*   A A   1      -9.981   8.705  65.868  1.00  0.00    -0.469 OA 
ATOM     24  H5*   A A   1     -10.742   8.140  65.931  1.00  0.00     0.000 HD 
ENDBRANCH  15  22
ENDBRANCH   8  13
TORSDOF 2
ENDMDL
MODEL      185
REMARK 921   NORMALIZED FREE ENERGY PREDICTED BY IDOCK:   -3.29 KCAL/MOL
REMARK 922        TOTAL FREE ENERGY PREDICTED BY IDOCK:   -4.15 KCAL/MOL
REMARK 923 INTER-LIGAND FREE ENERGY PREDICTED BY IDOCK:   -4.90 KCAL/MOL
REMARK 924 INTRA-LIGAND FREE ENERGY PREDICTED BY IDOCK:    0.75 KCAL/MOL
REMARK 927      BINDING AFFINITY PREDICTED BY RF-SCORE:    0.00 PKD
ROOT
ATOM      1  N6    A A   1      -7.224  18.191  68.592  1.00  0.00    -0.273 NA 
ATOM      2  C6    A A   1      -8.400  17.519  68.287  1.00  0.00    -0.265 A  
ATOM      3  H61   A A   1      -7.159  19.208  68.632  1.00  0.00     0.000 HD 
ATOM      4  H62   A A   1      -6.509  17.865  67.941  1.00  0.00     0.000 HD 
ATOM      5  C5    A A   1      -8.490  16.115  68.231  1.00  0.00    -0.180 A  
ATOM      6  N7    A A   1      -7.554  15.122  68.421  1.00  0.00    -0.113 NA 
ATOM      7  C8    A A   1      -8.216  14.003  68.219  1.00  0.00    -0.153 A  
ATOM      8  N9    A A   1      -9.539  14.228  67.911  1.00  0.00    -0.215 NA 
ATOM      9  N1    A A   1      -9.502  18.243  68.003  1.00  0.00    -0.281 NA 
ATOM     10  C4    A A   1      -9.728  15.580  67.902  1.00  0.00    -0.211 A  
ATOM     11  C2    A A   1     -10.642  17.591  67.694  1.00  0.00    -0.355 A  
ATOM     12  N3    A A   1     -10.847  16.260  67.608  1.00  0.00    -0.319 NA 
ENDROOT
BRANCH   8  13
ATOM     13  C1*   A A   1     -10.462  13.167  67.611  1.00  0.00    -0.221 C  
ATOM     14  O4*   A A   1      -9.917  11.953  68.176  1.00  0.00    -0.185 OA 
ATOM     15  C4*   A A   1      -9.249  11.222  67.119  1.00  0.00    -0.163 C  
ATOM     16  H2*   A A   1     -12.400  12.063  65.184  1.00  0.00     0.000 HD 
ATOM     17  C3*   A A   1      -9.853  11.682  65.790  1.00  0.00    -0.239 C  
ATOM     18  C2*   A A   1     -10.826  12.805  66.164  1.00  0.00    -0.279 C  
ATOM     19  H3*   A A   1     -10.905  10.875  64.337  1.00  0.00     0.000 HD 
ATOM     20  O3*   A A   1     -10.530  10.590  65.162  1.00  0.00    -0.270 OA 
ATOM     21  O2*   A A   1     -12.174  12.286  66.080  1.00  0.00    -0.647 OA 
BRANCH  15  22
ATOM     22  C5*   A A   1      -7.738  11.489  67.177  1.00  0.00    -0.160 C  
ATOM     23  O5*   A A   1      -7.178  11.464  65.867  1.00  0.00    -0.366 OA 
ATOM     24  H5*   A A   1      -6.243  11.628  65.903  1.00  0.00     0.000 HD 
ENDBRANCH  15  22
ENDBRANCH   8  13
TORSDOF 2
ENDMDL
MODEL      186
REMARK 921   NORMALIZED FREE ENERGY PREDICTED BY IDOCK:   -3.28 KCAL/MOL
REMARK 922        TOTAL FREE ENERGY PREDICTED BY IDOCK:   -4.14 KCAL/MOL
REMARK 923 INTER-LIGAND FREE ENERGY PREDICTED BY IDOCK:   -3.67 KCAL/MOL
REMARK 924 INTRA-LIGAND FREE ENERGY PREDICTED BY IDOCK:   -0.47 KCAL/MOL
REMARK 927      BINDING AFFINITY PREDICTED BY RF-SCORE:    0.00 PKD
ROOT
ATOM      1  N6    A A   1      -7.481   4.527  66.884  1.00  0.00    -0.081 NA 
ATOM      2  C6    A A   1      -8.556   5.404  66.919  1.00  0.00    -0.109 A  
ATOM      3  H61   A A   1      -7.583   3.530  66.693  1.00  0.00     0.000 HD 
ATOM      4  H62   A A   1      -6.984   4.619  67.770  1.00  0.00     0.000 HD 
ATOM      5  C5    A A   1      -8.417   6.780  67.183  1.00  0.00    -0.120 A  
ATOM      6  N7    A A   1      -7.316   7.558  67.466  1.00  0.00    -0.100 NA 
ATOM      7  C8    A A   1      -7.804   8.768  67.640  1.00  0.00    -0.102 A  
ATOM      8  N9    A A   1      -9.171   8.806  67.480  1.00  0.00    -0.136 NA 
ATOM      9  N1    A A   1      -9.797   4.913  66.719  1.00  0.00    -0.179 NA 
ATOM     10  C4    A A   1      -9.582   7.535  67.199  1.00  0.00    -0.161 A  
ATOM     11  C2    A A   1     -10.844   5.763  66.767  1.00  0.00    -0.248 A  
ATOM     12  N3    A A   1     -10.834   7.089  67.011  1.00  0.00    -0.370 NA 
ENDROOT
BRANCH   8  13
ATOM     13  C1*   A A   1      -9.944  10.007  67.656  1.00  0.00    -0.176 C  
ATOM     14  O4*   A A   1     -10.758  10.170  66.473  1.00  0.00    -0.153 OA 
ATOM     15  C4*   A A   1     -10.100  11.119  65.599  1.00  0.00    -0.253 C  
ATOM     16  H2*   A A   1      -9.677  13.080  68.816  1.00  0.00     0.000 HD 
ATOM     17  C3*   A A   1      -9.175  11.976  66.464  1.00  0.00    -0.216 C  
ATOM     18  C2*   A A   1      -9.271  11.370  67.868  1.00  0.00    -0.164 C  
ATOM     19  H3*   A A   1      -9.046  13.869  66.987  1.00  0.00     0.000 HD 
ATOM     20  O3*   A A   1      -9.620  13.336  66.450  1.00  0.00    -0.265 OA 
ATOM     21  O2*   A A   1     -10.094  12.236  68.684  1.00  0.00    -0.212 OA 
BRANCH  15  22
ATOM     22  C5*   A A   1      -9.321  10.368  64.509  1.00  0.00    -0.264 C  
ATOM     23  O5*   A A   1      -7.979  10.840  64.443  1.00  0.00    -0.359 OA 
ATOM     24  H5*   A A   1      -7.497  10.376  63.769  1.00  0.00     0.000 HD 
ENDBRANCH  15  22
ENDBRANCH   8  13
TORSDOF 2
ENDMDL
MODEL      187
REMARK 921   NORMALIZED FREE ENERGY PREDICTED BY IDOCK:   -3.28 KCAL/MOL
REMARK 922        TOTAL FREE ENERGY PREDICTED BY IDOCK:   -4.13 KCAL/MOL
REMARK 923 INTER-LIGAND FREE ENERGY PREDICTED BY IDOCK:   -4.00 KCAL/MOL
REMARK 924 INTRA-LIGAND FREE ENERGY PREDICTED BY IDOCK:   -0.13 KCAL/MOL
REMARK 927      BINDING AFFINITY PREDICTED BY RF-SCORE:    0.00 PKD
ROOT
ATOM      1  N6    A A   1     -11.137   4.835  65.558  1.00  0.00    -0.943 NA 
ATOM      2  C6    A A   1     -10.077   5.380  66.268  1.00  0.00    -0.174 A  
ATOM      3  H61   A A   1     -11.054   4.510  64.594  1.00  0.00     0.000 HD 
ATOM      4  H62   A A   1     -11.903   5.509  65.588  1.00  0.00     0.000 HD 
ATOM      5  C5    A A   1     -10.192   5.828  67.597  1.00  0.00    -0.193 A  
ATOM      6  N7    A A   1     -11.258   5.869  68.468  1.00  0.00    -0.101 NA 
ATOM      7  C8    A A   1     -10.768   6.410  69.563  1.00  0.00    -0.289 A  
ATOM      8  N9    A A   1      -9.431   6.718  69.439  1.00  0.00    -0.148 NA 
ATOM      9  N1    A A   1      -8.886   5.514  65.647  1.00  0.00    -0.153 NA 
ATOM     10  C4    A A   1      -9.049   6.363  68.178  1.00  0.00    -0.113 A  
ATOM     11  C2    A A   1      -7.857   6.056  66.332  1.00  0.00    -0.104 A  
ATOM     12  N3    A A   1      -7.849   6.520  67.599  1.00  0.00    -0.109 NA 
ENDROOT
BRANCH   8  13
ATOM     13  C1*   A A   1      -8.677   7.353  70.487  1.00  0.00    -0.147 C  
ATOM     14  O4*   A A   1      -9.542   8.333  71.104  1.00  0.00    -0.152 OA 
ATOM     15  C4*   A A   1      -9.224   9.631  70.544  1.00  0.00    -0.152 C  
ATOM     16  H2*   A A   1      -5.656   8.497  71.139  1.00  0.00     0.000 HD 
ATOM     17  C3*   A A   1      -7.795   9.562  70.003  1.00  0.00    -0.151 C  
ATOM     18  C2*   A A   1      -7.369   8.102  70.193  1.00  0.00    -0.060 C  
ATOM     19  H3*   A A   1      -6.066  10.409  70.406  1.00  0.00     0.000 HD 
ATOM     20  O3*   A A   1      -6.954  10.452  70.742  1.00  0.00    -0.313 OA 
ATOM     21  O2*   A A   1      -6.465   8.033  71.321  1.00  0.00    -0.037 OA 
BRANCH  15  22
ATOM     22  C5*   A A   1     -10.232   9.981  69.439  1.00  0.00    -0.222 C  
ATOM     23  O5*   A A   1     -10.855  11.232  69.712  1.00  0.00    -0.440 OA 
ATOM     24  H5*   A A   1     -11.478  11.449  69.029  1.00  0.00     0.000 HD 
ENDBRANCH  15  22
ENDBRANCH   8  13
TORSDOF 2
ENDMDL
MODEL      188
REMARK 921   NORMALIZED FREE ENERGY PREDICTED BY IDOCK:   -3.26 KCAL/MOL
REMARK 922        TOTAL FREE ENERGY PREDICTED BY IDOCK:   -4.11 KCAL/MOL
REMARK 923 INTER-LIGAND FREE ENERGY PREDICTED BY IDOCK:   -3.49 KCAL/MOL
REMARK 924 INTRA-LIGAND FREE ENERGY PREDICTED BY IDOCK:   -0.63 KCAL/MOL
REMARK 927      BINDING AFFINITY PREDICTED BY RF-SCORE:    0.00 PKD
ROOT
ATOM      1  N6    A A   1     -11.225  11.638  69.317  1.00  0.00    -0.268 NA 
ATOM      2  C6    A A   1     -11.285  10.498  70.106  1.00  0.00    -0.315 A  
ATOM      3  H61   A A   1     -11.817  12.454  69.472  1.00  0.00     0.000 HD 
ATOM      4  H62   A A   1     -11.357  11.345  68.348  1.00  0.00     0.000 HD 
ATOM      5  C5    A A   1     -10.468   9.372  69.893  1.00  0.00    -0.233 A  
ATOM      6  N7    A A   1      -9.505   9.097  68.947  1.00  0.00    -0.150 NA 
ATOM      7  C8    A A   1      -9.098   7.879  69.237  1.00  0.00    -0.148 A  
ATOM      8  N9    A A   1      -9.753   7.356  70.330  1.00  0.00    -0.172 NA 
ATOM      9  N1    A A   1     -12.187  10.454  71.109  1.00  0.00    -0.368 NA 
ATOM     10  C4    A A   1     -10.646   8.297  70.755  1.00  0.00    -0.210 A  
ATOM     11  C2    A A   1     -12.255   9.341  71.869  1.00  0.00    -0.378 A  
ATOM     12  N3    A A   1     -11.532   8.208  71.759  1.00  0.00    -0.269 NA 
ENDROOT
BRANCH   8  13
ATOM     13  C1*   A A   1      -9.512   6.026  70.821  1.00  0.00    -0.168 C  
ATOM     14  O4*   A A   1      -9.044   6.151  72.183  1.00  0.00    -0.142 OA 
ATOM     15  C4*   A A   1      -7.599   6.051  72.175  1.00  0.00    -0.097 C  
ATOM     16  H2*   A A   1      -8.279   3.123  69.864  1.00  0.00     0.000 HD 
ATOM     17  C3*   A A   1      -7.197   5.303  70.903  1.00  0.00    -0.069 C  
ATOM     18  C2*   A A   1      -8.507   5.088  70.138  1.00  0.00    -0.092 C  
ATOM     19  H3*   A A   1      -6.332   3.593  70.458  1.00  0.00     0.000 HD 
ATOM     20  O3*   A A   1      -6.582   4.058  71.247  1.00  0.00    -0.025 OA 
ATOM     21  O2*   A A   1      -8.901   3.704  70.287  1.00  0.00    -0.075 OA 
BRANCH  15  22
ATOM     22  C5*   A A   1      -6.981   7.457  72.225  1.00  0.00    -0.063 C  
ATOM     23  O5*   A A   1      -7.918   8.393  72.750  1.00  0.00    -0.245 OA 
ATOM     24  H5*   A A   1      -7.536   9.262  72.781  1.00  0.00     0.000 HD 
ENDBRANCH  15  22
ENDBRANCH   8  13
TORSDOF 2
ENDMDL
MODEL      189
REMARK 921   NORMALIZED FREE ENERGY PREDICTED BY IDOCK:   -3.24 KCAL/MOL
REMARK 922        TOTAL FREE ENERGY PREDICTED BY IDOCK:   -4.10 KCAL/MOL
REMARK 923 INTER-LIGAND FREE ENERGY PREDICTED BY IDOCK:   -4.58 KCAL/MOL
REMARK 924 INTRA-LIGAND FREE ENERGY PREDICTED BY IDOCK:    0.49 KCAL/MOL
REMARK 927      BINDING AFFINITY PREDICTED BY RF-SCORE:    0.00 PKD
ROOT
ATOM      1  N6    A A   1     -12.590  14.475  69.101  1.00  0.00    -0.538 NA 
ATOM      2  C6    A A   1     -12.020  13.312  68.601  1.00  0.00    -0.310 A  
ATOM      3  H61   A A   1     -12.811  15.282  68.517  1.00  0.00     0.000 HD 
ATOM      4  H62   A A   1     -11.994  14.803  69.862  1.00  0.00     0.000 HD 
ATOM      5  C5    A A   1     -11.714  12.199  69.406  1.00  0.00    -0.329 A  
ATOM      6  N7    A A   1     -11.854  11.971  70.758  1.00  0.00    -0.045 NA 
ATOM      7  C8    A A   1     -11.378  10.758  70.938  1.00  0.00     0.148 A  
ATOM      8  N9    A A   1     -10.938  10.190  69.762  1.00  0.00    -0.261 NA 
ATOM      9  N1    A A   1     -11.719  13.254  67.287  1.00  0.00    -0.358 NA 
ATOM     10  C4    A A   1     -11.135  11.108  68.771  1.00  0.00    -0.236 A  
ATOM     11  C2    A A   1     -11.153  12.129  66.802  1.00  0.00    -0.300 A  
ATOM     12  N3    A A   1     -10.814  11.008  67.472  1.00  0.00    -0.244 NA 
ENDROOT
BRANCH   8  13
ATOM     13  C1*   A A   1     -10.340   8.883  69.703  1.00  0.00    -0.212 C  
ATOM     14  O4*   A A   1     -11.408   7.917  69.838  1.00  0.00    -0.123 OA 
ATOM     15  C4*   A A   1     -11.443   7.473  71.217  1.00  0.00    -0.274 C  
ATOM     16  H2*   A A   1      -7.689   7.227  70.747  1.00  0.00     0.000 HD 
ATOM     17  C3*   A A   1     -10.058   7.722  71.816  1.00  0.00    -0.179 C  
ATOM     18  C2*   A A   1      -9.273   8.442  70.715  1.00  0.00    -0.159 C  
ATOM     19  H3*   A A   1      -8.589   6.630  72.535  1.00  0.00     0.000 HD 
ATOM     20  O3*   A A   1      -9.449   6.476  72.163  1.00  0.00    -0.150 OA 
ATOM     21  O2*   A A   1      -8.350   7.499  70.121  1.00  0.00    -0.130 OA 
BRANCH  15  22
ATOM     22  C5*   A A   1     -12.536   8.236  71.980  1.00  0.00    -0.349 C  
ATOM     23  O5*   A A   1     -13.784   8.129  71.301  1.00  0.00    -0.533 OA 
ATOM     24  H5*   A A   1     -14.460   8.601  71.773  1.00  0.00     0.000 HD 
ENDBRANCH  15  22
ENDBRANCH   8  13
TORSDOF 2
ENDMDL
MODEL      190
REMARK 921   NORMALIZED FREE ENERGY PREDICTED BY IDOCK:   -3.22 KCAL/MOL
REMARK 922        TOTAL FREE ENERGY PREDICTED BY IDOCK:   -4.07 KCAL/MOL
REMARK 923 INTER-LIGAND FREE ENERGY PREDICTED BY IDOCK:   -3.44 KCAL/MOL
REMARK 924 INTRA-LIGAND FREE ENERGY PREDICTED BY IDOCK:   -0.63 KCAL/MOL
REMARK 927      BINDING AFFINITY PREDICTED BY RF-SCORE:    0.00 PKD
ROOT
ATOM      1  N6    A A   1     -12.642   8.077  72.582  1.00  0.00    -0.586 NA 
ATOM      2  C6    A A   1     -11.777   7.362  71.766  1.00  0.00    -0.286 A  
ATOM      3  H61   A A   1     -13.093   7.674  73.404  1.00  0.00     0.000 HD 
ATOM      4  H62   A A   1     -13.378   8.458  71.987  1.00  0.00     0.000 HD 
ATOM      5  C5    A A   1     -11.155   7.918  70.632  1.00  0.00    -0.259 A  
ATOM      6  N7    A A   1     -11.227   9.169  70.061  1.00  0.00    -0.199 NA 
ATOM      7  C8    A A   1     -10.442   9.095  69.007  1.00  0.00    -0.221 A  
ATOM      8  N9    A A   1      -9.865   7.852  68.873  1.00  0.00    -0.169 NA 
ATOM      9  N1    A A   1     -11.542   6.065  72.055  1.00  0.00    -0.298 NA 
ATOM     10  C4    A A   1     -10.323   7.080  69.902  1.00  0.00    -0.210 A  
ATOM     11  C2    A A   1     -10.711   5.365  71.254  1.00  0.00    -0.179 A  
ATOM     12  N3    A A   1     -10.064   5.786  70.148  1.00  0.00    -0.196 NA 
ENDROOT
BRANCH   8  13
ATOM     13  C1*   A A   1      -8.996   7.509  67.779  1.00  0.00    -0.131 C  
ATOM     14  O4*   A A   1      -7.696   7.215  68.340  1.00  0.00    -0.115 OA 
ATOM     15  C4*   A A   1      -6.866   8.393  68.194  1.00  0.00    -0.069 C  
ATOM     16  H2*   A A   1      -8.298   8.399  64.683  1.00  0.00     0.000 HD 
ATOM     17  C3*   A A   1      -7.443   9.225  67.048  1.00  0.00    -0.091 C  
ATOM     18  C2*   A A   1      -8.724   8.492  66.632  1.00  0.00    -0.125 C  
ATOM     19  H3*   A A   1      -6.862   9.802  65.259  1.00  0.00     0.000 HD 
ATOM     20  O3*   A A   1      -6.503   9.285  65.971  1.00  0.00    -0.066 OA 
ATOM     21  O2*   A A   1      -8.466   7.790  65.394  1.00  0.00    -0.141 OA 
BRANCH  15  22
ATOM     22  C5*   A A   1      -6.846   9.182  69.512  1.00  0.00    -0.048 C  
ATOM     23  O5*   A A   1      -7.195   8.335  70.603  1.00  0.00    -0.046 OA 
ATOM     24  H5*   A A   1      -7.183   8.823  71.418  1.00  0.00     0.000 HD 
ENDBRANCH  15  22
ENDBRANCH   8  13
TORSDOF 2
ENDMDL
MODEL      191
REMARK 921   NORMALIZED FREE ENERGY PREDICTED BY IDOCK:   -3.21 KCAL/MOL
REMARK 922        TOTAL FREE ENERGY PREDICTED BY IDOCK:   -4.06 KCAL/MOL
REMARK 923 INTER-LIGAND FREE ENERGY PREDICTED BY IDOCK:   -3.59 KCAL/MOL
REMARK 924 INTRA-LIGAND FREE ENERGY PREDICTED BY IDOCK:   -0.46 KCAL/MOL
REMARK 927      BINDING AFFINITY PREDICTED BY RF-SCORE:    0.00 PKD
ROOT
ATOM      1  N6    A A   1      -9.006  13.770  68.476  1.00  0.00    -0.298 NA 
ATOM      2  C6    A A   1      -9.936  12.743  68.387  1.00  0.00    -0.210 A  
ATOM      3  H61   A A   1      -9.213  14.733  68.212  1.00  0.00     0.000 HD 
ATOM      4  H62   A A   1      -8.181  13.480  67.949  1.00  0.00     0.000 HD 
ATOM      5  C5    A A   1      -9.649  11.414  68.750  1.00  0.00    -0.129 A  
ATOM      6  N7    A A   1      -8.504  10.813  69.223  1.00  0.00    -0.100 NA 
ATOM      7  C8    A A   1      -8.831   9.546  69.364  1.00  0.00    -0.170 A  
ATOM      8  N9    A A   1     -10.139   9.302  69.007  1.00  0.00    -0.192 NA 
ATOM      9  N1    A A   1     -11.164  13.025  67.905  1.00  0.00    -0.257 NA 
ATOM     10  C4    A A   1     -10.675  10.489  68.598  1.00  0.00    -0.215 A  
ATOM     11  C2    A A   1     -12.065  12.026  67.805  1.00  0.00     0.101 A  
ATOM     12  N3    A A   1     -11.906  10.723  68.118  1.00  0.00    -0.514 NA 
ENDROOT
BRANCH   8  13
ATOM     13  C1*   A A   1     -10.724   7.988  69.037  1.00  0.00    -0.088 C  
ATOM     14  O4*   A A   1     -11.831   8.034  69.966  1.00  0.00     0.151 OA 
ATOM     15  C4*   A A   1     -11.379   7.499  71.234  1.00  0.00    -0.261 C  
ATOM     16  H2*   A A   1      -9.876   4.803  69.032  1.00  0.00     0.000 HD 
ATOM     17  C3*   A A   1     -10.175   6.600  70.951  1.00  0.00    -0.196 C  
ATOM     18  C2*   A A   1      -9.907   6.756  69.450  1.00  0.00    -0.156 C  
ATOM     19  H3*   A A   1      -9.742   4.688  71.113  1.00  0.00     0.000 HD 
ATOM     20  O3*   A A   1     -10.490   5.247  71.288  1.00  0.00    -0.226 OA 
ATOM     21  O2*   A A   1     -10.382   5.567  68.777  1.00  0.00    -0.195 OA 
BRANCH  15  22
ATOM     22  C5*   A A   1     -11.017   8.651  72.184  1.00  0.00    -0.364 C  
ATOM     23  O5*   A A   1      -9.851   8.326  72.935  1.00  0.00    -0.276 OA 
ATOM     24  H5*   A A   1      -9.627   9.037  73.523  1.00  0.00     0.000 HD 
ENDBRANCH  15  22
ENDBRANCH   8  13
TORSDOF 2
ENDMDL
MODEL      192
REMARK 921   NORMALIZED FREE ENERGY PREDICTED BY IDOCK:   -3.20 KCAL/MOL
REMARK 922        TOTAL FREE ENERGY PREDICTED BY IDOCK:   -4.05 KCAL/MOL
REMARK 923 INTER-LIGAND FREE ENERGY PREDICTED BY IDOCK:   -4.47 KCAL/MOL
REMARK 924 INTRA-LIGAND FREE ENERGY PREDICTED BY IDOCK:    0.42 KCAL/MOL
REMARK 927      BINDING AFFINITY PREDICTED BY RF-SCORE:    0.00 PKD
ROOT
ATOM      1  N6    A A   1     -13.330  14.812  70.950  1.00  0.00    -0.522 NA 
ATOM      2  C6    A A   1     -12.331  14.652  69.999  1.00  0.00    -0.315 A  
ATOM      3  H61   A A   1     -13.683  15.725  71.238  1.00  0.00     0.000 HD 
ATOM      4  H62   A A   1     -13.029  14.321  71.792  1.00  0.00     0.000 HD 
ATOM      5  C5    A A   1     -11.844  13.393  69.601  1.00  0.00    -0.331 A  
ATOM      6  N7    A A   1     -12.160  12.113  69.999  1.00  0.00    -0.304 NA 
ATOM      7  C8    A A   1     -11.363  11.342  69.292  1.00  0.00    -0.287 A  
ATOM      8  N9    A A   1     -10.547  12.066  68.452  1.00  0.00    -0.210 NA 
ATOM      9  N1    A A   1     -11.781  15.755  69.449  1.00  0.00    -0.368 NA 
ATOM     10  C4    A A   1     -10.834  13.386  68.647  1.00  0.00    -0.263 A  
ATOM     11  C2    A A   1     -10.801  15.602  68.534  1.00  0.00    -0.282 A  
ATOM     12  N3    A A   1     -10.255  14.455  68.079  1.00  0.00    -0.225 NA 
ENDROOT
BRANCH   8  13
ATOM     13  C1*   A A   1      -9.561  11.453  67.603  1.00  0.00    -0.169 C  
ATOM     14  O4*   A A   1      -9.728  10.022  67.716  1.00  0.00    -0.147 OA 
ATOM     15  C4*   A A   1      -8.743   9.526  68.656  1.00  0.00    -0.127 C  
ATOM     16  H2*   A A   1      -6.411  11.774  66.685  1.00  0.00     0.000 HD 
ATOM     17  C3*   A A   1      -7.599  10.540  68.702  1.00  0.00    -0.099 C  
ATOM     18  C2*   A A   1      -8.059  11.698  67.810  1.00  0.00    -0.139 C  
ATOM     19  H3*   A A   1      -5.689  10.571  68.232  1.00  0.00     0.000 HD 
ATOM     20  O3*   A A   1      -6.400   9.941  68.204  1.00  0.00    -0.054 OA 
ATOM     21  O2*   A A   1      -7.341  11.622  66.557  1.00  0.00    -0.077 OA 
BRANCH  15  22
ATOM     22  C5*   A A   1      -9.390   9.339  70.037  1.00  0.00    -0.209 C  
ATOM     23  O5*   A A   1      -8.509   9.784  71.063  1.00  0.00    -0.346 OA 
ATOM     24  H5*   A A   1      -8.908   9.668  71.916  1.00  0.00     0.000 HD 
ENDBRANCH  15  22
ENDBRANCH   8  13
TORSDOF 2
ENDMDL
MODEL      193
REMARK 921   NORMALIZED FREE ENERGY PREDICTED BY IDOCK:   -3.20 KCAL/MOL
REMARK 922        TOTAL FREE ENERGY PREDICTED BY IDOCK:   -4.04 KCAL/MOL
REMARK 923 INTER-LIGAND FREE ENERGY PREDICTED BY IDOCK:   -4.55 KCAL/MOL
REMARK 924 INTRA-LIGAND FREE ENERGY PREDICTED BY IDOCK:    0.51 KCAL/MOL
REMARK 927      BINDING AFFINITY PREDICTED BY RF-SCORE:    0.00 PKD
ROOT
ATOM      1  N6    A A   1     -13.302  14.937  70.527  1.00  0.00    -0.637 NA 
ATOM      2  C6    A A   1     -12.838  13.643  70.717  1.00  0.00    -0.202 A  
ATOM      3  H61   A A   1     -13.970  15.386  71.154  1.00  0.00     0.000 HD 
ATOM      4  H62   A A   1     -13.688  14.987  69.584  1.00  0.00     0.000 HD 
ATOM      5  C5    A A   1     -11.917  13.022  69.853  1.00  0.00    -0.311 A  
ATOM      6  N7    A A   1     -11.297  13.455  68.701  1.00  0.00    -0.266 NA 
ATOM      7  C8    A A   1     -10.559  12.433  68.321  1.00  0.00    -0.222 A  
ATOM      8  N9    A A   1     -10.672  11.361  69.179  1.00  0.00    -0.211 NA 
ATOM      9  N1    A A   1     -13.312  12.934  71.763  1.00  0.00    -0.408 NA 
ATOM     10  C4    A A   1     -11.550  11.718  70.160  1.00  0.00    -0.195 A  
ATOM     11  C2    A A   1     -12.872  11.671  71.941  1.00  0.00    -0.248 A  
ATOM     12  N3    A A   1     -11.999  10.975  71.184  1.00  0.00    -0.230 NA 
ENDROOT
BRANCH   8  13
ATOM     13  C1*   A A   1      -9.992  10.113  68.960  1.00  0.00    -0.208 C  
ATOM     14  O4*   A A   1      -9.144  10.284  67.801  1.00  0.00    -0.134 OA 
ATOM     15  C4*   A A   1      -9.831   9.729  66.653  1.00  0.00    -0.215 C  
ATOM     16  H2*   A A   1     -10.516   6.860  69.036  1.00  0.00     0.000 HD 
ATOM     17  C3*   A A   1     -10.847   8.710  67.173  1.00  0.00     0.010 C  
ATOM     18  C2*   A A   1     -10.765   8.812  68.700  1.00  0.00    -0.068 C  
ATOM     19  H3*   A A   1     -11.127   6.767  67.040  1.00  0.00     0.000 HD 
ATOM     20  O3*   A A   1     -10.497   7.400  66.718  1.00  0.00    -0.296 OA 
ATOM     21  O2*   A A   1     -10.037   7.665  69.196  1.00  0.00    -0.183 OA 
BRANCH  15  22
ATOM     22  C5*   A A   1     -10.513  10.854  65.861  1.00  0.00    -0.221 C  
ATOM     23  O5*   A A   1     -10.154  10.781  64.484  1.00  0.00    -0.303 OA 
ATOM     24  H5*   A A   1     -10.576  11.477  63.995  1.00  0.00     0.000 HD 
ENDBRANCH  15  22
ENDBRANCH   8  13
TORSDOF 2
ENDMDL
MODEL      194
REMARK 921   NORMALIZED FREE ENERGY PREDICTED BY IDOCK:   -3.12 KCAL/MOL
REMARK 922        TOTAL FREE ENERGY PREDICTED BY IDOCK:   -3.96 KCAL/MOL
REMARK 923 INTER-LIGAND FREE ENERGY PREDICTED BY IDOCK:   -3.42 KCAL/MOL
REMARK 924 INTRA-LIGAND FREE ENERGY PREDICTED BY IDOCK:   -0.55 KCAL/MOL
REMARK 927      BINDING AFFINITY PREDICTED BY RF-SCORE:    0.00 PKD
ROOT
ATOM      1  N6    A A   1      -9.074   3.528  66.603  1.00  0.00    -0.150 NA 
ATOM      2  C6    A A   1      -8.795   4.253  67.753  1.00  0.00    -0.111 A  
ATOM      3  H61   A A   1      -8.493   2.756  66.276  1.00  0.00     0.000 HD 
ATOM      4  H62   A A   1      -9.155   4.195  65.834  1.00  0.00     0.000 HD 
ATOM      5  C5    A A   1      -9.597   5.318  68.203  1.00  0.00    -0.129 A  
ATOM      6  N7    A A   1     -10.739   5.894  67.691  1.00  0.00    -0.270 NA 
ATOM      7  C8    A A   1     -11.024   6.864  68.533  1.00  0.00    -0.136 A  
ATOM      8  N9    A A   1     -10.119   6.939  69.569  1.00  0.00    -0.170 NA 
ATOM      9  N1    A A   1      -7.688   3.942  68.459  1.00  0.00    -0.061 NA 
ATOM     10  C4    A A   1      -9.188   5.961  69.364  1.00  0.00    -0.130 A  
ATOM     11  C2    A A   1      -7.408   4.654  69.570  1.00  0.00    -0.052 A  
ATOM     12  N3    A A   1      -8.095   5.690  70.094  1.00  0.00    -0.101 NA 
ENDROOT
BRANCH   8  13
ATOM     13  C1*   A A   1     -10.193   7.940  70.599  1.00  0.00    -0.196 C  
ATOM     14  O4*   A A   1      -9.874   7.291  71.851  1.00  0.00    -0.163 OA 
ATOM     15  C4*   A A   1     -11.116   6.979  72.527  1.00  0.00    -0.274 C  
ATOM     16  H2*   A A   1     -12.007  10.528  71.533  1.00  0.00     0.000 HD 
ATOM     17  C3*   A A   1     -12.187   7.927  71.983  1.00  0.00    -0.317 C  
ATOM     18  C2*   A A   1     -11.489   8.717  70.871  1.00  0.00    -0.275 C  
ATOM     19  H3*   A A   1     -13.312   9.377  72.690  1.00  0.00     0.000 HD 
ATOM     20  O3*   A A   1     -12.647   8.789  73.027  1.00  0.00    -0.225 OA 
ATOM     21  O2*   A A   1     -11.205  10.047  71.365  1.00  0.00    -0.306 OA 
BRANCH  15  22
ATOM     22  C5*   A A   1     -11.485   5.508  72.284  1.00  0.00    -0.156 C  
ATOM     23  O5*   A A   1     -10.310   4.725  72.102  1.00  0.00    -0.193 OA 
ATOM     24  H5*   A A   1     -10.538   3.815  71.951  1.00  0.00     0.000 HD 
ENDBRANCH  15  22
ENDBRANCH   8  13
TORSDOF 2
ENDMDL
MODEL      195
REMARK 921   NORMALIZED FREE ENERGY PREDICTED BY IDOCK:   -3.11 KCAL/MOL
REMARK 922        TOTAL FREE ENERGY PREDICTED BY IDOCK:   -3.95 KCAL/MOL
REMARK 923 INTER-LIGAND FREE ENERGY PREDICTED BY IDOCK:   -3.49 KCAL/MOL
REMARK 924 INTRA-LIGAND FREE ENERGY PREDICTED BY IDOCK:   -0.46 KCAL/MOL
REMARK 927      BINDING AFFINITY PREDICTED BY RF-SCORE:    0.00 PKD
ROOT
ATOM      1  N6    A A   1     -13.118  10.694  71.265  1.00  0.00    -0.381 NA 
ATOM      2  C6    A A   1     -11.853  10.154  71.080  1.00  0.00    -0.383 A  
ATOM      3  H61   A A   1     -13.668  10.547  72.112  1.00  0.00     0.000 HD 
ATOM      4  H62   A A   1     -13.693  10.402  70.474  1.00  0.00     0.000 HD 
ATOM      5  C5    A A   1     -11.095  10.357  69.911  1.00  0.00    -0.305 A  
ATOM      6  N7    A A   1     -11.358  11.047  68.749  1.00  0.00    -0.258 NA 
ATOM      7  C8    A A   1     -10.286  10.865  68.008  1.00  0.00    -0.178 A  
ATOM      8  N9    A A   1      -9.340  10.090  68.642  1.00  0.00    -0.151 NA 
ATOM      9  N1    A A   1     -11.335   9.375  72.052  1.00  0.00    -0.209 NA 
ATOM     10  C4    A A   1      -9.850   9.744  69.860  1.00  0.00    -0.243 A  
ATOM     11  C2    A A   1     -10.111   8.838  71.868  1.00  0.00    -0.339 A  
ATOM     12  N3    A A   1      -9.298   8.959  70.798  1.00  0.00    -0.208 NA 
ENDROOT
BRANCH   8  13
ATOM     13  C1*   A A   1      -8.095   9.718  68.024  1.00  0.00    -0.105 C  
ATOM     14  O4*   A A   1      -7.033  10.158  68.901  1.00  0.00    -0.059 OA 
ATOM     15  C4*   A A   1      -6.524  11.416  68.397  1.00  0.00    -0.050 C  
ATOM     16  H2*   A A   1      -6.633   9.596  65.073  1.00  0.00     0.000 HD 
ATOM     17  C3*   A A   1      -6.866  11.488  66.908  1.00  0.00    -0.138 C  
ATOM     18  C2*   A A   1      -7.704  10.235  66.633  1.00  0.00    -0.113 C  
ATOM     19  H3*   A A   1      -5.875  11.538  65.209  1.00  0.00     0.000 HD 
ATOM     20  O3*   A A   1      -5.663  11.493  66.134  1.00  0.00    -0.200 OA 
ATOM     21  O2*   A A   1      -6.875   9.276  65.935  1.00  0.00    -0.085 OA 
BRANCH  15  22
ATOM     22  C5*   A A   1      -7.150  12.581  69.179  1.00  0.00     0.020 C  
ATOM     23  O5*   A A   1      -7.475  13.653  68.298  1.00  0.00    -0.103 OA 
ATOM     24  H5*   A A   1      -7.862  14.373  68.781  1.00  0.00     0.000 HD 
ENDBRANCH  15  22
ENDBRANCH   8  13
TORSDOF 2
ENDMDL
MODEL      196
REMARK 921   NORMALIZED FREE ENERGY PREDICTED BY IDOCK:   -3.10 KCAL/MOL
REMARK 922        TOTAL FREE ENERGY PREDICTED BY IDOCK:   -3.93 KCAL/MOL
REMARK 923 INTER-LIGAND FREE ENERGY PREDICTED BY IDOCK:   -3.35 KCAL/MOL
REMARK 924 INTRA-LIGAND FREE ENERGY PREDICTED BY IDOCK:   -0.58 KCAL/MOL
REMARK 927      BINDING AFFINITY PREDICTED BY RF-SCORE:    0.00 PKD
ROOT
ATOM      1  N6    A A   1     -11.351   5.068  65.812  1.00  0.00    -0.812 NA 
ATOM      2  C6    A A   1     -10.269   5.424  66.605  1.00  0.00    -0.243 A  
ATOM      3  H61   A A   1     -11.254   4.750  64.848  1.00  0.00     0.000 HD 
ATOM      4  H62   A A   1     -11.999   5.857  65.809  1.00  0.00     0.000 HD 
ATOM      5  C5    A A   1     -10.404   5.863  67.936  1.00  0.00    -0.211 A  
ATOM      6  N7    A A   1     -11.508   6.061  68.735  1.00  0.00     0.018 NA 
ATOM      7  C8    A A   1     -11.015   6.499  69.874  1.00  0.00    -0.335 A  
ATOM      8  N9    A A   1      -9.641   6.589  69.848  1.00  0.00    -0.154 NA 
ATOM      9  N1    A A   1      -9.032   5.374  66.069  1.00  0.00    -0.143 NA 
ATOM     10  C4    A A   1      -9.233   6.197  68.605  1.00  0.00    -0.123 A  
ATOM     11  C2    A A   1      -7.980   5.732  66.835  1.00  0.00    -0.102 A  
ATOM     12  N3    A A   1      -7.986   6.167  68.112  1.00  0.00    -0.106 NA 
ENDROOT
BRANCH   8  13
ATOM     13  C1*   A A   1      -8.870   7.077  70.960  1.00  0.00    -0.146 C  
ATOM     14  O4*   A A   1      -7.749   6.180  71.130  1.00  0.00    -0.101 OA 
ATOM     15  C4*   A A   1      -8.072   5.249  72.191  1.00  0.00    -0.114 C  
ATOM     16  H2*   A A   1      -9.243   8.393  73.958  1.00  0.00     0.000 HD 
ATOM     17  C3*   A A   1      -9.142   5.903  73.067  1.00  0.00    -0.127 C  
ATOM     18  C2*   A A   1      -9.483   7.220  72.360  1.00  0.00    -0.149 C  
ATOM     19  H3*   A A   1      -9.286   6.540  74.923  1.00  0.00     0.000 HD 
ATOM     20  O3*   A A   1      -8.621   6.134  74.379  1.00  0.00    -0.118 OA 
ATOM     21  O2*   A A   1      -8.864   8.304  73.092  1.00  0.00    -0.234 OA 
BRANCH  15  22
ATOM     22  C5*   A A   1      -8.565   3.925  71.589  1.00  0.00    -0.093 C  
ATOM     23  O5*   A A   1      -8.078   3.772  70.259  1.00  0.00    -0.050 OA 
ATOM     24  H5*   A A   1      -8.383   2.953  69.887  1.00  0.00     0.000 HD 
ENDBRANCH  15  22
ENDBRANCH   8  13
TORSDOF 2
ENDMDL
MODEL      197
REMARK 921   NORMALIZED FREE ENERGY PREDICTED BY IDOCK:   -3.09 KCAL/MOL
REMARK 922        TOTAL FREE ENERGY PREDICTED BY IDOCK:   -3.92 KCAL/MOL
REMARK 923 INTER-LIGAND FREE ENERGY PREDICTED BY IDOCK:   -4.56 KCAL/MOL
REMARK 924 INTRA-LIGAND FREE ENERGY PREDICTED BY IDOCK:    0.64 KCAL/MOL
REMARK 927      BINDING AFFINITY PREDICTED BY RF-SCORE:    0.00 PKD
ROOT
ATOM      1  N6    A A   1     -10.978  11.672  66.911  1.00  0.00    -0.277 NA 
ATOM      2  C6    A A   1     -10.733  12.914  66.344  1.00  0.00    -0.270 A  
ATOM      3  H61   A A   1     -11.643  11.003  66.522  1.00  0.00     0.000 HD 
ATOM      4  H62   A A   1     -11.239  11.828  67.886  1.00  0.00     0.000 HD 
ATOM      5  C5    A A   1      -9.816  13.837  66.882  1.00  0.00    -0.264 A  
ATOM      6  N7    A A   1      -9.009  13.792  67.997  1.00  0.00    -0.179 NA 
ATOM      7  C8    A A   1      -8.387  14.952  68.000  1.00  0.00    -0.147 A  
ATOM      8  N9    A A   1      -8.755  15.743  66.934  1.00  0.00    -0.221 NA 
ATOM      9  N1    A A   1     -11.424  13.268  65.241  1.00  0.00    -0.291 NA 
ATOM     10  C4    A A   1      -9.682  15.047  66.214  1.00  0.00    -0.291 A  
ATOM     11  C2    A A   1     -11.197  14.481  64.695  1.00  0.00    -0.353 A  
ATOM     12  N3    A A   1     -10.351  15.442  65.120  1.00  0.00    -0.386 NA 
ENDROOT
BRANCH   8  13
ATOM     13  C1*   A A   1      -8.242  17.073  66.737  1.00  0.00    -0.238 C  
ATOM     14  O4*   A A   1      -6.854  16.945  66.353  1.00  0.00    -0.232 OA 
ATOM     15  C4*   A A   1      -6.039  17.164  67.530  1.00  0.00    -0.139 C  
ATOM     16  H2*   A A   1      -8.387  20.097  68.040  1.00  0.00     0.000 HD 
ATOM     17  C3*   A A   1      -6.869  17.983  68.520  1.00  0.00    -0.237 C  
ATOM     18  C2*   A A   1      -8.250  18.112  67.867  1.00  0.00    -0.249 C  
ATOM     19  H3*   A A   1      -6.779  19.771  69.333  1.00  0.00     0.000 HD 
ATOM     20  O3*   A A   1      -6.263  19.263  68.718  1.00  0.00    -0.228 OA 
ATOM     21  O2*   A A   1      -8.382  19.453  67.341  1.00  0.00    -0.281 OA 
BRANCH  15  22
ATOM     22  C5*   A A   1      -5.614  15.814  68.127  1.00  0.00    -0.117 C  
ATOM     23  O5*   A A   1      -5.137  14.946  67.104  1.00  0.00    -0.156 OA 
ATOM     24  H5*   A A   1      -4.875  14.111  67.473  1.00  0.00     0.000 HD 
ENDBRANCH  15  22
ENDBRANCH   8  13
TORSDOF 2
ENDMDL
MODEL      198
REMARK 921   NORMALIZED FREE ENERGY PREDICTED BY IDOCK:   -3.06 KCAL/MOL
REMARK 922        TOTAL FREE ENERGY PREDICTED BY IDOCK:   -3.89 KCAL/MOL
REMARK 923 INTER-LIGAND FREE ENERGY PREDICTED BY IDOCK:   -3.58 KCAL/MOL
REMARK 924 INTRA-LIGAND FREE ENERGY PREDICTED BY IDOCK:   -0.31 KCAL/MOL
REMARK 927      BINDING AFFINITY PREDICTED BY RF-SCORE:    0.00 PKD
ROOT
ATOM      1  N6    A A   1      -8.138   6.308  65.301  1.00  0.00    -0.127 NA 
ATOM      2  C6    A A   1      -8.275   5.965  66.639  1.00  0.00    -0.106 A  
ATOM      3  H61   A A   1      -7.276   6.167  64.776  1.00  0.00     0.000 HD 
ATOM      4  H62   A A   1      -8.391   7.293  65.212  1.00  0.00     0.000 HD 
ATOM      5  C5    A A   1      -9.465   6.161  67.365  1.00  0.00    -0.114 A  
ATOM      6  N7    A A   1     -10.683   6.699  67.012  1.00  0.00    -0.338 NA 
ATOM      7  C8    A A   1     -11.402   6.637  68.113  1.00  0.00     0.026 A  
ATOM      8  N9    A A   1     -10.703   6.080  69.161  1.00  0.00    -0.296 NA 
ATOM      9  N1    A A   1      -7.210   5.445  67.284  1.00  0.00    -0.074 NA 
ATOM     10  C4    A A   1      -9.453   5.781  68.701  1.00  0.00    -0.123 A  
ATOM     11  C2    A A   1      -7.337   5.123  68.588  1.00  0.00    -0.066 A  
ATOM     12  N3    A A   1      -8.418   5.266  69.382  1.00  0.00    -0.094 NA 
ENDROOT
BRANCH   8  13
ATOM     13  C1*   A A   1     -11.258   5.937  70.480  1.00  0.00    -0.223 C  
ATOM     14  O4*   A A   1     -12.201   7.017  70.667  1.00  0.00    -0.330 OA 
ATOM     15  C4*   A A   1     -11.543   8.065  71.420  1.00  0.00    -0.267 C  
ATOM     16  H2*   A A   1     -10.383   5.158  73.560  1.00  0.00     0.000 HD 
ATOM     17  C3*   A A   1     -10.388   7.422  72.191  1.00  0.00    -0.199 C  
ATOM     18  C2*   A A   1     -10.370   5.960  71.731  1.00  0.00    -0.216 C  
ATOM     19  H3*   A A   1      -9.911   7.127  74.076  1.00  0.00     0.000 HD 
ATOM     20  O3*   A A   1     -10.628   7.526  73.597  1.00  0.00    -0.348 OA 
ATOM     21  O2*   A A   1     -10.933   5.144  72.785  1.00  0.00    -0.239 OA 
BRANCH  15  22
ATOM     22  C5*   A A   1     -11.045   9.159  70.462  1.00  0.00    -0.260 C  
ATOM     23  O5*   A A   1      -9.628   9.101  70.336  1.00  0.00    -0.190 OA 
ATOM     24  H5*   A A   1      -9.320   9.777  69.745  1.00  0.00     0.000 HD 
ENDBRANCH  15  22
ENDBRANCH   8  13
TORSDOF 2
ENDMDL
MODEL      199
REMARK 921   NORMALIZED FREE ENERGY PREDICTED BY IDOCK:   -3.04 KCAL/MOL
REMARK 922        TOTAL FREE ENERGY PREDICTED BY IDOCK:   -3.86 KCAL/MOL
REMARK 923 INTER-LIGAND FREE ENERGY PREDICTED BY IDOCK:   -3.49 KCAL/MOL
REMARK 924 INTRA-LIGAND FREE ENERGY PREDICTED BY IDOCK:   -0.37 KCAL/MOL
REMARK 927      BINDING AFFINITY PREDICTED BY RF-SCORE:    0.00 PKD
ROOT
ATOM      1  N6    A A   1     -11.428   4.404  64.903  1.00  0.00    -1.068 NA 
ATOM      2  C6    A A   1     -10.389   4.530  65.814  1.00  0.00    -0.258 A  
ATOM      3  H61   A A   1     -11.486   3.642  64.227  1.00  0.00     0.000 HD 
ATOM      4  H62   A A   1     -11.483   5.279  64.381  1.00  0.00     0.000 HD 
ATOM      5  C5    A A   1     -10.309   5.581  66.746  1.00  0.00    -0.269 A  
ATOM      6  N7    A A   1     -11.123   6.666  66.986  1.00  0.00    -0.403 NA 
ATOM      7  C8    A A   1     -10.528   7.314  67.966  1.00  0.00    -0.197 A  
ATOM      8  N9    A A   1      -9.368   6.693  68.372  1.00  0.00    -0.125 NA 
ATOM      9  N1    A A   1      -9.394   3.618  65.790  1.00  0.00    -0.159 NA 
ATOM     10  C4    A A   1      -9.205   5.586  67.590  1.00  0.00    -0.110 A  
ATOM     11  C2    A A   1      -8.377   3.747  66.667  1.00  0.00    -0.104 A  
ATOM     12  N3    A A   1      -8.192   4.706  67.597  1.00  0.00    -0.100 NA 
ENDROOT
BRANCH   8  13
ATOM     13  C1*   A A   1      -8.518   7.226  69.403  1.00  0.00    -0.133 C  
ATOM     14  O4*   A A   1      -8.572   8.667  69.300  1.00  0.00    -0.128 OA 
ATOM     15  C4*   A A   1      -7.403   9.112  68.569  1.00  0.00    -0.077 C  
ATOM     16  H2*   A A   1      -5.617   6.685  70.871  1.00  0.00     0.000 HD 
ATOM     17  C3*   A A   1      -6.335   8.025  68.705  1.00  0.00    -0.052 C  
ATOM     18  C2*   A A   1      -7.022   6.886  69.466  1.00  0.00    -0.063 C  
ATOM     19  H3*   A A   1      -4.549   7.861  69.514  1.00  0.00     0.000 HD 
ATOM     20  O3*   A A   1      -5.213   8.536  69.430  1.00  0.00    -0.030 OA 
ATOM     21  O2*   A A   1      -6.543   6.896  70.831  1.00  0.00    -0.050 OA 
BRANCH  15  22
ATOM     22  C5*   A A   1      -7.772   9.362  67.099  1.00  0.00    -0.091 C  
ATOM     23  O5*   A A   1      -7.275   8.312  66.276  1.00  0.00    -0.072 OA 
ATOM     24  H5*   A A   1      -7.503   8.467  65.367  1.00  0.00     0.000 HD 
ENDBRANCH  15  22
ENDBRANCH   8  13
TORSDOF 2
ENDMDL
MODEL      200
REMARK 921   NORMALIZED FREE ENERGY PREDICTED BY IDOCK:   -3.02 KCAL/MOL
REMARK 922        TOTAL FREE ENERGY PREDICTED BY IDOCK:   -3.84 KCAL/MOL
REMARK 923 INTER-LIGAND FREE ENERGY PREDICTED BY IDOCK:   -3.34 KCAL/MOL
REMARK 924 INTRA-LIGAND FREE ENERGY PREDICTED BY IDOCK:   -0.50 KCAL/MOL
REMARK 927      BINDING AFFINITY PREDICTED BY RF-SCORE:    0.00 PKD
ROOT
ATOM      1  N6    A A   1      -8.835   8.550  73.301  1.00  0.00    -0.316 NA 
ATOM      2  C6    A A   1      -9.511   8.629  72.091  1.00  0.00    -0.303 A  
ATOM      3  H61   A A   1      -9.285   8.711  74.202  1.00  0.00     0.000 HD 
ATOM      4  H62   A A   1      -8.034   9.181  73.244  1.00  0.00     0.000 HD 
ATOM      5  C5    A A   1      -8.889   8.408  70.848  1.00  0.00    -0.159 A  
ATOM      6  N7    A A   1      -7.589   8.105  70.507  1.00  0.00    -0.077 NA 
ATOM      7  C8    A A   1      -7.600   8.037  69.193  1.00  0.00    -0.097 A  
ATOM      8  N9    A A   1      -8.851   8.279  68.670  1.00  0.00    -0.134 NA 
ATOM      9  N1    A A   1     -10.819   8.960  72.103  1.00  0.00    -0.334 NA 
ATOM     10  C4    A A   1      -9.688   8.532  69.719  1.00  0.00    -0.179 A  
ATOM     11  C2    A A   1     -11.474   9.049  70.927  1.00  0.00    -0.291 A  
ATOM     12  N3    A A   1     -10.987   8.863  69.683  1.00  0.00    -0.178 NA 
ENDROOT
BRANCH   8  13
ATOM     13  C1*   A A   1      -9.114   8.298  67.255  1.00  0.00    -0.137 C  
ATOM     14  O4*   A A   1     -10.253   7.439  67.020  1.00  0.00    -0.231 OA 
ATOM     15  C4*   A A   1      -9.763   6.151  66.574  1.00  0.00    -0.145 C  
ATOM     16  H2*   A A   1      -7.549   8.284  64.355  1.00  0.00     0.000 HD 
ATOM     17  C3*   A A   1      -8.368   6.368  65.987  1.00  0.00    -0.132 C  
ATOM     18  C2*   A A   1      -8.058   7.848  66.237  1.00  0.00    -0.110 C  
ATOM     19  H3*   A A   1      -7.510   6.199  64.224  1.00  0.00     0.000 HD 
ATOM     20  O3*   A A   1      -8.377   6.065  64.589  1.00  0.00    -0.131 OA 
ATOM     21  O2*   A A   1      -8.203   8.562  64.986  1.00  0.00    -0.142 OA 
BRANCH  15  22
ATOM     22  C5*   A A   1      -9.734   5.168  67.755  1.00  0.00    -0.148 C  
ATOM     23  O5*   A A   1      -8.400   4.988  68.219  1.00  0.00    -0.095 OA 
ATOM     24  H5*   A A   1      -8.382   4.381  68.948  1.00  0.00     0.000 HD 
ENDBRANCH  15  22
ENDBRANCH   8  13
TORSDOF 2
ENDMDL
MODEL      201
REMARK 921   NORMALIZED FREE ENERGY PREDICTED BY IDOCK:   -3.01 KCAL/MOL
REMARK 922        TOTAL FREE ENERGY PREDICTED BY IDOCK:   -3.83 KCAL/MOL
REMARK 923 INTER-LIGAND FREE ENERGY PREDICTED BY IDOCK:   -3.65 KCAL/MOL
REMARK 924 INTRA-LIGAND FREE ENERGY PREDICTED BY IDOCK:   -0.18 KCAL/MOL
REMARK 927      BINDING AFFINITY PREDICTED BY RF-SCORE:    0.00 PKD
ROOT
ATOM      1  N6    A A   1      -9.976   2.749  65.217  1.00  0.00    -0.325 NA 
ATOM      2  C6    A A   1      -9.199   3.862  65.505  1.00  0.00    -0.151 A  
ATOM      3  H61   A A   1      -9.595   1.893  64.813  1.00  0.00     0.000 HD 
ATOM      4  H62   A A   1     -10.739   3.057  64.614  1.00  0.00     0.000 HD 
ATOM      5  C5    A A   1      -9.726   5.042  66.063  1.00  0.00    -0.180 A  
ATOM      6  N7    A A   1     -11.006   5.401  66.424  1.00  0.00    -0.156 NA 
ATOM      7  C8    A A   1     -10.888   6.635  66.869  1.00  0.00    -0.345 A  
ATOM      8  N9    A A   1      -9.589   7.087  66.815  1.00  0.00    -0.165 NA 
ATOM      9  N1    A A   1      -7.883   3.824  65.213  1.00  0.00    -0.085 NA 
ATOM     10  C4    A A   1      -8.831   6.081  66.287  1.00  0.00    -0.141 A  
ATOM     11  C2    A A   1      -7.129   4.910  65.480  1.00  0.00    -0.067 A  
ATOM     12  N3    A A   1      -7.519   6.089  66.007  1.00  0.00    -0.084 NA 
ENDROOT
BRANCH   8  13
ATOM     13  C1*   A A   1      -9.209   8.417  67.210  1.00  0.00    -0.138 C  
ATOM     14  O4*   A A   1      -8.666   8.327  68.547  1.00  0.00    -0.132 OA 
ATOM     15  C4*   A A   1      -9.706   8.706  69.482  1.00  0.00    -0.179 C  
ATOM     16  H2*   A A   1     -10.241  11.541  67.023  1.00  0.00     0.000 HD 
ATOM     17  C3*   A A   1     -10.714   9.571  68.724  1.00  0.00    -0.190 C  
ATOM     18  C2*   A A   1     -10.232   9.560  67.270  1.00  0.00    -0.234 C  
ATOM     19  H3*   A A   1     -11.345  11.433  68.793  1.00  0.00     0.000 HD 
ATOM     20  O3*   A A   1     -10.718  10.895  69.263  1.00  0.00    -0.214 OA 
ATOM     21  O2*   A A   1      -9.607  10.834  66.987  1.00  0.00    -0.166 OA 
BRANCH  15  22
ATOM     22  C5*   A A   1     -10.365   7.446  70.064  1.00  0.00    -0.219 C  
ATOM     23  O5*   A A   1     -11.758   7.662  70.267  1.00  0.00    -0.475 OA 
ATOM     24  H5*   A A   1     -12.166   6.884  70.627  1.00  0.00     0.000 HD 
ENDBRANCH  15  22
ENDBRANCH   8  13
TORSDOF 2
ENDMDL
MODEL      202
REMARK 921   NORMALIZED FREE ENERGY PREDICTED BY IDOCK:   -2.97 KCAL/MOL
REMARK 922        TOTAL FREE ENERGY PREDICTED BY IDOCK:   -3.79 KCAL/MOL
REMARK 923 INTER-LIGAND FREE ENERGY PREDICTED BY IDOCK:   -3.29 KCAL/MOL
REMARK 924 INTRA-LIGAND FREE ENERGY PREDICTED BY IDOCK:   -0.50 KCAL/MOL
REMARK 927      BINDING AFFINITY PREDICTED BY RF-SCORE:    0.00 PKD
ROOT
ATOM      1  N6    A A   1      -9.659   3.797  69.228  1.00  0.00    -0.178 NA 
ATOM      2  C6    A A   1      -8.934   4.686  68.448  1.00  0.00    -0.113 A  
ATOM      3  H61   A A   1      -9.249   2.963  69.649  1.00  0.00     0.000 HD 
ATOM      4  H62   A A   1     -10.465   3.497  68.679  1.00  0.00     0.000 HD 
ATOM      5  C5    A A   1      -9.499   5.837  67.868  1.00  0.00    -0.110 A  
ATOM      6  N7    A A   1     -10.779   6.346  67.886  1.00  0.00    -0.266 NA 
ATOM      7  C8    A A   1     -10.711   7.435  67.150  1.00  0.00    -0.330 A  
ATOM      8  N9    A A   1      -9.443   7.654  66.660  1.00  0.00    -0.188 NA 
ATOM      9  N1    A A   1      -7.632   4.423  68.210  1.00  0.00    -0.068 NA 
ATOM     10  C4    A A   1      -8.655   6.630  67.101  1.00  0.00    -0.112 A  
ATOM     11  C2    A A   1      -6.928   5.279  67.440  1.00  0.00    -0.065 A  
ATOM     12  N3    A A   1      -7.360   6.404  66.833  1.00  0.00    -0.078 NA 
ENDROOT
BRANCH   8  13
ATOM     13  C1*   A A   1      -9.120   8.760  65.798  1.00  0.00    -0.212 C  
ATOM     14  O4*   A A   1      -8.013   9.466  66.403  1.00  0.00    -0.106 OA 
ATOM     15  C4*   A A   1      -8.543  10.609  67.117  1.00  0.00    -0.127 C  
ATOM     16  H2*   A A   1     -10.562  11.069  63.941  1.00  0.00     0.000 HD 
ATOM     17  C3*   A A   1      -9.902  10.947  66.500  1.00  0.00    -0.204 C  
ATOM     18  C2*   A A   1     -10.153   9.846  65.465  1.00  0.00    -0.227 C  
ATOM     19  H3*   A A   1     -10.691  12.449  65.504  1.00  0.00     0.000 HD 
ATOM     20  O3*   A A   1      -9.848  12.238  65.887  1.00  0.00    -0.247 OA 
ATOM     21  O2*   A A   1      -9.923  10.397  64.147  1.00  0.00    -0.328 OA 
BRANCH  15  22
ATOM     22  C5*   A A   1      -8.667  10.277  68.611  1.00  0.00    -0.133 C  
ATOM     23  O5*   A A   1     -10.022  10.388  69.035  1.00  0.00    -0.193 OA 
ATOM     24  H5*   A A   1     -10.099  10.182  69.959  1.00  0.00     0.000 HD 
ENDBRANCH  15  22
ENDBRANCH   8  13
TORSDOF 2
ENDMDL
MODEL      203
REMARK 921   NORMALIZED FREE ENERGY PREDICTED BY IDOCK:   -2.95 KCAL/MOL
REMARK 922        TOTAL FREE ENERGY PREDICTED BY IDOCK:   -3.77 KCAL/MOL
REMARK 923 INTER-LIGAND FREE ENERGY PREDICTED BY IDOCK:   -3.17 KCAL/MOL
REMARK 924 INTRA-LIGAND FREE ENERGY PREDICTED BY IDOCK:   -0.60 KCAL/MOL
REMARK 927      BINDING AFFINITY PREDICTED BY RF-SCORE:    0.00 PKD
ROOT
ATOM      1  N6    A A   1      -6.634   8.923  72.133  1.00  0.00    -0.251 NA 
ATOM      2  C6    A A   1      -7.174   9.054  70.861  1.00  0.00    -0.103 A  
ATOM      3  H61   A A   1      -6.536   9.706  72.779  1.00  0.00     0.000 HD 
ATOM      4  H62   A A   1      -5.714   8.494  72.030  1.00  0.00     0.000 HD 
ATOM      5  C5    A A   1      -7.309   7.974  69.969  1.00  0.00    -0.062 A  
ATOM      6  N7    A A   1      -6.973   6.643  70.074  1.00  0.00    -0.061 NA 
ATOM      7  C8    A A   1      -7.319   6.123  68.915  1.00  0.00    -0.085 A  
ATOM      8  N9    A A   1      -7.867   7.060  68.067  1.00  0.00    -0.112 NA 
ATOM      9  N1    A A   1      -7.562  10.279  70.448  1.00  0.00    -0.177 NA 
ATOM     10  C4    A A   1      -7.856   8.257  68.723  1.00  0.00    -0.115 A  
ATOM     11  C2    A A   1      -8.074  10.411  69.207  1.00  0.00    -0.157 A  
ATOM     12  N3    A A   1      -8.250   9.456  68.269  1.00  0.00    -0.117 NA 
ENDROOT
BRANCH   8  13
ATOM     13  C1*   A A   1      -8.290   6.746  66.728  1.00  0.00    -0.115 C  
ATOM     14  O4*   A A   1      -9.598   7.334  66.544  1.00  0.00    -0.180 OA 
ATOM     15  C4*   A A   1     -10.591   6.298  66.743  1.00  0.00    -0.265 C  
ATOM     16  H2*   A A   1      -8.255   4.284  64.538  1.00  0.00     0.000 HD 
ATOM     17  C3*   A A   1      -9.908   4.953  66.493  1.00  0.00    -0.207 C  
ATOM     18  C2*   A A   1      -8.434   5.294  66.251  1.00  0.00    -0.115 C  
ATOM     19  H3*   A A   1     -10.068   3.481  65.197  1.00  0.00     0.000 HD 
ATOM     20  O3*   A A   1     -10.492   4.318  65.352  1.00  0.00    -0.244 OA 
ATOM     21  O2*   A A   1      -8.167   5.183  64.834  1.00  0.00    -0.121 OA 
BRANCH  15  22
ATOM     22  C5*   A A   1     -11.158   6.390  68.168  1.00  0.00    -0.263 C  
ATOM     23  O5*   A A   1     -11.009   7.711  68.678  1.00  0.00    -0.421 OA 
ATOM     24  H5*   A A   1     -11.360   7.768  69.559  1.00  0.00     0.000 HD 
ENDBRANCH  15  22
ENDBRANCH   8  13
TORSDOF 2
ENDMDL
MODEL      204
REMARK 921   NORMALIZED FREE ENERGY PREDICTED BY IDOCK:   -2.94 KCAL/MOL
REMARK 922        TOTAL FREE ENERGY PREDICTED BY IDOCK:   -3.76 KCAL/MOL
REMARK 923 INTER-LIGAND FREE ENERGY PREDICTED BY IDOCK:   -4.19 KCAL/MOL
REMARK 924 INTRA-LIGAND FREE ENERGY PREDICTED BY IDOCK:    0.43 KCAL/MOL
REMARK 927      BINDING AFFINITY PREDICTED BY RF-SCORE:    0.00 PKD
ROOT
ATOM      1  N6    A A   1      -5.431  11.997  68.655  1.00  0.00    -0.049 NA 
ATOM      2  C6    A A   1      -6.782  12.279  68.511  1.00  0.00    -0.076 A  
ATOM      3  H61   A A   1      -5.084  11.130  69.065  1.00  0.00     0.000 HD 
ATOM      4  H62   A A   1      -5.012  12.769  69.176  1.00  0.00     0.000 HD 
ATOM      5  C5    A A   1      -7.261  13.476  67.946  1.00  0.00    -0.139 A  
ATOM      6  N7    A A   1      -6.613  14.586  67.451  1.00  0.00    -0.297 NA 
ATOM      7  C8    A A   1      -7.583  15.394  67.077  1.00  0.00    -0.160 A  
ATOM      8  N9    A A   1      -8.829  14.853  67.306  1.00  0.00    -0.189 NA 
ATOM      9  N1    A A   1      -7.681  11.377  68.957  1.00  0.00    -0.103 NA 
ATOM     10  C4    A A   1      -8.640  13.627  67.876  1.00  0.00    -0.181 A  
ATOM     11  C2    A A   1      -8.995  11.656  68.830  1.00  0.00    -0.009 A  
ATOM     12  N3    A A   1      -9.568  12.761  68.311  1.00  0.00    -0.221 NA 
ENDROOT
BRANCH   8  13
ATOM     13  C1*   A A   1     -10.050  15.556  67.017  1.00  0.00    -0.254 C  
ATOM     14  O4*   A A   1     -11.127  14.595  67.092  1.00  0.00    -0.307 OA 
ATOM     15  C4*   A A   1     -11.445  14.167  65.746  1.00  0.00    -0.327 C  
ATOM     16  H2*   A A   1     -11.257  17.884  65.020  1.00  0.00     0.000 HD 
ATOM     17  C3*   A A   1     -10.970  15.263  64.790  1.00  0.00    -0.386 C  
ATOM     18  C2*   A A   1     -10.259  16.286  65.683  1.00  0.00    -0.343 C  
ATOM     19  H3*   A A   1     -11.799  16.525  63.528  1.00  0.00     0.000 HD 
ATOM     20  O3*   A A   1     -12.094  15.844  64.122  1.00  0.00    -0.615 OA 
ATOM     21  O2*   A A   1     -11.128  17.432  65.846  1.00  0.00     0.082 OA 
BRANCH  15  22
ATOM     22  C5*   A A   1     -10.761  12.824  65.451  1.00  0.00    -0.284 C  
ATOM     23  O5*   A A   1     -11.289  11.802  66.292  1.00  0.00    -0.329 OA 
ATOM     24  H5*   A A   1     -10.866  10.972  66.110  1.00  0.00     0.000 HD 
ENDBRANCH  15  22
ENDBRANCH   8  13
TORSDOF 2
ENDMDL
MODEL      205
REMARK 921   NORMALIZED FREE ENERGY PREDICTED BY IDOCK:   -2.93 KCAL/MOL
REMARK 922        TOTAL FREE ENERGY PREDICTED BY IDOCK:   -3.74 KCAL/MOL
REMARK 923 INTER-LIGAND FREE ENERGY PREDICTED BY IDOCK:   -3.40 KCAL/MOL
REMARK 924 INTRA-LIGAND FREE ENERGY PREDICTED BY IDOCK:   -0.34 KCAL/MOL
REMARK 927      BINDING AFFINITY PREDICTED BY RF-SCORE:    0.00 PKD
ROOT
ATOM      1  N6    A A   1      -9.111  11.003  63.395  1.00  0.00    -0.344 NA 
ATOM      2  C6    A A   1      -9.536  10.898  64.712  1.00  0.00    -0.252 A  
ATOM      3  H61   A A   1      -9.165  11.869  62.860  1.00  0.00     0.000 HD 
ATOM      4  H62   A A   1      -9.596  10.282  62.860  1.00  0.00     0.000 HD 
ATOM      5  C5    A A   1      -9.461   9.702  65.451  1.00  0.00    -0.278 A  
ATOM      6  N7    A A   1      -9.017   8.440  65.121  1.00  0.00    -0.033 NA 
ATOM      7  C8    A A   1      -9.209   7.728  66.211  1.00  0.00    -0.166 A  
ATOM      8  N9    A A   1      -9.755   8.475  67.232  1.00  0.00    -0.169 NA 
ATOM      9  N1    A A   1     -10.073  11.984  65.306  1.00  0.00    -0.256 NA 
ATOM     10  C4    A A   1      -9.936   9.742  66.755  1.00  0.00    -0.218 A  
ATOM     11  C2    A A   1     -10.500  11.880  66.581  1.00  0.00    -0.216 A  
ATOM     12  N3    A A   1     -10.481  10.795  67.383  1.00  0.00    -0.211 NA 
ENDROOT
BRANCH   8  13
ATOM     13  C1*   A A   1     -10.094   7.915  68.513  1.00  0.00    -0.197 C  
ATOM     14  O4*   A A   1      -9.464   8.738  69.520  1.00  0.00    -0.162 OA 
ATOM     15  C4*   A A   1      -8.237   8.086  69.932  1.00  0.00    -0.119 C  
ATOM     16  H2*   A A   1     -10.451   5.010  70.028  1.00  0.00     0.000 HD 
ATOM     17  C3*   A A   1      -8.376   6.598  69.610  1.00  0.00    -0.132 C  
ATOM     18  C2*   A A   1      -9.719   6.473  68.883  1.00  0.00    -0.130 C  
ATOM     19  H3*   A A   1      -8.451   4.911  70.620  1.00  0.00     0.000 HD 
ATOM     20  O3*   A A   1      -8.365   5.836  70.820  1.00  0.00    -0.120 OA 
ATOM     21  O2*   A A   1     -10.683   5.903  69.799  1.00  0.00    -0.277 OA 
BRANCH  15  22
ATOM     22  C5*   A A   1      -7.043   8.715  69.200  1.00  0.00    -0.063 C  
ATOM     23  O5*   A A   1      -6.509   9.797  69.957  1.00  0.00    -0.056 OA 
ATOM     24  H5*   A A   1      -5.771  10.186  69.504  1.00  0.00     0.000 HD 
ENDBRANCH  15  22
ENDBRANCH   8  13
TORSDOF 2
ENDMDL
MODEL      206
REMARK 921   NORMALIZED FREE ENERGY PREDICTED BY IDOCK:   -2.93 KCAL/MOL
REMARK 922        TOTAL FREE ENERGY PREDICTED BY IDOCK:   -3.74 KCAL/MOL
REMARK 923 INTER-LIGAND FREE ENERGY PREDICTED BY IDOCK:   -3.25 KCAL/MOL
REMARK 924 INTRA-LIGAND FREE ENERGY PREDICTED BY IDOCK:   -0.49 KCAL/MOL
REMARK 927      BINDING AFFINITY PREDICTED BY RF-SCORE:    0.00 PKD
ROOT
ATOM      1  N6    A A   1      -9.375   3.148  70.942  1.00  0.00    -0.138 NA 
ATOM      2  C6    A A   1      -9.341   3.970  69.824  1.00  0.00    -0.172 A  
ATOM      3  H61   A A   1      -9.081   2.172  70.924  1.00  0.00     0.000 HD 
ATOM      4  H62   A A   1     -10.327   3.174  71.309  1.00  0.00     0.000 HD 
ATOM      5  C5    A A   1      -9.746   5.318  69.848  1.00  0.00    -0.193 A  
ATOM      6  N7    A A   1     -10.250   6.111  70.855  1.00  0.00    -0.195 NA 
ATOM      7  C8    A A   1     -10.465   7.276  70.280  1.00  0.00    -0.219 A  
ATOM      8  N9    A A   1     -10.119   7.270  68.947  1.00  0.00    -0.175 NA 
ATOM      9  N1    A A   1      -8.925   3.448  68.651  1.00  0.00    -0.116 NA 
ATOM     10  C4    A A   1      -9.668   6.016  68.650  1.00  0.00    -0.127 A  
ATOM     11  C2    A A   1      -8.904   4.242  67.560  1.00  0.00    -0.110 A  
ATOM     12  N3    A A   1      -9.268   5.537  67.463  1.00  0.00    -0.110 NA 
ENDROOT
BRANCH   8  13
ATOM     13  C1*   A A   1     -10.295   8.413  68.091  1.00  0.00    -0.204 C  
ATOM     14  O4*   A A   1      -9.029   8.658  67.438  1.00  0.00    -0.132 OA 
ATOM     15  C4*   A A   1      -8.349   9.718  68.155  1.00  0.00    -0.110 C  
ATOM     16  H2*   A A   1     -11.762  11.364  68.022  1.00  0.00     0.000 HD 
ATOM     17  C3*   A A   1      -9.412  10.523  68.903  1.00  0.00    -0.193 C  
ATOM     18  C2*   A A   1     -10.726   9.776  68.651  1.00  0.00    -0.216 C  
ATOM     19  H3*   A A   1     -10.123  12.357  68.852  1.00  0.00     0.000 HD 
ATOM     20  O3*   A A   1      -9.462  11.856  68.388  1.00  0.00    -0.200 OA 
ATOM     21  O2*   A A   1     -11.494  10.520  67.676  1.00  0.00    -0.444 OA 
BRANCH  15  22
ATOM     22  C5*   A A   1      -7.315   9.114  69.117  1.00  0.00    -0.071 C  
ATOM     23  O5*   A A   1      -7.635   9.448  70.464  1.00  0.00    -0.122 OA 
ATOM     24  H5*   A A   1      -6.996   9.074  71.059  1.00  0.00     0.000 HD 
ENDBRANCH  15  22
ENDBRANCH   8  13
TORSDOF 2
ENDMDL
MODEL      207
REMARK 921   NORMALIZED FREE ENERGY PREDICTED BY IDOCK:   -2.92 KCAL/MOL
REMARK 922        TOTAL FREE ENERGY PREDICTED BY IDOCK:   -3.73 KCAL/MOL
REMARK 923 INTER-LIGAND FREE ENERGY PREDICTED BY IDOCK:   -3.48 KCAL/MOL
REMARK 924 INTRA-LIGAND FREE ENERGY PREDICTED BY IDOCK:   -0.25 KCAL/MOL
REMARK 927      BINDING AFFINITY PREDICTED BY RF-SCORE:    0.00 PKD
ROOT
ATOM      1  N6    A A   1      -7.476   4.519  66.876  1.00  0.00    -0.081 NA 
ATOM      2  C6    A A   1      -8.516   5.437  66.910  1.00  0.00    -0.107 A  
ATOM      3  H61   A A   1      -7.614   3.529  66.672  1.00  0.00     0.000 HD 
ATOM      4  H62   A A   1      -6.984   4.581  67.768  1.00  0.00     0.000 HD 
ATOM      5  C5    A A   1      -8.325   6.803  67.191  1.00  0.00    -0.121 A  
ATOM      6  N7    A A   1      -7.198   7.535  67.494  1.00  0.00    -0.088 NA 
ATOM      7  C8    A A   1      -7.640   8.761  67.677  1.00  0.00    -0.097 A  
ATOM      8  N9    A A   1      -9.003   8.854  67.503  1.00  0.00    -0.133 NA 
ATOM      9  N1    A A   1      -9.773   4.998  66.692  1.00  0.00    -0.159 NA 
ATOM     10  C4    A A   1      -9.460   7.603  67.204  1.00  0.00    -0.155 A  
ATOM     11  C2    A A   1     -10.786   5.887  66.739  1.00  0.00    -0.270 A  
ATOM     12  N3    A A   1     -10.726   7.209  66.998  1.00  0.00    -0.354 NA 
ENDROOT
BRANCH   8  13
ATOM     13  C1*   A A   1      -9.730  10.083  67.685  1.00  0.00    -0.158 C  
ATOM     14  O4*   A A   1      -9.176  10.739  68.849  1.00  0.00    -0.175 OA 
ATOM     15  C4*   A A   1     -10.035  10.452  69.979  1.00  0.00     0.039 C  
ATOM     16  H2*   A A   1     -12.786  11.303  67.513  1.00  0.00     0.000 HD 
ATOM     17  C3*   A A   1     -11.417  10.097  69.430  1.00  0.00    -0.142 C  
ATOM     18  C2*   A A   1     -11.249  10.091  67.906  1.00  0.00    -0.098 C  
ATOM     19  H3*   A A   1     -13.230  10.856  69.505  1.00  0.00     0.000 HD 
ATOM     20  O3*   A A   1     -12.372  11.077  69.846  1.00  0.00    -0.322 OA 
ATOM     21  O2*   A A   1     -11.845  11.298  67.377  1.00  0.00    -0.590 OA 
BRANCH  15  22
ATOM     22  C5*   A A   1      -9.440   9.301  70.805  1.00  0.00    -0.271 C  
ATOM     23  O5*   A A   1     -10.421   8.293  71.030  1.00  0.00    -0.198 OA 
ATOM     24  H5*   A A   1     -10.054   7.581  71.540  1.00  0.00     0.000 HD 
ENDBRANCH  15  22
ENDBRANCH   8  13
TORSDOF 2
ENDMDL
MODEL      208
REMARK 921   NORMALIZED FREE ENERGY PREDICTED BY IDOCK:   -2.92 KCAL/MOL
REMARK 922        TOTAL FREE ENERGY PREDICTED BY IDOCK:   -3.73 KCAL/MOL
REMARK 923 INTER-LIGAND FREE ENERGY PREDICTED BY IDOCK:   -3.97 KCAL/MOL
REMARK 924 INTRA-LIGAND FREE ENERGY PREDICTED BY IDOCK:    0.24 KCAL/MOL
REMARK 927      BINDING AFFINITY PREDICTED BY RF-SCORE:    0.00 PKD
ROOT
ATOM      1  N6    A A   1     -10.765   5.719  73.989  1.00  0.00    -0.370 NA 
ATOM      2  C6    A A   1     -10.940   6.279  72.731  1.00  0.00    -0.260 A  
ATOM      3  H61   A A   1     -11.506   5.226  74.488  1.00  0.00     0.000 HD 
ATOM      4  H62   A A   1     -10.422   6.457  74.606  1.00  0.00     0.000 HD 
ATOM      5  C5    A A   1      -9.917   6.959  72.044  1.00  0.00    -0.166 A  
ATOM      6  N7    A A   1      -8.614   7.250  72.382  1.00  0.00    -0.115 NA 
ATOM      7  C8    A A   1      -8.150   7.925  71.352  1.00  0.00    -0.102 A  
ATOM      8  N9    A A   1      -9.095   8.081  70.362  1.00  0.00    -0.150 NA 
ATOM      9  N1    A A   1     -12.154   6.191  72.149  1.00  0.00    -0.289 NA 
ATOM     10  C4    A A   1     -10.240   7.478  70.797  1.00  0.00    -0.194 A  
ATOM     11  C2    A A   1     -12.330   6.746  70.932  1.00  0.00    -0.280 A  
ATOM     12  N3    A A   1     -11.432   7.419  70.183  1.00  0.00    -0.187 NA 
ENDROOT
BRANCH   8  13
ATOM     13  C1*   A A   1      -8.842   8.815  69.151  1.00  0.00    -0.137 C  
ATOM     14  O4*   A A   1      -8.910  10.221  69.481  1.00  0.00    -0.187 OA 
ATOM     15  C4*   A A   1     -10.222  10.709  69.108  1.00  0.00    -0.220 C  
ATOM     16  H2*   A A   1      -9.532   8.762  65.929  1.00  0.00     0.000 HD 
ATOM     17  C3*   A A   1     -10.776   9.769  68.037  1.00  0.00    -0.247 C  
ATOM     18  C2*   A A   1      -9.734   8.652  67.913  1.00  0.00    -0.161 C  
ATOM     19  H3*   A A   1     -11.276   9.894  66.138  1.00  0.00     0.000 HD 
ATOM     20  O3*   A A   1     -10.932  10.477  66.804  1.00  0.00    -0.193 OA 
ATOM     21  O2*   A A   1      -8.980   8.864  66.696  1.00  0.00    -0.127 OA 
BRANCH  15  22
ATOM     22  C5*   A A   1     -11.130  10.755  70.347  1.00  0.00    -0.096 C  
ATOM     23  O5*   A A   1     -11.609  12.078  70.563  1.00  0.00    -0.491 OA 
ATOM     24  H5*   A A   1     -12.171  12.107  71.328  1.00  0.00     0.000 HD 
ENDBRANCH  15  22
ENDBRANCH   8  13
TORSDOF 2
ENDMDL
MODEL      209
REMARK 921   NORMALIZED FREE ENERGY PREDICTED BY IDOCK:   -2.88 KCAL/MOL
REMARK 922        TOTAL FREE ENERGY PREDICTED BY IDOCK:   -3.69 KCAL/MOL
REMARK 923 INTER-LIGAND FREE ENERGY PREDICTED BY IDOCK:   -3.62 KCAL/MOL
REMARK 924 INTRA-LIGAND FREE ENERGY PREDICTED BY IDOCK:   -0.07 KCAL/MOL
REMARK 927      BINDING AFFINITY PREDICTED BY RF-SCORE:    0.00 PKD
ROOT
ATOM      1  N6    A A   1      -5.981   7.776  74.468  1.00  0.00    -0.084 NA 
ATOM      2  C6    A A   1      -6.622   8.330  73.369  1.00  0.00    -0.112 A  
ATOM      3  H61   A A   1      -4.983   7.888  74.645  1.00  0.00     0.000 HD 
ATOM      4  H62   A A   1      -6.179   6.775  74.463  1.00  0.00     0.000 HD 
ATOM      5  C5    A A   1      -7.999   8.175  73.124  1.00  0.00    -0.167 A  
ATOM      6  N7    A A   1      -8.987   7.499  73.806  1.00  0.00    -0.226 NA 
ATOM      7  C8    A A   1     -10.074   7.695  73.090  1.00  0.00    -0.323 A  
ATOM      8  N9    A A   1      -9.833   8.470  71.977  1.00  0.00    -0.284 NA 
ATOM      9  N1    A A   1      -5.888   9.027  72.477  1.00  0.00    -0.162 NA 
ATOM     10  C4    A A   1      -8.502   8.776  71.977  1.00  0.00    -0.039 A  
ATOM     11  C2    A A   1      -6.507   9.555  71.400  1.00  0.00     0.053 A  
ATOM     12  N3    A A   1      -7.810   9.472  71.062  1.00  0.00    -0.310 NA 
ENDROOT
BRANCH   8  13
ATOM     13  C1*   A A   1     -10.853   8.795  71.016  1.00  0.00    -0.260 C  
ATOM     14  O4*   A A   1     -11.242   7.560  70.371  1.00  0.00    -0.266 OA 
ATOM     15  C4*   A A   1     -10.545   7.474  69.105  1.00  0.00    -0.197 C  
ATOM     16  H2*   A A   1     -11.639  11.090  68.786  1.00  0.00     0.000 HD 
ATOM     17  C3*   A A   1     -10.162   8.897  68.692  1.00  0.00    -0.200 C  
ATOM     18  C2*   A A   1     -10.591   9.780  69.869  1.00  0.00    -0.265 C  
ATOM     19  H3*   A A   1     -10.614  10.139  67.235  1.00  0.00     0.000 HD 
ATOM     20  O3*   A A   1     -10.852   9.255  67.491  1.00  0.00    -0.259 OA 
ATOM     21  O2*   A A   1     -11.801  10.480  69.496  1.00  0.00    -0.262 OA 
BRANCH  15  22
ATOM     22  C5*   A A   1      -9.307   6.576  69.253  1.00  0.00    -0.141 C  
ATOM     23  O5*   A A   1      -8.573   6.537  68.033  1.00  0.00    -0.118 OA 
ATOM     24  H5*   A A   1      -7.808   5.982  68.124  1.00  0.00     0.000 HD 
ENDBRANCH  15  22
ENDBRANCH   8  13
TORSDOF 2
ENDMDL
MODEL      210
REMARK 921   NORMALIZED FREE ENERGY PREDICTED BY IDOCK:   -2.88 KCAL/MOL
REMARK 922        TOTAL FREE ENERGY PREDICTED BY IDOCK:   -3.69 KCAL/MOL
REMARK 923 INTER-LIGAND FREE ENERGY PREDICTED BY IDOCK:   -3.32 KCAL/MOL
REMARK 924 INTRA-LIGAND FREE ENERGY PREDICTED BY IDOCK:   -0.36 KCAL/MOL
REMARK 927      BINDING AFFINITY PREDICTED BY RF-SCORE:    0.00 PKD
ROOT
ATOM      1  N6    A A   1     -10.821   5.723  73.986  1.00  0.00    -0.366 NA 
ATOM      2  C6    A A   1     -11.044   6.482  72.846  1.00  0.00    -0.223 A  
ATOM      3  H61   A A   1     -11.530   5.116  74.398  1.00  0.00     0.000 HD 
ATOM      4  H62   A A   1     -10.502   6.359  74.718  1.00  0.00     0.000 HD 
ATOM      5  C5    A A   1     -10.066   7.321  72.278  1.00  0.00    -0.189 A  
ATOM      6  N7    A A   1      -8.772   7.612  72.649  1.00  0.00    -0.125 NA 
ATOM      7  C8    A A   1      -8.358   8.477  71.748  1.00  0.00    -0.163 A  
ATOM      8  N9    A A   1      -9.326   8.755  70.809  1.00  0.00    -0.189 NA 
ATOM      9  N1    A A   1     -12.262   6.438  72.269  1.00  0.00    -0.228 NA 
ATOM     10  C4    A A   1     -10.434   8.031  71.143  1.00  0.00    -0.198 A  
ATOM     11  C2    A A   1     -12.485   7.185  71.168  1.00  0.00    -0.359 A  
ATOM     12  N3    A A   1     -11.632   8.021  70.539  1.00  0.00    -0.196 NA 
ENDROOT
BRANCH   8  13
ATOM     13  C1*   A A   1      -9.129   9.699  69.742  1.00  0.00    -0.215 C  
ATOM     14  O4*   A A   1      -9.421   9.013  68.503  1.00  0.00    -0.143 OA 
ATOM     15  C4*   A A   1      -8.167   8.590  67.914  1.00  0.00    -0.119 C  
ATOM     16  H2*   A A   1      -7.098  12.118  68.800  1.00  0.00     0.000 HD 
ATOM     17  C3*   A A   1      -7.068   9.492  68.477  1.00  0.00    -0.070 C  
ATOM     18  C2*   A A   1      -7.771  10.378  69.511  1.00  0.00    -0.156 C  
ATOM     19  H3*   A A   1      -5.811  10.832  67.773  1.00  0.00     0.000 HD 
ATOM     20  O3*   A A   1      -6.494  10.272  67.424  1.00  0.00    -0.065 OA 
ATOM     21  O2*   A A   1      -7.938  11.698  68.943  1.00  0.00    -0.117 OA 
BRANCH  15  22
ATOM     22  C5*   A A   1      -7.911   7.112  68.243  1.00  0.00    -0.122 C  
ATOM     23  O5*   A A   1      -7.429   6.423  67.093  1.00  0.00    -0.082 OA 
ATOM     24  H5*   A A   1      -7.270   5.509  67.296  1.00  0.00     0.000 HD 
ENDBRANCH  15  22
ENDBRANCH   8  13
TORSDOF 2
ENDMDL
MODEL      211
REMARK 921   NORMALIZED FREE ENERGY PREDICTED BY IDOCK:   -2.87 KCAL/MOL
REMARK 922        TOTAL FREE ENERGY PREDICTED BY IDOCK:   -3.68 KCAL/MOL
REMARK 923 INTER-LIGAND FREE ENERGY PREDICTED BY IDOCK:   -3.25 KCAL/MOL
REMARK 924 INTRA-LIGAND FREE ENERGY PREDICTED BY IDOCK:   -0.44 KCAL/MOL
REMARK 927      BINDING AFFINITY PREDICTED BY RF-SCORE:    0.00 PKD
ROOT
ATOM      1  N6    A A   1     -12.392  10.015  71.915  1.00  0.00    -0.335 NA 
ATOM      2  C6    A A   1     -11.353   9.222  71.449  1.00  0.00    -0.364 A  
ATOM      3  H61   A A   1     -12.680  10.036  72.894  1.00  0.00     0.000 HD 
ATOM      4  H62   A A   1     -13.218   9.792  71.359  1.00  0.00     0.000 HD 
ATOM      5  C5    A A   1     -10.956   9.192  70.099  1.00  0.00    -0.239 A  
ATOM      6  N7    A A   1     -11.432   9.844  68.982  1.00  0.00    -0.025 NA 
ATOM      7  C8    A A   1     -10.678   9.403  67.997  1.00  0.00    -0.190 A  
ATOM      8  N9    A A   1      -9.733   8.499  68.429  1.00  0.00    -0.152 NA 
ATOM      9  N1    A A   1     -10.710   8.420  72.323  1.00  0.00    -0.327 NA 
ATOM     10  C4    A A   1      -9.907   8.342  69.774  1.00  0.00    -0.187 A  
ATOM     11  C2    A A   1      -9.708   7.639  71.869  1.00  0.00    -0.164 A  
ATOM     12  N3    A A   1      -9.244   7.525  70.607  1.00  0.00    -0.159 NA 
ENDROOT
BRANCH   8  13
ATOM     13  C1*   A A   1      -8.814   7.846  67.536  1.00  0.00    -0.128 C  
ATOM     14  O4*   A A   1      -7.490   8.332  67.854  1.00  0.00    -0.094 OA 
ATOM     15  C4*   A A   1      -7.152   9.374  66.906  1.00  0.00    -0.086 C  
ATOM     16  H2*   A A   1      -8.531   6.892  64.394  1.00  0.00     0.000 HD 
ATOM     17  C3*   A A   1      -8.009   9.157  65.658  1.00  0.00    -0.107 C  
ATOM     18  C2*   A A   1      -8.936   7.989  66.012  1.00  0.00    -0.163 C  
ATOM     19  H3*   A A   1      -7.703   8.705  63.768  1.00  0.00     0.000 HD 
ATOM     20  O3*   A A   1      -7.171   8.840  64.544  1.00  0.00    -0.093 OA 
ATOM     21  O2*   A A   1      -8.454   6.804  65.337  1.00  0.00    -0.145 OA 
BRANCH  15  22
ATOM     22  C5*   A A   1      -7.406  10.752  67.536  1.00  0.00    -0.092 C  
ATOM     23  O5*   A A   1      -8.050  11.614  66.602  1.00  0.00    -0.196 OA 
ATOM     24  H5*   A A   1      -8.207  12.465  66.991  1.00  0.00     0.000 HD 
ENDBRANCH  15  22
ENDBRANCH   8  13
TORSDOF 2
ENDMDL
MODEL      212
REMARK 921   NORMALIZED FREE ENERGY PREDICTED BY IDOCK:   -2.85 KCAL/MOL
REMARK 922        TOTAL FREE ENERGY PREDICTED BY IDOCK:   -3.66 KCAL/MOL
REMARK 923 INTER-LIGAND FREE ENERGY PREDICTED BY IDOCK:   -3.51 KCAL/MOL
REMARK 924 INTRA-LIGAND FREE ENERGY PREDICTED BY IDOCK:   -0.15 KCAL/MOL
REMARK 927      BINDING AFFINITY PREDICTED BY RF-SCORE:    0.00 PKD
ROOT
ATOM      1  N6    A A   1      -8.510   5.206  65.257  1.00  0.00    -0.138 NA 
ATOM      2  C6    A A   1      -8.357   5.789  66.507  1.00  0.00    -0.111 A  
ATOM      3  H61   A A   1      -8.235   5.668  64.390  1.00  0.00     0.000 HD 
ATOM      4  H62   A A   1      -9.490   4.939  65.163  1.00  0.00     0.000 HD 
ATOM      5  C5    A A   1      -8.737   5.151  67.703  1.00  0.00    -0.103 A  
ATOM      6  N7    A A   1      -9.314   3.926  67.953  1.00  0.00    -0.165 NA 
ATOM      7  C8    A A   1      -9.453   3.887  69.261  1.00  0.00    -0.186 A  
ATOM      8  N9    A A   1      -8.987   5.033  69.869  1.00  0.00    -0.104 NA 
ATOM      9  N1    A A   1      -7.847   7.036  66.580  1.00  0.00    -0.104 NA 
ATOM     10  C4    A A   1      -8.536   5.860  68.881  1.00  0.00    -0.105 A  
ATOM     11  C2    A A   1      -7.710   7.609  67.794  1.00  0.00    -0.122 A  
ATOM     12  N3    A A   1      -8.038   7.101  69.000  1.00  0.00    -0.120 NA 
ENDROOT
BRANCH   8  13
ATOM     13  C1*   A A   1      -9.061   5.248  71.289  1.00  0.00    -0.144 C  
ATOM     14  O4*   A A   1     -10.431   5.013  71.686  1.00  0.00    -0.207 OA 
ATOM     15  C4*   A A   1     -11.096   6.296  71.793  1.00  0.00    -0.273 C  
ATOM     16  H2*   A A   1      -7.928   7.260  73.641  1.00  0.00     0.000 HD 
ATOM     17  C3*   A A   1     -10.017   7.356  72.019  1.00  0.00    -0.166 C  
ATOM     18  C2*   A A   1      -8.689   6.598  71.917  1.00  0.00    -0.128 C  
ATOM     19  H3*   A A   1      -9.512   8.609  73.449  1.00  0.00     0.000 HD 
ATOM     20  O3*   A A   1     -10.182   7.950  73.309  1.00  0.00    -0.324 OA 
ATOM     21  O2*   A A   1      -8.159   6.424  73.252  1.00  0.00    -0.110 OA 
BRANCH  15  22
ATOM     22  C5*   A A   1     -11.903   6.572  70.516  1.00  0.00    -0.328 C  
ATOM     23  O5*   A A   1     -13.186   7.096  70.842  1.00  0.00    -0.573 OA 
ATOM     24  H5*   A A   1     -13.685   7.266  70.052  1.00  0.00     0.000 HD 
ENDBRANCH  15  22
ENDBRANCH   8  13
TORSDOF 2
ENDMDL
MODEL      213
REMARK 921   NORMALIZED FREE ENERGY PREDICTED BY IDOCK:   -2.81 KCAL/MOL
REMARK 922        TOTAL FREE ENERGY PREDICTED BY IDOCK:   -3.61 KCAL/MOL
REMARK 923 INTER-LIGAND FREE ENERGY PREDICTED BY IDOCK:   -3.51 KCAL/MOL
REMARK 924 INTRA-LIGAND FREE ENERGY PREDICTED BY IDOCK:   -0.10 KCAL/MOL
REMARK 927      BINDING AFFINITY PREDICTED BY RF-SCORE:    0.00 PKD
ROOT
ATOM      1  N6    A A   1     -11.786  11.686  66.664  1.00  0.00    -0.482 NA 
ATOM      2  C6    A A   1     -11.387  10.839  67.688  1.00  0.00    -0.252 A  
ATOM      3  H61   A A   1     -12.622  12.268  66.717  1.00  0.00     0.000 HD 
ATOM      4  H62   A A   1     -11.859  11.125  65.815  1.00  0.00     0.000 HD 
ATOM      5  C5    A A   1     -10.234  10.035  67.614  1.00  0.00    -0.204 A  
ATOM      6  N7    A A   1      -9.292   9.862  66.624  1.00  0.00    -0.153 NA 
ATOM      7  C8    A A   1      -8.458   8.970  67.116  1.00  0.00    -0.113 A  
ATOM      8  N9    A A   1      -8.818   8.562  68.381  1.00  0.00    -0.139 NA 
ATOM      9  N1    A A   1     -12.154  10.758  68.795  1.00  0.00    -0.436 NA 
ATOM     10  C4    A A   1      -9.964   9.227  68.711  1.00  0.00    -0.181 A  
ATOM     11  C2    A A   1     -11.774   9.925  69.786  1.00  0.00    -0.021 A  
ATOM     12  N3    A A   1     -10.699   9.111  69.827  1.00  0.00    -0.228 NA 
ENDROOT
BRANCH   8  13
ATOM     13  C1*   A A   1      -8.087   7.565  69.117  1.00  0.00    -0.123 C  
ATOM     14  O4*   A A   1      -8.127   6.345  68.341  1.00  0.00    -0.111 OA 
ATOM     15  C4*   A A   1      -9.171   5.500  68.883  1.00  0.00    -0.119 C  
ATOM     16  H2*   A A   1      -7.608   6.485  72.194  1.00  0.00     0.000 HD 
ATOM     17  C3*   A A   1      -9.404   5.929  70.332  1.00  0.00    -0.159 C  
ATOM     18  C2*   A A   1      -8.501   7.149  70.535  1.00  0.00    -0.139 C  
ATOM     19  H3*   A A   1      -9.194   5.128  72.117  1.00  0.00     0.000 HD 
ATOM     20  O3*   A A   1      -9.049   4.862  71.217  1.00  0.00    -0.136 OA 
ATOM     21  O2*   A A   1      -7.352   6.742  71.315  1.00  0.00    -0.079 OA 
BRANCH  15  22
ATOM     22  C5*   A A   1     -10.446   5.642  68.038  1.00  0.00    -0.200 C  
ATOM     23  O5*   A A   1     -10.299   4.957  66.798  1.00  0.00    -0.237 OA 
ATOM     24  H5*   A A   1     -11.087   5.045  66.275  1.00  0.00     0.000 HD 
ENDBRANCH  15  22
ENDBRANCH   8  13
TORSDOF 2
ENDMDL
MODEL      214
REMARK 921   NORMALIZED FREE ENERGY PREDICTED BY IDOCK:   -2.81 KCAL/MOL
REMARK 922        TOTAL FREE ENERGY PREDICTED BY IDOCK:   -3.61 KCAL/MOL
REMARK 923 INTER-LIGAND FREE ENERGY PREDICTED BY IDOCK:   -3.59 KCAL/MOL
REMARK 924 INTRA-LIGAND FREE ENERGY PREDICTED BY IDOCK:   -0.02 KCAL/MOL
REMARK 927      BINDING AFFINITY PREDICTED BY RF-SCORE:    0.00 PKD
ROOT
ATOM      1  N6    A A   1     -10.752   5.578  71.671  1.00  0.00    -0.245 NA 
ATOM      2  C6    A A   1     -10.348   6.773  71.092  1.00  0.00    -0.205 A  
ATOM      3  H61   A A   1     -10.638   5.374  72.664  1.00  0.00     0.000 HD 
ATOM      4  H62   A A   1     -10.306   4.822  71.151  1.00  0.00     0.000 HD 
ATOM      5  C5    A A   1     -10.504   7.055  69.722  1.00  0.00    -0.219 A  
ATOM      6  N7    A A   1     -11.021   6.316  68.681  1.00  0.00    -0.331 NA 
ATOM      7  C8    A A   1     -10.885   7.091  67.627  1.00  0.00    -0.242 A  
ATOM      8  N9    A A   1     -10.305   8.301  67.941  1.00  0.00    -0.219 NA 
ATOM      9  N1    A A   1      -9.752   7.699  71.872  1.00  0.00    -0.161 NA 
ATOM     10  C4    A A   1     -10.042   8.288  69.281  1.00  0.00    -0.199 A  
ATOM     11  C2    A A   1      -9.346   8.856  71.309  1.00  0.00    -0.266 A  
ATOM     12  N3    A A   1      -9.440   9.234  70.018  1.00  0.00    -0.195 NA 
ENDROOT
BRANCH   8  13
ATOM     13  C1*   A A   1     -10.015   9.306  66.954  1.00  0.00    -0.233 C  
ATOM     14  O4*   A A   1      -9.535   8.623  65.774  1.00  0.00    -0.206 OA 
ATOM     15  C4*   A A   1      -8.088   8.681  65.775  1.00  0.00    -0.114 C  
ATOM     16  H2*   A A   1      -8.700  12.315  66.668  1.00  0.00     0.000 HD 
ATOM     17  C3*   A A   1      -7.677   9.875  66.639  1.00  0.00    -0.106 C  
ATOM     18  C2*   A A   1      -8.988  10.417  67.217  1.00  0.00    -0.135 C  
ATOM     19  H3*   A A   1      -6.762  11.596  66.366  1.00  0.00     0.000 HD 
ATOM     20  O3*   A A   1      -7.018  10.854  65.830  1.00  0.00    -0.114 OA 
ATOM     21  O2*   A A   1      -9.335  11.627  66.505  1.00  0.00    -0.194 OA 
BRANCH  15  22
ATOM     22  C5*   A A   1      -7.515   7.364  66.320  1.00  0.00    -0.083 C  
ATOM     23  O5*   A A   1      -8.462   6.311  66.171  1.00  0.00    -0.126 OA 
ATOM     24  H5*   A A   1      -8.108   5.497  66.508  1.00  0.00     0.000 HD 
ENDBRANCH  15  22
ENDBRANCH   8  13
TORSDOF 2
ENDMDL
MODEL      215
REMARK 921   NORMALIZED FREE ENERGY PREDICTED BY IDOCK:   -2.80 KCAL/MOL
REMARK 922        TOTAL FREE ENERGY PREDICTED BY IDOCK:   -3.60 KCAL/MOL
REMARK 923 INTER-LIGAND FREE ENERGY PREDICTED BY IDOCK:   -3.55 KCAL/MOL
REMARK 924 INTRA-LIGAND FREE ENERGY PREDICTED BY IDOCK:   -0.05 KCAL/MOL
REMARK 927      BINDING AFFINITY PREDICTED BY RF-SCORE:    0.00 PKD
ROOT
ATOM      1  N6    A A   1     -11.526   4.462  64.805  1.00  0.00    -1.021 NA 
ATOM      2  C6    A A   1     -10.466   4.340  65.693  1.00  0.00    -0.123 A  
ATOM      3  H61   A A   1     -11.632   3.871  63.980  1.00  0.00     0.000 HD 
ATOM      4  H62   A A   1     -11.549   5.433  64.490  1.00  0.00     0.000 HD 
ATOM      5  C5    A A   1     -10.319   5.156  66.830  1.00  0.00    -0.240 A  
ATOM      6  N7    A A   1     -11.077   6.195  67.325  1.00  0.00    -0.310 NA 
ATOM      7  C8    A A   1     -10.435   6.585  68.406  1.00  0.00    -0.218 A  
ATOM      8  N9    A A   1      -9.298   5.842  68.633  1.00  0.00    -0.120 NA 
ATOM      9  N1    A A   1      -9.516   3.416  65.441  1.00  0.00    -0.156 NA 
ATOM     10  C4    A A   1      -9.202   4.928  67.623  1.00  0.00    -0.124 A  
ATOM     11  C2    A A   1      -8.479   3.305  66.296  1.00  0.00    -0.108 A  
ATOM     12  N3    A A   1      -8.232   4.027  67.409  1.00  0.00    -0.098 NA 
ENDROOT
BRANCH   8  13
ATOM     13  C1*   A A   1      -8.406   6.098  69.732  1.00  0.00    -0.124 C  
ATOM     14  O4*   A A   1      -7.827   4.831  70.119  1.00  0.00    -0.057 OA 
ATOM     15  C4*   A A   1      -8.558   4.331  71.264  1.00  0.00    -0.101 C  
ATOM     16  H2*   A A   1      -8.175   7.902  72.481  1.00  0.00     0.000 HD 
ATOM     17  C3*   A A   1      -9.220   5.530  71.947  1.00  0.00    -0.141 C  
ATOM     18  C2*   A A   1      -8.905   6.726  71.042  1.00  0.00    -0.141 C  
ATOM     19  H3*   A A   1      -9.081   6.451  73.680  1.00  0.00     0.000 HD 
ATOM     20  O3*   A A   1      -8.670   5.706  73.256  1.00  0.00    -0.119 OA 
ATOM     21  O2*   A A   1      -7.867   7.513  71.671  1.00  0.00    -0.084 OA 
BRANCH  15  22
ATOM     22  C5*   A A   1      -9.597   3.296  70.806  1.00  0.00    -0.158 C  
ATOM     23  O5*   A A   1      -9.202   2.710  69.570  1.00  0.00    -0.111 OA 
ATOM     24  H5*   A A   1      -9.844   2.070  69.287  1.00  0.00     0.000 HD 
ENDBRANCH  15  22
ENDBRANCH   8  13
TORSDOF 2
ENDMDL
MODEL      216
REMARK 921   NORMALIZED FREE ENERGY PREDICTED BY IDOCK:   -2.77 KCAL/MOL
REMARK 922        TOTAL FREE ENERGY PREDICTED BY IDOCK:   -3.56 KCAL/MOL
REMARK 923 INTER-LIGAND FREE ENERGY PREDICTED BY IDOCK:   -2.95 KCAL/MOL
REMARK 924 INTRA-LIGAND FREE ENERGY PREDICTED BY IDOCK:   -0.62 KCAL/MOL
REMARK 927      BINDING AFFINITY PREDICTED BY RF-SCORE:    0.00 PKD
ROOT
ATOM      1  N6    A A   1      -8.105   3.062  65.139  1.00  0.00    -0.086 NA 
ATOM      2  C6    A A   1      -8.445   4.312  65.635  1.00  0.00    -0.114 A  
ATOM      3  H61   A A   1      -7.651   2.926  64.236  1.00  0.00     0.000 HD 
ATOM      4  H62   A A   1      -8.952   2.492  65.143  1.00  0.00     0.000 HD 
ATOM      5  C5    A A   1      -9.072   4.500  66.881  1.00  0.00    -0.124 A  
ATOM      6  N7    A A   1      -9.496   3.611  67.844  1.00  0.00    -0.186 NA 
ATOM      7  C8    A A   1     -10.028   4.367  68.780  1.00  0.00    -0.011 A  
ATOM      8  N9    A A   1      -9.963   5.707  68.467  1.00  0.00    -0.147 NA 
ATOM      9  N1    A A   1      -8.188   5.399  64.878  1.00  0.00    -0.132 NA 
ATOM     10  C4    A A   1      -9.364   5.808  67.244  1.00  0.00    -0.113 A  
ATOM     11  C2    A A   1      -8.529   6.615  65.353  1.00  0.00    -0.107 A  
ATOM     12  N3    A A   1      -9.132   6.916  66.522  1.00  0.00    -0.152 NA 
ENDROOT
BRANCH   8  13
ATOM     13  C1*   A A   1     -10.510   6.734  69.313  1.00  0.00    -0.215 C  
ATOM     14  O4*   A A   1      -9.409   7.569  69.739  1.00  0.00    -0.151 OA 
ATOM     15  C4*   A A   1      -9.012   7.150  71.067  1.00  0.00    -0.150 C  
ATOM     16  H2*   A A   1     -12.753   7.174  71.687  1.00  0.00     0.000 HD 
ATOM     17  C3*   A A   1     -10.210   6.443  71.704  1.00  0.00    -0.196 C  
ATOM     18  C2*   A A   1     -11.272   6.390  70.601  1.00  0.00    -0.339 C  
ATOM     19  H3*   A A   1     -11.412   6.748  73.231  1.00  0.00     0.000 HD 
ATOM     20  O3*   A A   1     -10.668   7.188  72.835  1.00  0.00    -0.249 OA 
ATOM     21  O2*   A A   1     -12.280   7.387  70.890  1.00  0.00    -0.298 OA 
BRANCH  15  22
ATOM     22  C5*   A A   1      -7.790   6.224  70.977  1.00  0.00    -0.111 C  
ATOM     23  O5*   A A   1      -7.156   6.360  69.709  1.00  0.00    -0.068 OA 
ATOM     24  H5*   A A   1      -6.401   5.788  69.652  1.00  0.00     0.000 HD 
ENDBRANCH  15  22
ENDBRANCH   8  13
TORSDOF 2
ENDMDL
MODEL      217
REMARK 921   NORMALIZED FREE ENERGY PREDICTED BY IDOCK:   -2.74 KCAL/MOL
REMARK 922        TOTAL FREE ENERGY PREDICTED BY IDOCK:   -3.54 KCAL/MOL
REMARK 923 INTER-LIGAND FREE ENERGY PREDICTED BY IDOCK:   -3.16 KCAL/MOL
REMARK 924 INTRA-LIGAND FREE ENERGY PREDICTED BY IDOCK:   -0.38 KCAL/MOL
REMARK 927      BINDING AFFINITY PREDICTED BY RF-SCORE:    0.00 PKD
ROOT
ATOM      1  N6    A A   1      -7.150  10.076  66.311  1.00  0.00    -0.100 NA 
ATOM      2  C6    A A   1      -7.762   9.657  67.484  1.00  0.00    -0.095 A  
ATOM      3  H61   A A   1      -7.321  10.989  65.888  1.00  0.00     0.000 HD 
ATOM      4  H62   A A   1      -7.342   9.370  65.599  1.00  0.00     0.000 HD 
ATOM      5  C5    A A   1      -7.526   8.398  68.066  1.00  0.00    -0.097 A  
ATOM      6  N7    A A   1      -6.735   7.337  67.683  1.00  0.00    -0.062 NA 
ATOM      7  C8    A A   1      -6.935   6.425  68.609  1.00  0.00    -0.080 A  
ATOM      8  N9    A A   1      -7.819   6.850  69.577  1.00  0.00    -0.117 NA 
ATOM      9  N1    A A   1      -8.645  10.484  68.082  1.00  0.00    -0.120 NA 
ATOM     10  C4    A A   1      -8.218   8.110  69.236  1.00  0.00    -0.119 A  
ATOM     11  C2    A A   1      -9.250  10.073  69.216  1.00  0.00    -0.203 A  
ATOM     12  N3    A A   1      -9.107   8.897  69.860  1.00  0.00    -0.154 NA 
ENDROOT
BRANCH   8  13
ATOM     13  C1*   A A   1      -8.230   6.019  70.677  1.00  0.00    -0.120 C  
ATOM     14  O4*   A A   1      -9.020   4.940  70.127  1.00  0.00    -0.102 OA 
ATOM     15  C4*   A A   1     -10.419   5.276  70.293  1.00  0.00    -0.261 C  
ATOM     16  H2*   A A   1      -9.298   6.226  73.788  1.00  0.00     0.000 HD 
ATOM     17  C3*   A A   1     -10.518   6.282  71.441  1.00  0.00    -0.219 C  
ATOM     18  C2*   A A   1      -9.067   6.578  71.836  1.00  0.00    -0.148 C  
ATOM     19  H3*   A A   1     -11.311   6.333  73.241  1.00  0.00     0.000 HD 
ATOM     20  O3*   A A   1     -11.249   5.708  72.527  1.00  0.00    -0.268 OA 
ATOM     21  O2*   A A   1      -8.780   5.880  73.070  1.00  0.00    -0.124 OA 
BRANCH  15  22
ATOM     22  C5*   A A   1     -10.973   5.856  68.982  1.00  0.00    -0.289 C  
ATOM     23  O5*   A A   1     -11.502   7.160  69.200  1.00  0.00    -0.480 OA 
ATOM     24  H5*   A A   1     -11.845   7.518  68.390  1.00  0.00     0.000 HD 
ENDBRANCH  15  22
ENDBRANCH   8  13
TORSDOF 2
ENDMDL
MODEL      218
REMARK 921   NORMALIZED FREE ENERGY PREDICTED BY IDOCK:   -2.73 KCAL/MOL
REMARK 922        TOTAL FREE ENERGY PREDICTED BY IDOCK:   -3.53 KCAL/MOL
REMARK 923 INTER-LIGAND FREE ENERGY PREDICTED BY IDOCK:   -3.22 KCAL/MOL
REMARK 924 INTRA-LIGAND FREE ENERGY PREDICTED BY IDOCK:   -0.30 KCAL/MOL
REMARK 927      BINDING AFFINITY PREDICTED BY RF-SCORE:    0.00 PKD
ROOT
ATOM      1  N6    A A   1     -10.423   9.788  70.703  1.00  0.00    -0.302 NA 
ATOM      2  C6    A A   1     -10.317   8.417  70.516  1.00  0.00    -0.199 A  
ATOM      3  H61   A A   1     -11.178  10.220  71.236  1.00  0.00     0.000 HD 
ATOM      4  H62   A A   1     -10.412  10.223  69.780  1.00  0.00     0.000 HD 
ATOM      5  C5    A A   1      -9.275   7.820  69.781  1.00  0.00    -0.150 A  
ATOM      6  N7    A A   1      -8.201   8.353  69.103  1.00  0.00    -0.119 NA 
ATOM      7  C8    A A   1      -7.583   7.310  68.593  1.00  0.00    -0.114 A  
ATOM      8  N9    A A   1      -8.207   6.125  68.915  1.00  0.00    -0.111 NA 
ATOM      9  N1    A A   1     -11.270   7.618  71.039  1.00  0.00    -0.262 NA 
ATOM     10  C4    A A   1      -9.303   6.436  69.667  1.00  0.00    -0.145 A  
ATOM     11  C2    A A   1     -11.176   6.286  70.847  1.00  0.00    -0.324 A  
ATOM     12  N3    A A   1     -10.232   5.605  70.164  1.00  0.00    -0.228 NA 
ENDROOT
BRANCH   8  13
ATOM     13  C1*   A A   1      -7.744   4.847  68.445  1.00  0.00    -0.082 C  
ATOM     14  O4*   A A   1      -7.594   4.946  67.011  1.00  0.00    -0.086 OA 
ATOM     15  C4*   A A   1      -8.772   4.373  66.393  1.00  0.00    -0.112 C  
ATOM     16  H2*   A A   1      -8.195   1.619  68.934  1.00  0.00     0.000 HD 
ATOM     17  C3*   A A   1      -9.399   3.409  67.402  1.00  0.00    -0.203 C  
ATOM     18  C2*   A A   1      -8.558   3.565  68.674  1.00  0.00    -0.091 C  
ATOM     19  H3*   A A   1      -9.730   1.474  67.524  1.00  0.00     0.000 HD 
ATOM     20  O3*   A A   1      -9.340   2.073  66.897  1.00  0.00    -0.061 OA 
ATOM     21  O2*   A A   1      -7.692   2.412  68.792  1.00  0.00    -0.050 OA 
BRANCH  15  22
ATOM     22  C5*   A A   1      -9.748   5.491  65.997  1.00  0.00    -0.081 C  
ATOM     23  O5*   A A   1     -11.032   5.256  66.566  1.00  0.00    -0.506 OA 
ATOM     24  H5*   A A   1     -11.635   5.947  66.321  1.00  0.00     0.000 HD 
ENDBRANCH  15  22
ENDBRANCH   8  13
TORSDOF 2
ENDMDL
MODEL      219
REMARK 921   NORMALIZED FREE ENERGY PREDICTED BY IDOCK:   -2.73 KCAL/MOL
REMARK 922        TOTAL FREE ENERGY PREDICTED BY IDOCK:   -3.52 KCAL/MOL
REMARK 923 INTER-LIGAND FREE ENERGY PREDICTED BY IDOCK:   -3.30 KCAL/MOL
REMARK 924 INTRA-LIGAND FREE ENERGY PREDICTED BY IDOCK:   -0.22 KCAL/MOL
REMARK 927      BINDING AFFINITY PREDICTED BY RF-SCORE:    0.00 PKD
ROOT
ATOM      1  N6    A A   1     -10.351  12.244  68.251  1.00  0.00    -0.216 NA 
ATOM      2  C6    A A   1     -10.537  11.154  69.089  1.00  0.00    -0.204 A  
ATOM      3  H61   A A   1     -11.117  12.839  67.934  1.00  0.00     0.000 HD 
ATOM      4  H62   A A   1      -9.861  11.910  67.421  1.00  0.00     0.000 HD 
ATOM      5  C5    A A   1      -9.481  10.332  69.527  1.00  0.00    -0.185 A  
ATOM      6  N7    A A   1      -8.128  10.354  69.270  1.00  0.00    -0.149 NA 
ATOM      7  C8    A A   1      -7.649   9.327  69.939  1.00  0.00    -0.093 A  
ATOM      8  N9    A A   1      -8.633   8.644  70.619  1.00  0.00    -0.148 NA 
ATOM      9  N1    A A   1     -11.791  10.848  69.482  1.00  0.00    -0.312 NA 
ATOM     10  C4    A A   1      -9.818   9.269  70.354  1.00  0.00    -0.241 A  
ATOM     11  C2    A A   1     -11.975   9.780  70.287  1.00  0.00    -0.090 A  
ATOM     12  N3    A A   1     -11.048   8.925  70.765  1.00  0.00    -0.251 NA 
ENDROOT
BRANCH   8  13
ATOM     13  C1*   A A   1      -8.368   7.461  71.394  1.00  0.00    -0.112 C  
ATOM     14  O4*   A A   1      -7.970   6.424  70.470  1.00  0.00    -0.108 OA 
ATOM     15  C4*   A A   1      -9.124   5.588  70.205  1.00  0.00    -0.138 C  
ATOM     16  H2*   A A   1      -9.535   5.768  73.970  1.00  0.00     0.000 HD 
ATOM     17  C3*   A A   1     -10.087   5.748  71.382  1.00  0.00    -0.198 C  
ATOM     18  C2*   A A   1      -9.450   6.819  72.274  1.00  0.00    -0.141 C  
ATOM     19  H3*   A A   1     -10.818   4.602  72.805  1.00  0.00     0.000 HD 
ATOM     20  O3*   A A   1     -10.219   4.503  72.073  1.00  0.00    -0.192 OA 
ATOM     21  O2*   A A   1      -8.865   6.165  73.425  1.00  0.00    -0.126 OA 
BRANCH  15  22
ATOM     22  C5*   A A   1      -9.775   6.007  68.879  1.00  0.00    -0.132 C  
ATOM     23  O5*   A A   1     -11.029   6.639  69.119  1.00  0.00    -0.263 OA 
ATOM     24  H5*   A A   1     -11.432   6.897  68.299  1.00  0.00     0.000 HD 
ENDBRANCH  15  22
ENDBRANCH   8  13
TORSDOF 2
ENDMDL
MODEL      220
REMARK 921   NORMALIZED FREE ENERGY PREDICTED BY IDOCK:   -2.69 KCAL/MOL
REMARK 922        TOTAL FREE ENERGY PREDICTED BY IDOCK:   -3.48 KCAL/MOL
REMARK 923 INTER-LIGAND FREE ENERGY PREDICTED BY IDOCK:   -3.29 KCAL/MOL
REMARK 924 INTRA-LIGAND FREE ENERGY PREDICTED BY IDOCK:   -0.19 KCAL/MOL
REMARK 927      BINDING AFFINITY PREDICTED BY RF-SCORE:    0.00 PKD
ROOT
ATOM      1  N6    A A   1     -12.114   7.339  71.771  1.00  0.00    -0.305 NA 
ATOM      2  C6    A A   1     -11.641   8.481  71.138  1.00  0.00    -0.281 A  
ATOM      3  H61   A A   1     -12.824   7.362  72.503  1.00  0.00     0.000 HD 
ATOM      4  H62   A A   1     -11.305   6.843  72.147  1.00  0.00     0.000 HD 
ATOM      5  C5    A A   1     -10.661   8.449  70.128  1.00  0.00    -0.236 A  
ATOM      6  N7    A A   1      -9.958   7.411  69.557  1.00  0.00    -0.176 NA 
ATOM      7  C8    A A   1      -9.166   7.992  68.681  1.00  0.00    -0.143 A  
ATOM      8  N9    A A   1      -9.329   9.360  68.659  1.00  0.00    -0.141 NA 
ATOM      9  N1    A A   1     -12.123   9.680  71.525  1.00  0.00    -0.376 NA 
ATOM     10  C4    A A   1     -10.276   9.671  69.592  1.00  0.00    -0.222 A  
ATOM     11  C2    A A   1     -11.655  10.791  70.920  1.00  0.00    -0.137 A  
ATOM     12  N3    A A   1     -10.723  10.884  69.949  1.00  0.00    -0.156 NA 
ENDROOT
BRANCH   8  13
ATOM     13  C1*   A A   1      -8.551  10.224  67.812  1.00  0.00    -0.118 C  
ATOM     14  O4*   A A   1      -7.172   9.805  67.924  1.00  0.00    -0.083 OA 
ATOM     15  C4*   A A   1      -6.508  10.683  68.865  1.00  0.00    -0.049 C  
ATOM     16  H2*   A A   1      -8.308  13.383  66.903  1.00  0.00     0.000 HD 
ATOM     17  C3*   A A   1      -7.303  11.989  68.916  1.00  0.00    -0.067 C  
ATOM     18  C2*   A A   1      -8.525  11.744  68.024  1.00  0.00    -0.157 C  
ATOM     19  H3*   A A   1      -6.994  13.876  68.451  1.00  0.00     0.000 HD 
ATOM     20  O3*   A A   1      -6.501  13.064  68.419  1.00  0.00    -0.071 OA 
ATOM     21  O2*   A A   1      -8.323  12.441  66.772  1.00  0.00    -0.155 OA 
BRANCH  15  22
ATOM     22  C5*   A A   1      -6.439  10.009  70.244  1.00  0.00    -0.117 C  
ATOM     23  O5*   A A   1      -6.166  10.974  71.255  1.00  0.00    -0.301 OA 
ATOM     24  H5*   A A   1      -6.122  10.558  72.108  1.00  0.00     0.000 HD 
ENDBRANCH  15  22
ENDBRANCH   8  13
TORSDOF 2
ENDMDL
MODEL      221
REMARK 921   NORMALIZED FREE ENERGY PREDICTED BY IDOCK:   -2.67 KCAL/MOL
REMARK 922        TOTAL FREE ENERGY PREDICTED BY IDOCK:   -3.46 KCAL/MOL
REMARK 923 INTER-LIGAND FREE ENERGY PREDICTED BY IDOCK:   -3.04 KCAL/MOL
REMARK 924 INTRA-LIGAND FREE ENERGY PREDICTED BY IDOCK:   -0.42 KCAL/MOL
REMARK 927      BINDING AFFINITY PREDICTED BY RF-SCORE:    0.00 PKD
ROOT
ATOM      1  N6    A A   1      -5.801   6.996  65.349  1.00  0.00    -0.035 NA 
ATOM      2  C6    A A   1      -6.181   8.055  66.162  1.00  0.00    -0.045 A  
ATOM      3  H61   A A   1      -4.850   6.629  65.321  1.00  0.00     0.000 HD 
ATOM      4  H62   A A   1      -6.064   7.236  64.393  1.00  0.00     0.000 HD 
ATOM      5  C5    A A   1      -7.493   8.562  66.200  1.00  0.00    -0.089 A  
ATOM      6  N7    A A   1      -8.638   8.213  65.518  1.00  0.00    -0.162 NA 
ATOM      7  C8    A A   1      -9.551   9.053  65.956  1.00  0.00    -0.272 A  
ATOM      8  N9    A A   1      -9.048   9.927  66.894  1.00  0.00    -0.141 NA 
ATOM      9  N1    A A   1      -5.243   8.647  66.931  1.00  0.00    -0.035 NA 
ATOM     10  C4    A A   1      -7.725   9.634  67.053  1.00  0.00    -0.095 A  
ATOM     11  C2    A A   1      -5.607   9.685  67.711  1.00  0.00    -0.040 A  
ATOM     12  N3    A A   1      -6.824  10.255  67.829  1.00  0.00    -0.074 NA 
ENDROOT
BRANCH   8  13
ATOM     13  C1*   A A   1      -9.841  10.966  67.496  1.00  0.00    -0.168 C  
ATOM     14  O4*   A A   1      -9.337  11.167  68.836  1.00  0.00    -0.175 OA 
ATOM     15  C4*   A A   1     -10.192  10.442  69.754  1.00  0.00    -0.184 C  
ATOM     16  H2*   A A   1     -12.956  12.024  67.697  1.00  0.00     0.000 HD 
ATOM     17  C3*   A A   1     -11.547  10.255  69.070  1.00  0.00    -0.081 C  
ATOM     18  C2*   A A   1     -11.361  10.823  67.659  1.00  0.00    -0.252 C  
ATOM     19  H3*   A A   1     -13.398  10.849  69.367  1.00  0.00     0.000 HD 
ATOM     20  O3*   A A   1     -12.556  10.966  69.791  1.00  0.00    -0.270 OA 
ATOM     21  O2*   A A   1     -12.015  12.112  67.597  1.00  0.00    -0.529 OA 
BRANCH  15  22
ATOM     22  C5*   A A   1      -9.546   9.095  70.111  1.00  0.00    -0.206 C  
ATOM     23  O5*   A A   1     -10.048   8.064  69.267  1.00  0.00    -0.188 OA 
ATOM     24  H5*   A A   1      -9.650   7.231  69.488  1.00  0.00     0.000 HD 
ENDBRANCH  15  22
ENDBRANCH   8  13
TORSDOF 2
ENDMDL
MODEL      222
REMARK 921   NORMALIZED FREE ENERGY PREDICTED BY IDOCK:   -2.65 KCAL/MOL
REMARK 922        TOTAL FREE ENERGY PREDICTED BY IDOCK:   -3.43 KCAL/MOL
REMARK 923 INTER-LIGAND FREE ENERGY PREDICTED BY IDOCK:   -3.07 KCAL/MOL
REMARK 924 INTRA-LIGAND FREE ENERGY PREDICTED BY IDOCK:   -0.36 KCAL/MOL
REMARK 927      BINDING AFFINITY PREDICTED BY RF-SCORE:    0.00 PKD
ROOT
ATOM      1  N6    A A   1      -8.131  11.115  69.573  1.00  0.00    -0.353 NA 
ATOM      2  C6    A A   1      -8.710   9.863  69.418  1.00  0.00    -0.179 A  
ATOM      3  H61   A A   1      -8.614  11.902  70.006  1.00  0.00     0.000 HD 
ATOM      4  H62   A A   1      -7.816  11.421  68.651  1.00  0.00     0.000 HD 
ATOM      5  C5    A A   1      -8.044   8.778  68.819  1.00  0.00    -0.115 A  
ATOM      6  N7    A A   1      -6.789   8.657  68.265  1.00  0.00    -0.065 NA 
ATOM      7  C8    A A   1      -6.732   7.411  67.846  1.00  0.00    -0.062 A  
ATOM      8  N9    A A   1      -7.894   6.719  68.108  1.00  0.00    -0.112 NA 
ATOM      9  N1    A A   1      -9.981   9.684  69.835  1.00  0.00    -0.225 NA 
ATOM     10  C4    A A   1      -8.752   7.587  68.721  1.00  0.00    -0.128 A  
ATOM     11  C2    A A   1     -10.550   8.471  69.673  1.00  0.00    -0.220 A  
ATOM     12  N3    A A   1     -10.015   7.365  69.116  1.00  0.00    -0.169 NA 
ENDROOT
BRANCH   8  13
ATOM     13  C1*   A A   1      -8.093   5.350  67.713  1.00  0.00    -0.100 C  
ATOM     14  O4*   A A   1      -7.293   5.125  66.530  1.00  0.00    -0.082 OA 
ATOM     15  C4*   A A   1      -8.157   5.235  65.373  1.00  0.00    -0.121 C  
ATOM     16  H2*   A A   1     -10.460   3.071  67.467  1.00  0.00     0.000 HD 
ATOM     17  C3*   A A   1      -9.589   4.967  65.841  1.00  0.00    -0.175 C  
ATOM     18  C2*   A A   1      -9.487   4.811  67.362  1.00  0.00    -0.146 C  
ATOM     19  H3*   A A   1     -10.973   3.608  65.515  1.00  0.00     0.000 HD 
ATOM     20  O3*   A A   1     -10.084   3.775  65.225  1.00  0.00    -0.147 OA 
ATOM     21  O2*   A A   1      -9.598   3.405  67.684  1.00  0.00    -0.205 OA 
BRANCH  15  22
ATOM     22  C5*   A A   1      -8.017   6.633  64.751  1.00  0.00    -0.118 C  
ATOM     23  O5*   A A   1      -9.079   7.478  65.184  1.00  0.00    -0.347 OA 
ATOM     24  H5*   A A   1      -8.992   8.342  64.799  1.00  0.00     0.000 HD 
ENDBRANCH  15  22
ENDBRANCH   8  13
TORSDOF 2
ENDMDL
MODEL      223
REMARK 921   NORMALIZED FREE ENERGY PREDICTED BY IDOCK:   -2.63 KCAL/MOL
REMARK 922        TOTAL FREE ENERGY PREDICTED BY IDOCK:   -3.41 KCAL/MOL
REMARK 923 INTER-LIGAND FREE ENERGY PREDICTED BY IDOCK:   -3.02 KCAL/MOL
REMARK 924 INTRA-LIGAND FREE ENERGY PREDICTED BY IDOCK:   -0.39 KCAL/MOL
REMARK 927      BINDING AFFINITY PREDICTED BY RF-SCORE:    0.00 PKD
ROOT
ATOM      1  N6    A A   1      -9.028   6.353  65.241  1.00  0.00    -0.364 NA 
ATOM      2  C6    A A   1      -9.316   5.761  66.463  1.00  0.00    -0.152 A  
ATOM      3  H61   A A   1      -8.828   5.817  64.397  1.00  0.00     0.000 HD 
ATOM      4  H62   A A   1      -8.246   6.992  65.389  1.00  0.00     0.000 HD 
ATOM      5  C5    A A   1      -9.592   6.501  67.629  1.00  0.00    -0.122 A  
ATOM      6  N7    A A   1      -9.633   7.856  67.873  1.00  0.00    -0.145 NA 
ATOM      7  C8    A A   1      -9.923   7.950  69.154  1.00  0.00    -0.184 A  
ATOM      8  N9    A A   1     -10.075   6.716  69.746  1.00  0.00    -0.179 NA 
ATOM      9  N1    A A   1      -9.305   4.415  66.547  1.00  0.00    -0.146 NA 
ATOM     10  C4    A A   1      -9.852   5.774  68.783  1.00  0.00    -0.139 A  
ATOM     11  C2    A A   1      -9.572   3.838  67.737  1.00  0.00    -0.138 A  
ATOM     12  N3    A A   1      -9.846   4.439  68.914  1.00  0.00    -0.135 NA 
ENDROOT
BRANCH   8  13
ATOM     13  C1*   A A   1     -10.358   6.553  71.147  1.00  0.00    -0.205 C  
ATOM     14  O4*   A A   1      -9.355   7.298  71.876  1.00  0.00    -0.138 OA 
ATOM     15  C4*   A A   1      -8.334   6.370  72.315  1.00  0.00    -0.107 C  
ATOM     16  H2*   A A   1     -11.328   4.272  73.319  1.00  0.00     0.000 HD 
ATOM     17  C3*   A A   1      -8.965   4.977  72.359  1.00  0.00    -0.130 C  
ATOM     18  C2*   A A   1     -10.382   5.166  71.805  1.00  0.00    -0.209 C  
ATOM     19  H3*   A A   1      -9.383   3.634  73.735  1.00  0.00     0.000 HD 
ATOM     20  O3*   A A   1      -8.991   4.499  73.707  1.00  0.00    -0.104 OA 
ATOM     21  O2*   A A   1     -11.313   5.131  72.912  1.00  0.00    -0.289 OA 
BRANCH  15  22
ATOM     22  C5*   A A   1      -7.138   6.419  71.352  1.00  0.00    -0.077 C  
ATOM     23  O5*   A A   1      -7.042   5.203  70.617  1.00  0.00    -0.053 OA 
ATOM     24  H5*   A A   1      -6.303   5.233  70.021  1.00  0.00     0.000 HD 
ENDBRANCH  15  22
ENDBRANCH   8  13
TORSDOF 2
ENDMDL
MODEL      224
REMARK 921   NORMALIZED FREE ENERGY PREDICTED BY IDOCK:   -2.53 KCAL/MOL
REMARK 922        TOTAL FREE ENERGY PREDICTED BY IDOCK:   -3.30 KCAL/MOL
REMARK 923 INTER-LIGAND FREE ENERGY PREDICTED BY IDOCK:   -3.03 KCAL/MOL
REMARK 924 INTRA-LIGAND FREE ENERGY PREDICTED BY IDOCK:   -0.27 KCAL/MOL
REMARK 927      BINDING AFFINITY PREDICTED BY RF-SCORE:    0.00 PKD
ROOT
ATOM      1  N6    A A   1      -6.342   2.638  70.759  1.00  0.00    -0.023 NA 
ATOM      2  C6    A A   1      -7.576   3.268  70.840  1.00  0.00    -0.040 A  
ATOM      3  H61   A A   1      -6.143   1.744  71.207  1.00  0.00     0.000 HD 
ATOM      4  H62   A A   1      -5.638   3.304  71.081  1.00  0.00     0.000 HD 
ATOM      5  C5    A A   1      -7.850   4.503  70.222  1.00  0.00    -0.060 A  
ATOM      6  N7    A A   1      -7.071   5.350  69.467  1.00  0.00    -0.062 NA 
ATOM      7  C8    A A   1      -7.864   6.361  69.181  1.00  0.00    -0.109 A  
ATOM      8  N9    A A   1      -9.123   6.202  69.716  1.00  0.00    -0.141 NA 
ATOM      9  N1    A A   1      -8.551   2.686  71.568  1.00  0.00    -0.063 NA 
ATOM     10  C4    A A   1      -9.127   5.020  70.399  1.00  0.00    -0.129 A  
ATOM     11  C2    A A   1      -9.747   3.303  71.660  1.00  0.00    -0.164 A  
ATOM     12  N3    A A   1     -10.124   4.480  71.117  1.00  0.00    -0.178 NA 
ENDROOT
BRANCH   8  13
ATOM     13  C1*   A A   1     -10.160   7.189  69.575  1.00  0.00    -0.179 C  
ATOM     14  O4*   A A   1     -11.094   6.692  68.590  1.00  0.00    -0.257 OA 
ATOM     15  C4*   A A   1     -10.786   7.317  67.321  1.00  0.00    -0.284 C  
ATOM     16  H2*   A A   1     -10.592  10.454  69.442  1.00  0.00     0.000 HD 
ATOM     17  C3*   A A   1     -10.039   8.619  67.618  1.00  0.00    -0.213 C  
ATOM     18  C2*   A A   1      -9.846   8.627  69.138  1.00  0.00    -0.185 C  
ATOM     19  H3*   A A   1     -10.356  10.544  67.368  1.00  0.00     0.000 HD 
ATOM     20  O3*   A A   1     -10.820   9.736  67.184  1.00  0.00    -0.235 OA 
ATOM     21  O2*   A A   1     -10.787   9.564  69.712  1.00  0.00    -0.231 OA 
BRANCH  15  22
ATOM     22  C5*   A A   1      -9.943   6.363  66.462  1.00  0.00    -0.103 C  
ATOM     23  O5*   A A   1      -9.158   7.098  65.527  1.00  0.00    -0.377 OA 
ATOM     24  H5*   A A   1      -8.637   6.508  64.996  1.00  0.00     0.000 HD 
ENDBRANCH  15  22
ENDBRANCH   8  13
TORSDOF 2
ENDMDL
MODEL      225
REMARK 921   NORMALIZED FREE ENERGY PREDICTED BY IDOCK:   -2.50 KCAL/MOL
REMARK 922        TOTAL FREE ENERGY PREDICTED BY IDOCK:   -3.26 KCAL/MOL
REMARK 923 INTER-LIGAND FREE ENERGY PREDICTED BY IDOCK:   -4.30 KCAL/MOL
REMARK 924 INTRA-LIGAND FREE ENERGY PREDICTED BY IDOCK:    1.04 KCAL/MOL
REMARK 927      BINDING AFFINITY PREDICTED BY RF-SCORE:    0.00 PKD
ROOT
ATOM      1  N6    A A   1     -11.681  13.056  70.118  1.00  0.00    -0.532 NA 
ATOM      2  C6    A A   1     -11.498  13.599  68.854  1.00  0.00    -0.303 A  
ATOM      3  H61   A A   1     -12.071  12.126  70.273  1.00  0.00     0.000 HD 
ATOM      4  H62   A A   1     -12.245  13.716  70.654  1.00  0.00     0.000 HD 
ATOM      5  C5    A A   1     -10.961  14.882  68.640  1.00  0.00    -0.257 A  
ATOM      6  N7    A A   1     -10.530  15.860  69.510  1.00  0.00    -0.258 NA 
ATOM      7  C8    A A   1     -10.151  16.850  68.731  1.00  0.00    -0.295 A  
ATOM      8  N9    A A   1     -10.315  16.555  67.395  1.00  0.00    -0.286 NA 
ATOM      9  N1    A A   1     -11.878  12.876  67.779  1.00  0.00    -0.354 NA 
ATOM     10  C4    A A   1     -10.846  15.300  67.320  1.00  0.00    -0.318 A  
ATOM     11  C2    A A   1     -11.713  13.408  66.550  1.00  0.00    -0.373 A  
ATOM     12  N3    A A   1     -11.215  14.619  66.224  1.00  0.00    -0.337 NA 
ENDROOT
BRANCH   8  13
ATOM     13  C1*   A A   1     -10.008  17.491  66.347  1.00  0.00    -0.325 C  
ATOM     14  O4*   A A   1      -8.759  18.131  66.696  1.00  0.00    -0.251 OA 
ATOM     15  C4*   A A   1      -9.061  19.413  67.297  1.00  0.00    -0.298 C  
ATOM     16  H2*   A A   1     -11.457  19.695  64.371  1.00  0.00     0.000 HD 
ATOM     17  C3*   A A   1     -10.452  19.831  66.816  1.00  0.00    -0.489 C  
ATOM     18  C2*   A A   1     -10.960  18.642  65.993  1.00  0.00     0.153 C  
ATOM     19  H3*   A A   1     -11.218  21.273  65.719  1.00  0.00     0.000 HD 
ATOM     20  O3*   A A   1     -10.354  21.014  66.018  1.00  0.00     0.732 OA 
ATOM     21  O2*   A A   1     -10.866  18.983  64.591  1.00  0.00     0.160 OA 
BRANCH  15  22
ATOM     22  C5*   A A   1      -9.003  19.297  68.827  1.00  0.00    -0.355 C  
ATOM     23  O5*   A A   1      -7.693  19.599  69.299  1.00  0.00    -0.312 OA 
ATOM     24  H5*   A A   1      -7.657  19.527  70.245  1.00  0.00     0.000 HD 
ENDBRANCH  15  22
ENDBRANCH   8  13
TORSDOF 2
ENDMDL
MODEL      226
REMARK 921   NORMALIZED FREE ENERGY PREDICTED BY IDOCK:   -2.46 KCAL/MOL
REMARK 922        TOTAL FREE ENERGY PREDICTED BY IDOCK:   -3.22 KCAL/MOL
REMARK 923 INTER-LIGAND FREE ENERGY PREDICTED BY IDOCK:   -2.71 KCAL/MOL
REMARK 924 INTRA-LIGAND FREE ENERGY PREDICTED BY IDOCK:   -0.50 KCAL/MOL
REMARK 927      BINDING AFFINITY PREDICTED BY RF-SCORE:    0.00 PKD
ROOT
ATOM      1  N6    A A   1      -7.512   9.854  69.226  1.00  0.00    -0.087 NA 
ATOM      2  C6    A A   1      -8.359   8.755  69.193  1.00  0.00    -0.125 A  
ATOM      3  H61   A A   1      -7.343  10.402  70.070  1.00  0.00     0.000 HD 
ATOM      4  H62   A A   1      -7.824  10.501  68.501  1.00  0.00     0.000 HD 
ATOM      5  C5    A A   1      -8.592   8.000  68.029  1.00  0.00    -0.129 A  
ATOM      6  N7    A A   1      -8.124   8.124  66.739  1.00  0.00    -0.102 NA 
ATOM      7  C8    A A   1      -8.704   7.142  66.082  1.00  0.00    -0.151 A  
ATOM      8  N9    A A   1      -9.524   6.387  66.891  1.00  0.00    -0.139 NA 
ATOM      9  N1    A A   1      -9.011   8.408  70.322  1.00  0.00    -0.144 NA 
ATOM     10  C4    A A   1      -9.474   6.932  68.141  1.00  0.00    -0.122 A  
ATOM     11  C2    A A   1      -9.845   7.348  70.289  1.00  0.00    -0.187 A  
ATOM     12  N3    A A   1     -10.147   6.556  69.239  1.00  0.00    -0.163 NA 
ENDROOT
BRANCH   8  13
ATOM     13  C1*   A A   1     -10.298   5.279  66.399  1.00  0.00    -0.268 C  
ATOM     14  O4*   A A   1     -10.250   4.242  67.406  1.00  0.00    -0.051 OA 
ATOM     15  C4*   A A   1      -9.241   3.280  67.015  1.00  0.00    -0.180 C  
ATOM     16  H2*   A A   1     -10.908   3.607  63.625  1.00  0.00     0.000 HD 
ATOM     17  C3*   A A   1      -9.054   3.398  65.501  1.00  0.00    -0.149 C  
ATOM     18  C2*   A A   1      -9.944   4.573  65.083  1.00  0.00    -0.131 C  
ATOM     19  H3*   A A   1      -9.342   2.256  63.926  1.00  0.00     0.000 HD 
ATOM     20  O3*   A A   1      -9.459   2.183  64.866  1.00  0.00    -0.121 OA 
ATOM     21  O2*   A A   1     -11.127   4.043  64.440  1.00  0.00    -0.330 OA 
BRANCH  15  22
ATOM     22  C5*   A A   1      -7.934   3.561  67.771  1.00  0.00    -0.080 C  
ATOM     23  O5*   A A   1      -7.016   4.258  66.935  1.00  0.00    -0.057 OA 
ATOM     24  H5*   A A   1      -6.208   4.432  67.402  1.00  0.00     0.000 HD 
ENDBRANCH  15  22
ENDBRANCH   8  13
TORSDOF 2
ENDMDL
MODEL      227
REMARK 921   NORMALIZED FREE ENERGY PREDICTED BY IDOCK:   -2.45 KCAL/MOL
REMARK 922        TOTAL FREE ENERGY PREDICTED BY IDOCK:   -3.21 KCAL/MOL
REMARK 923 INTER-LIGAND FREE ENERGY PREDICTED BY IDOCK:   -2.76 KCAL/MOL
REMARK 924 INTRA-LIGAND FREE ENERGY PREDICTED BY IDOCK:   -0.45 KCAL/MOL
REMARK 927      BINDING AFFINITY PREDICTED BY RF-SCORE:    0.00 PKD
ROOT
ATOM      1  N6    A A   1      -5.497   8.285  68.224  1.00  0.00    -0.033 NA 
ATOM      2  C6    A A   1      -6.356   8.028  69.283  1.00  0.00    -0.035 A  
ATOM      3  H61   A A   1      -4.525   8.567  68.351  1.00  0.00     0.000 HD 
ATOM      4  H62   A A   1      -5.944   8.988  67.633  1.00  0.00     0.000 HD 
ATOM      5  C5    A A   1      -7.697   7.639  69.108  1.00  0.00    -0.109 A  
ATOM      6  N7    A A   1      -8.461   7.442  67.979  1.00  0.00    -0.123 NA 
ATOM      7  C8    A A   1      -9.648   7.106  68.438  1.00  0.00    -0.137 A  
ATOM      8  N9    A A   1      -9.684   7.074  69.815  1.00  0.00    -0.168 NA 
ATOM      9  N1    A A   1      -5.894   8.184  70.541  1.00  0.00    -0.029 NA 
ATOM     10  C4    A A   1      -8.443   7.427  70.261  1.00  0.00    -0.136 A  
ATOM     11  C2    A A   1      -6.731   7.947  71.573  1.00  0.00    -0.047 A  
ATOM     12  N3    A A   1      -8.027   7.575  71.528  1.00  0.00    -0.093 NA 
ENDROOT
BRANCH   8  13
ATOM     13  C1*   A A   1     -10.878   6.770  70.557  1.00  0.00    -0.258 C  
ATOM     14  O4*   A A   1     -11.944   7.573  70.000  1.00  0.00     0.119 OA 
ATOM     15  C4*   A A   1     -12.117   8.739  70.842  1.00  0.00    -0.162 C  
ATOM     16  H2*   A A   1     -11.906   6.180  73.632  1.00  0.00     0.000 HD 
ATOM     17  C3*   A A   1     -11.562   8.395  72.225  1.00  0.00    -0.383 C  
ATOM     18  C2*   A A   1     -10.960   6.994  72.073  1.00  0.00    -0.232 C  
ATOM     19  H3*   A A   1     -12.275   8.194  74.048  1.00  0.00     0.000 HD 
ATOM     20  O3*   A A   1     -12.619   8.408  73.188  1.00  0.00    -0.084 OA 
ATOM     21  O2*   A A   1     -11.856   6.042  72.693  1.00  0.00    -0.237 OA 
BRANCH  15  22
ATOM     22  C5*   A A   1     -11.389   9.941  70.222  1.00  0.00    -0.291 C  
ATOM     23  O5*   A A   1     -10.103  10.101  70.813  1.00  0.00    -0.322 OA 
ATOM     24  H5*   A A   1      -9.652  10.844  70.430  1.00  0.00     0.000 HD 
ENDBRANCH  15  22
ENDBRANCH   8  13
TORSDOF 2
ENDMDL
MODEL      228
REMARK 921   NORMALIZED FREE ENERGY PREDICTED BY IDOCK:   -2.43 KCAL/MOL
REMARK 922        TOTAL FREE ENERGY PREDICTED BY IDOCK:   -3.18 KCAL/MOL
REMARK 923 INTER-LIGAND FREE ENERGY PREDICTED BY IDOCK:   -3.51 KCAL/MOL
REMARK 924 INTRA-LIGAND FREE ENERGY PREDICTED BY IDOCK:    0.33 KCAL/MOL
REMARK 927      BINDING AFFINITY PREDICTED BY RF-SCORE:    0.00 PKD
ROOT
ATOM      1  N6    A A   1      -7.165   4.488  74.168  1.00  0.00    -0.072 NA 
ATOM      2  C6    A A   1      -7.712   5.614  73.569  1.00  0.00    -0.102 A  
ATOM      3  H61   A A   1      -6.443   4.534  74.887  1.00  0.00     0.000 HD 
ATOM      4  H62   A A   1      -6.814   3.886  73.422  1.00  0.00     0.000 HD 
ATOM      5  C5    A A   1      -8.707   5.550  72.576  1.00  0.00    -0.124 A  
ATOM      6  N7    A A   1      -9.339   4.486  71.971  1.00  0.00    -0.135 NA 
ATOM      7  C8    A A   1     -10.162   5.040  71.106  1.00  0.00    -0.211 A  
ATOM      8  N9    A A   1     -10.092   6.416  71.128  1.00  0.00    -0.184 NA 
ATOM      9  N1    A A   1      -7.249   6.828  73.934  1.00  0.00    -0.082 NA 
ATOM     10  C4    A A   1      -9.153   6.759  72.058  1.00  0.00    -0.138 A  
ATOM     11  C2    A A   1      -7.770   7.924  73.343  1.00  0.00    -0.149 A  
ATOM     12  N3    A A   1      -8.718   7.985  72.386  1.00  0.00    -0.149 NA 
ENDROOT
BRANCH   8  13
ATOM     13  C1*   A A   1     -10.866   7.250  70.248  1.00  0.00    -0.245 C  
ATOM     14  O4*   A A   1     -11.587   6.375  69.352  1.00  0.00    -0.382 OA 
ATOM     15  C4*   A A   1     -10.858   6.307  68.103  1.00  0.00    -0.320 C  
ATOM     16  H2*   A A   1     -10.665  10.067  68.550  1.00  0.00     0.000 HD 
ATOM     17  C3*   A A   1      -9.994   7.566  68.005  1.00  0.00    -0.172 C  
ATOM     18  C2*   A A   1     -10.201   8.293  69.339  1.00  0.00    -0.204 C  
ATOM     19  H3*   A A   1      -9.891   9.148  66.841  1.00  0.00     0.000 HD 
ATOM     20  O3*   A A   1     -10.427   8.366  66.902  1.00  0.00    -0.317 OA 
ATOM     21  O2*   A A   1     -11.077   9.422  69.112  1.00  0.00    -0.146 OA 
BRANCH  15  22
ATOM     22  C5*   A A   1     -10.004   5.031  68.068  1.00  0.00    -0.130 C  
ATOM     23  O5*   A A   1     -10.254   4.298  66.872  1.00  0.00    -0.248 OA 
ATOM     24  H5*   A A   1      -9.726   3.509  66.851  1.00  0.00     0.000 HD 
ENDBRANCH  15  22
ENDBRANCH   8  13
TORSDOF 2
ENDMDL
MODEL      229
REMARK 921   NORMALIZED FREE ENERGY PREDICTED BY IDOCK:   -2.37 KCAL/MOL
REMARK 922        TOTAL FREE ENERGY PREDICTED BY IDOCK:   -3.12 KCAL/MOL
REMARK 923 INTER-LIGAND FREE ENERGY PREDICTED BY IDOCK:   -2.76 KCAL/MOL
REMARK 924 INTRA-LIGAND FREE ENERGY PREDICTED BY IDOCK:   -0.36 KCAL/MOL
REMARK 927      BINDING AFFINITY PREDICTED BY RF-SCORE:    0.00 PKD
ROOT
ATOM      1  N6    A A   1      -9.729  10.013  62.771  1.00  0.00    -0.538 NA 
ATOM      2  C6    A A   1      -8.552   9.829  63.482  1.00  0.00    -0.201 A  
ATOM      3  H61   A A   1      -9.867   9.663  61.822  1.00  0.00     0.000 HD 
ATOM      4  H62   A A   1      -9.924  11.015  62.757  1.00  0.00     0.000 HD 
ATOM      5  C5    A A   1      -8.362  10.312  64.790  1.00  0.00    -0.172 A  
ATOM      6  N7    A A   1      -9.176  11.034  65.635  1.00  0.00    -0.205 NA 
ATOM      7  C8    A A   1      -8.451  11.212  66.719  1.00  0.00    -0.153 A  
ATOM      8  N9    A A   1      -7.205  10.634  66.613  1.00  0.00    -0.121 NA 
ATOM      9  N1    A A   1      -7.531   9.181  62.884  1.00  0.00    -0.102 NA 
ATOM     10  C4    A A   1      -7.127  10.064  65.375  1.00  0.00    -0.138 A  
ATOM     11  C2    A A   1      -6.381   9.013  63.569  1.00  0.00    -0.089 A  
ATOM     12  N3    A A   1      -6.084   9.430  64.817  1.00  0.00    -0.070 NA 
ENDROOT
BRANCH   8  13
ATOM     13  C1*   A A   1      -6.213  10.722  67.652  1.00  0.00    -0.052 C  
ATOM     14  O4*   A A   1      -5.848   9.371  68.011  1.00  0.00    -0.041 OA 
ATOM     15  C4*   A A   1      -6.584   9.006  69.204  1.00  0.00    -0.050 C  
ATOM     16  H2*   A A   1      -5.490  12.445  70.366  1.00  0.00     0.000 HD 
ATOM     17  C3*   A A   1      -6.975  10.301  69.917  1.00  0.00    -0.142 C  
ATOM     18  C2*   A A   1      -6.508  11.424  68.985  1.00  0.00    -0.069 C  
ATOM     19  H3*   A A   1      -6.564  11.176  71.631  1.00  0.00     0.000 HD 
ATOM     20  O3*   A A   1      -6.321  10.372  71.188  1.00  0.00    -0.339 OA 
ATOM     21  O2*   A A   1      -5.308  12.010  69.541  1.00  0.00    -0.064 OA 
BRANCH  15  22
ATOM     22  C5*   A A   1      -7.818   8.176  68.820  1.00  0.00    -0.113 C  
ATOM     23  O5*   A A   1      -7.760   6.889  69.428  1.00  0.00    -0.100 OA 
ATOM     24  H5*   A A   1      -8.523   6.376  69.191  1.00  0.00     0.000 HD 
ENDBRANCH  15  22
ENDBRANCH   8  13
TORSDOF 2
ENDMDL
MODEL      230
REMARK 921   NORMALIZED FREE ENERGY PREDICTED BY IDOCK:   -2.37 KCAL/MOL
REMARK 922        TOTAL FREE ENERGY PREDICTED BY IDOCK:   -3.12 KCAL/MOL
REMARK 923 INTER-LIGAND FREE ENERGY PREDICTED BY IDOCK:   -2.95 KCAL/MOL
REMARK 924 INTRA-LIGAND FREE ENERGY PREDICTED BY IDOCK:   -0.17 KCAL/MOL
REMARK 927      BINDING AFFINITY PREDICTED BY RF-SCORE:    0.00 PKD
ROOT
ATOM      1  N6    A A   1      -5.901   7.147  64.598  1.00  0.00    -0.036 NA 
ATOM      2  C6    A A   1      -6.352   8.352  65.118  1.00  0.00    -0.052 A  
ATOM      3  H61   A A   1      -4.934   6.991  64.313  1.00  0.00     0.000 HD 
ATOM      4  H62   A A   1      -6.495   6.918  63.800  1.00  0.00     0.000 HD 
ATOM      5  C5    A A   1      -7.686   8.568  65.511  1.00  0.00    -0.093 A  
ATOM      6  N7    A A   1      -8.800   7.757  65.481  1.00  0.00    -0.073 NA 
ATOM      7  C8    A A   1      -9.768   8.510  65.958  1.00  0.00    -0.125 A  
ATOM      8  N9    A A   1      -9.329   9.771  66.296  1.00  0.00    -0.169 NA 
ATOM      9  N1    A A   1      -5.479   9.375  65.228  1.00  0.00    -0.044 NA 
ATOM     10  C4    A A   1      -7.997   9.829  66.003  1.00  0.00    -0.111 A  
ATOM     11  C2    A A   1      -5.919  10.552  65.720  1.00  0.00    -0.129 A  
ATOM     12  N3    A A   1      -7.165  10.875  66.124  1.00  0.00    -0.128 NA 
ENDROOT
BRANCH   8  13
ATOM     13  C1*   A A   1     -10.207  10.792  66.804  1.00  0.00    -0.230 C  
ATOM     14  O4*   A A   1     -11.372  10.819  65.950  1.00  0.00     0.156 OA 
ATOM     15  C4*   A A   1     -11.210  11.900  64.999  1.00  0.00    -0.293 C  
ATOM     16  H2*   A A   1     -10.138  13.829  68.082  1.00  0.00     0.000 HD 
ATOM     17  C3*   A A   1     -10.226  12.902  65.605  1.00  0.00    -0.285 C  
ATOM     18  C2*   A A   1      -9.757  12.256  66.913  1.00  0.00    -0.212 C  
ATOM     19  H3*   A A   1     -10.277  14.769  66.222  1.00  0.00     0.000 HD 
ATOM     20  O3*   A A   1     -10.888  14.147  65.845  1.00  0.00    -0.287 OA 
ATOM     21  O2*   A A   1     -10.417  12.923  68.014  1.00  0.00    -0.218 OA 
BRANCH  15  22
ATOM     22  C5*   A A   1     -10.699  11.343  63.661  1.00  0.00    -0.401 C  
ATOM     23  O5*   A A   1     -10.956  12.267  62.608  1.00  0.00    -0.220 OA 
ATOM     24  H5*   A A   1     -10.640  11.923  61.781  1.00  0.00     0.000 HD 
ENDBRANCH  15  22
ENDBRANCH   8  13
TORSDOF 2
ENDMDL
MODEL      231
REMARK 921   NORMALIZED FREE ENERGY PREDICTED BY IDOCK:   -2.28 KCAL/MOL
REMARK 922        TOTAL FREE ENERGY PREDICTED BY IDOCK:   -3.02 KCAL/MOL
REMARK 923 INTER-LIGAND FREE ENERGY PREDICTED BY IDOCK:   -2.57 KCAL/MOL
REMARK 924 INTRA-LIGAND FREE ENERGY PREDICTED BY IDOCK:   -0.45 KCAL/MOL
REMARK 927      BINDING AFFINITY PREDICTED BY RF-SCORE:    0.00 PKD
ROOT
ATOM      1  N6    A A   1      -8.900   8.463  73.049  1.00  0.00    -0.314 NA 
ATOM      2  C6    A A   1      -9.162   8.729  71.713  1.00  0.00    -0.262 A  
ATOM      3  H61   A A   1      -9.503   8.779  73.809  1.00  0.00     0.000 HD 
ATOM      4  H62   A A   1      -7.957   8.800  73.248  1.00  0.00     0.000 HD 
ATOM      5  C5    A A   1      -8.329   8.292  70.665  1.00  0.00    -0.121 A  
ATOM      6  N7    A A   1      -7.150   7.580  70.659  1.00  0.00    -0.058 NA 
ATOM      7  C8    A A   1      -6.826   7.490  69.386  1.00  0.00    -0.048 A  
ATOM      8  N9    A A   1      -7.746   8.111  68.570  1.00  0.00    -0.110 NA 
ATOM      9  N1    A A   1     -10.250   9.463  71.402  1.00  0.00    -0.292 NA 
ATOM     10  C4    A A   1      -8.711   8.642  69.376  1.00  0.00    -0.139 A  
ATOM     11  C2    A A   1     -10.500   9.733  70.104  1.00  0.00    -0.286 A  
ATOM     12  N3    A A   1      -9.778   9.373  69.022  1.00  0.00    -0.162 NA 
ENDROOT
BRANCH   8  13
ATOM     13  C1*   A A   1      -7.596   8.183  67.141  1.00  0.00    -0.096 C  
ATOM     14  O4*   A A   1      -6.279   8.716  66.875  1.00  0.00    -0.057 OA 
ATOM     15  C4*   A A   1      -6.412  10.131  66.598  1.00  0.00    -0.073 C  
ATOM     16  H2*   A A   1      -9.287   8.960  64.421  1.00  0.00     0.000 HD 
ATOM     17  C3*   A A   1      -7.849  10.376  66.132  1.00  0.00    -0.135 C  
ATOM     18  C2*   A A   1      -8.548   9.020  66.275  1.00  0.00    -0.128 C  
ATOM     19  H3*   A A   1      -8.741  10.975  64.484  1.00  0.00     0.000 HD 
ATOM     20  O3*   A A   1      -7.849  10.823  64.774  1.00  0.00     0.002 OA 
ATOM     21  O2*   A A   1      -8.698   8.442  64.957  1.00  0.00    -0.154 OA 
BRANCH  15  22
ATOM     22  C5*   A A   1      -6.081  10.941  67.860  1.00  0.00    -0.050 C  
ATOM     23  O5*   A A   1      -7.274  11.294  68.552  1.00  0.00    -0.081 OA 
ATOM     24  H5*   A A   1      -7.069  11.795  69.332  1.00  0.00     0.000 HD 
ENDBRANCH  15  22
ENDBRANCH   8  13
TORSDOF 2
ENDMDL
MODEL      232
REMARK 921   NORMALIZED FREE ENERGY PREDICTED BY IDOCK:   -2.24 KCAL/MOL
REMARK 922        TOTAL FREE ENERGY PREDICTED BY IDOCK:   -2.97 KCAL/MOL
REMARK 923 INTER-LIGAND FREE ENERGY PREDICTED BY IDOCK:   -2.82 KCAL/MOL
REMARK 924 INTRA-LIGAND FREE ENERGY PREDICTED BY IDOCK:   -0.16 KCAL/MOL
REMARK 927      BINDING AFFINITY PREDICTED BY RF-SCORE:    0.00 PKD
ROOT
ATOM      1  N6    A A   1      -5.464   8.669  69.033  1.00  0.00    -0.036 NA 
ATOM      2  C6    A A   1      -5.962   7.879  70.059  1.00  0.00    -0.023 A  
ATOM      3  H61   A A   1      -4.665   9.293  69.148  1.00  0.00     0.000 HD 
ATOM      4  H62   A A   1      -6.239   9.229  68.676  1.00  0.00     0.000 HD 
ATOM      5  C5    A A   1      -7.065   7.018  69.900  1.00  0.00    -0.070 A  
ATOM      6  N7    A A   1      -7.881   6.754  68.822  1.00  0.00    -0.110 NA 
ATOM      7  C8    A A   1      -8.752   5.878  69.276  1.00  0.00    -0.119 A  
ATOM      8  N9    A A   1      -8.533   5.562  70.599  1.00  0.00    -0.119 NA 
ATOM      9  N1    A A   1      -5.382   7.957  71.274  1.00  0.00    -0.030 NA 
ATOM     10  C4    A A   1      -7.461   6.296  71.018  1.00  0.00    -0.085 A  
ATOM     11  C2    A A   1      -5.873   7.200  72.277  1.00  0.00    -0.037 A  
ATOM     12  N3    A A   1      -6.918   6.347  72.244  1.00  0.00    -0.073 NA 
ENDROOT
BRANCH   8  13
ATOM     13  C1*   A A   1      -9.374   4.656  71.334  1.00  0.00    -0.149 C  
ATOM     14  O4*   A A   1     -10.738   5.100  71.159  1.00  0.00    -0.181 OA 
ATOM     15  C4*   A A   1     -11.116   5.870  72.326  1.00  0.00    -0.280 C  
ATOM     16  H2*   A A   1      -9.482   2.993  74.177  1.00  0.00     0.000 HD 
ATOM     17  C3*   A A   1     -10.203   5.440  73.476  1.00  0.00    -0.205 C  
ATOM     18  C2*   A A   1      -9.210   4.457  72.847  1.00  0.00    -0.119 C  
ATOM     19  H3*   A A   1     -10.412   4.548  75.217  1.00  0.00     0.000 HD 
ATOM     20  O3*   A A   1     -10.979   4.815  74.502  1.00  0.00    -0.289 OA 
ATOM     21  O2*   A A   1      -9.584   3.116  73.240  1.00  0.00    -0.098 OA 
BRANCH  15  22
ATOM     22  C5*   A A   1     -10.979   7.370  72.025  1.00  0.00    -0.236 C  
ATOM     23  O5*   A A   1     -11.882   8.123  72.830  1.00  0.00    -0.559 OA 
ATOM     24  H5*   A A   1     -11.798   9.050  72.644  1.00  0.00     0.000 HD 
ENDBRANCH  15  22
ENDBRANCH   8  13
TORSDOF 2
ENDMDL
MODEL      233
REMARK 921   NORMALIZED FREE ENERGY PREDICTED BY IDOCK:   -2.14 KCAL/MOL
REMARK 922        TOTAL FREE ENERGY PREDICTED BY IDOCK:   -2.86 KCAL/MOL
REMARK 923 INTER-LIGAND FREE ENERGY PREDICTED BY IDOCK:   -2.76 KCAL/MOL
REMARK 924 INTRA-LIGAND FREE ENERGY PREDICTED BY IDOCK:   -0.10 KCAL/MOL
REMARK 927      BINDING AFFINITY PREDICTED BY RF-SCORE:    0.00 PKD
ROOT
ATOM      1  N6    A A   1      -8.127  11.480  62.955  1.00  0.00    -0.252 NA 
ATOM      2  C6    A A   1      -8.738  10.893  64.054  1.00  0.00     0.003 A  
ATOM      3  H61   A A   1      -8.608  12.128  62.331  1.00  0.00     0.000 HD 
ATOM      4  H62   A A   1      -7.749  10.727  62.378  1.00  0.00     0.000 HD 
ATOM      5  C5    A A   1      -8.074   9.997  64.914  1.00  0.00    -0.154 A  
ATOM      6  N7    A A   1      -6.793   9.491  64.909  1.00  0.00    -0.097 NA 
ATOM      7  C8    A A   1      -6.753   8.684  65.948  1.00  0.00    -0.061 A  
ATOM      8  N9    A A   1      -7.951   8.651  66.627  1.00  0.00    -0.096 NA 
ATOM      9  N1    A A   1     -10.036  11.170  64.297  1.00  0.00    -0.279 NA 
ATOM     10  C4    A A   1      -8.814   9.478  65.969  1.00  0.00    -0.156 A  
ATOM     11  C2    A A   1     -10.634  10.590  65.358  1.00  0.00    -0.073 A  
ATOM     12  N3    A A   1     -10.105   9.721  66.244  1.00  0.00    -0.251 NA 
ENDROOT
BRANCH   8  13
ATOM     13  C1*   A A   1      -8.172   7.816  67.778  1.00  0.00    -0.126 C  
ATOM     14  O4*   A A   1      -7.999   6.445  67.352  1.00  0.00    -0.113 OA 
ATOM     15  C4*   A A   1      -9.309   5.880  67.106  1.00  0.00    -0.116 C  
ATOM     16  H2*   A A   1     -10.136   7.544  70.410  1.00  0.00     0.000 HD 
ATOM     17  C3*   A A   1     -10.321   6.697  67.910  1.00  0.00    -0.189 C  
ATOM     18  C2*   A A   1      -9.506   7.832  68.538  1.00  0.00    -0.148 C  
ATOM     19  H3*   A A   1     -11.553   6.378  69.411  1.00  0.00     0.000 HD 
ATOM     20  O3*   A A   1     -10.924   5.871  68.911  1.00  0.00    -0.314 OA 
ATOM     21  O2*   A A   1      -9.311   7.533  69.940  1.00  0.00    -0.151 OA 
BRANCH  15  22
ATOM     22  C5*   A A   1      -9.618   5.919  65.601  1.00  0.00     0.220 C  
ATOM     23  O5*   A A   1     -10.353   4.762  65.214  1.00  0.00    -0.408 OA 
ATOM     24  H5*   A A   1     -10.543   4.787  64.284  1.00  0.00     0.000 HD 
ENDBRANCH  15  22
ENDBRANCH   8  13
TORSDOF 2
ENDMDL
MODEL      234
REMARK 921   NORMALIZED FREE ENERGY PREDICTED BY IDOCK:   -2.11 KCAL/MOL
REMARK 922        TOTAL FREE ENERGY PREDICTED BY IDOCK:   -2.83 KCAL/MOL
REMARK 923 INTER-LIGAND FREE ENERGY PREDICTED BY IDOCK:   -2.98 KCAL/MOL
REMARK 924 INTRA-LIGAND FREE ENERGY PREDICTED BY IDOCK:    0.15 KCAL/MOL
REMARK 927      BINDING AFFINITY PREDICTED BY RF-SCORE:    0.00 PKD
ROOT
ATOM      1  N6    A A   1      -9.872  10.257  62.335  1.00  0.00    -0.732 NA 
ATOM      2  C6    A A   1      -9.024   9.706  63.286  1.00  0.00    -0.227 A  
ATOM      3  H61   A A   1      -9.668  10.246  61.335  1.00  0.00     0.000 HD 
ATOM      4  H62   A A   1     -10.039  11.228  62.601  1.00  0.00     0.000 HD 
ATOM      5  C5    A A   1      -9.305   9.722  64.665  1.00  0.00    -0.256 A  
ATOM      6  N7    A A   1     -10.359  10.237  65.387  1.00  0.00    -0.232 NA 
ATOM      7  C8    A A   1     -10.063   9.968  66.641  1.00  0.00    -0.227 A  
ATOM      8  N9    A A   1      -8.865   9.297  66.761  1.00  0.00    -0.126 NA 
ATOM      9  N1    A A   1      -7.864   9.155  62.875  1.00  0.00    -0.124 NA 
ATOM     10  C4    A A   1      -8.359   9.143  65.502  1.00  0.00    -0.133 A  
ATOM     11  C2    A A   1      -7.033   8.631  63.800  1.00  0.00    -0.087 A  
ATOM     12  N3    A A   1      -7.192   8.590  65.139  1.00  0.00    -0.079 NA 
ENDROOT
BRANCH   8  13
ATOM     13  C1*   A A   1      -8.305   8.923  68.032  1.00  0.00    -0.121 C  
ATOM     14  O4*   A A   1      -9.069   9.604  69.053  1.00  0.00    -0.137 OA 
ATOM     15  C4*   A A   1      -8.335  10.787  69.453  1.00  0.00    -0.004 C  
ATOM     16  H2*   A A   1      -5.402   8.384  69.496  1.00  0.00     0.000 HD 
ATOM     17  C3*   A A   1      -6.864  10.555  69.104  1.00  0.00    -0.074 C  
ATOM     18  C2*   A A   1      -6.836   9.207  68.376  1.00  0.00    -0.064 C  
ATOM     19  H3*   A A   1      -5.168  10.374  70.085  1.00  0.00     0.000 HD 
ATOM     20  O3*   A A   1      -6.082  10.518  70.301  1.00  0.00    -0.086 OA 
ATOM     21  O2*   A A   1      -6.312   8.209  69.283  1.00  0.00    -0.037 OA 
BRANCH  15  22
ATOM     22  C5*   A A   1      -8.900  12.019  68.731  1.00  0.00     0.086 C  
ATOM     23  O5*   A A   1      -8.002  13.118  68.846  1.00  0.00    -0.322 OA 
ATOM     24  H5*   A A   1      -8.352  13.880  68.399  1.00  0.00     0.000 HD 
ENDBRANCH  15  22
ENDBRANCH   8  13
TORSDOF 2
ENDMDL
MODEL      235
REMARK 921   NORMALIZED FREE ENERGY PREDICTED BY IDOCK:   -2.02 KCAL/MOL
REMARK 922        TOTAL FREE ENERGY PREDICTED BY IDOCK:   -2.73 KCAL/MOL
REMARK 923 INTER-LIGAND FREE ENERGY PREDICTED BY IDOCK:   -2.71 KCAL/MOL
REMARK 924 INTRA-LIGAND FREE ENERGY PREDICTED BY IDOCK:   -0.02 KCAL/MOL
REMARK 927      BINDING AFFINITY PREDICTED BY RF-SCORE:    0.00 PKD
ROOT
ATOM      1  N6    A A   1      -8.490  10.789  62.634  1.00  0.00    -0.250 NA 
ATOM      2  C6    A A   1      -8.679  10.757  64.009  1.00  0.00    -0.071 A  
ATOM      3  H61   A A   1      -9.200  11.121  61.982  1.00  0.00     0.000 HD 
ATOM      4  H62   A A   1      -8.224   9.848  62.342  1.00  0.00     0.000 HD 
ATOM      5  C5    A A   1      -7.699  10.298  64.908  1.00  0.00    -0.124 A  
ATOM      6  N7    A A   1      -6.432   9.792  64.714  1.00  0.00    -0.101 NA 
ATOM      7  C8    A A   1      -6.000   9.514  65.926  1.00  0.00    -0.055 A  
ATOM      8  N9    A A   1      -6.930   9.821  66.894  1.00  0.00    -0.087 NA 
ATOM      9  N1    A A   1      -9.867  11.160  64.506  1.00  0.00    -0.260 NA 
ATOM     10  C4    A A   1      -8.032  10.313  66.257  1.00  0.00    -0.124 A  
ATOM     11  C2    A A   1     -10.057  11.117  65.841  1.00  0.00    -0.247 A  
ATOM     12  N3    A A   1      -9.199  10.698  66.794  1.00  0.00    -0.155 NA 
ENDROOT
BRANCH   8  13
ATOM     13  C1*   A A   1      -6.708   9.574  68.294  1.00  0.00    -0.058 C  
ATOM     14  O4*   A A   1      -6.680   8.140  68.477  1.00  0.00    -0.060 OA 
ATOM     15  C4*   A A   1      -7.983   7.720  68.950  1.00  0.00    -0.124 C  
ATOM     16  H2*   A A   1      -7.585  10.695  71.266  1.00  0.00     0.000 HD 
ATOM     17  C3*   A A   1      -8.648   8.932  69.604  1.00  0.00    -0.131 C  
ATOM     18  C2*   A A   1      -7.677  10.094  69.364  1.00  0.00    -0.138 C  
ATOM     19  H3*   A A   1      -9.250   9.441  71.406  1.00  0.00     0.000 HD 
ATOM     20  O3*   A A   1      -8.836   8.688  71.000  1.00  0.00    -0.155 OA 
ATOM     21  O2*   A A   1      -6.985  10.373  70.604  1.00  0.00    -0.324 OA 
BRANCH  15  22
ATOM     22  C5*   A A   1      -8.814   7.182  67.776  1.00  0.00    -0.124 C  
ATOM     23  O5*   A A   1      -9.617   6.084  68.197  1.00  0.00    -0.116 OA 
ATOM     24  H5*   A A   1     -10.131   5.752  67.471  1.00  0.00     0.000 HD 
ENDBRANCH  15  22
ENDBRANCH   8  13
TORSDOF 2
ENDMDL
MODEL      236
REMARK 921   NORMALIZED FREE ENERGY PREDICTED BY IDOCK:   -1.96 KCAL/MOL
REMARK 922        TOTAL FREE ENERGY PREDICTED BY IDOCK:   -2.66 KCAL/MOL
REMARK 923 INTER-LIGAND FREE ENERGY PREDICTED BY IDOCK:   -2.14 KCAL/MOL
REMARK 924 INTRA-LIGAND FREE ENERGY PREDICTED BY IDOCK:   -0.52 KCAL/MOL
REMARK 927      BINDING AFFINITY PREDICTED BY RF-SCORE:    0.00 PKD
ROOT
ATOM      1  N6    A A   1      -8.264   8.912  63.218  1.00  0.00    -0.176 NA 
ATOM      2  C6    A A   1      -7.529   8.486  64.316  1.00  0.00    -0.111 A  
ATOM      3  H61   A A   1      -8.038   8.646  62.259  1.00  0.00     0.000 HD 
ATOM      4  H62   A A   1      -8.298   9.932  63.251  1.00  0.00     0.000 HD 
ATOM      5  C5    A A   1      -7.841   8.853  65.638  1.00  0.00    -0.096 A  
ATOM      6  N7    A A   1      -8.829   9.656  66.164  1.00  0.00    -0.145 NA 
ATOM      7  C8    A A   1      -8.608   9.642  67.462  1.00  0.00    -0.126 A  
ATOM      8  N9    A A   1      -7.523   8.864  67.797  1.00  0.00    -0.092 NA 
ATOM      9  N1    A A   1      -6.449   7.705  64.106  1.00  0.00    -0.052 NA 
ATOM     10  C4    A A   1      -7.011   8.360  66.636  1.00  0.00    -0.072 A  
ATOM     11  C2    A A   1      -5.726   7.300  65.171  1.00  0.00    -0.037 A  
ATOM     12  N3    A A   1      -5.926   7.588  66.474  1.00  0.00    -0.039 NA 
ENDROOT
BRANCH   8  13
ATOM     13  C1*   A A   1      -7.056   8.719  69.150  1.00  0.00    -0.063 C  
ATOM     14  O4*   A A   1      -6.809   7.312  69.370  1.00  0.00    -0.047 OA 
ATOM     15  C4*   A A   1      -7.955   6.755  70.059  1.00  0.00    -0.116 C  
ATOM     16  H2*   A A   1      -7.603   9.871  72.189  1.00  0.00     0.000 HD 
ATOM     17  C3*   A A   1      -8.667   7.905  70.773  1.00  0.00    -0.134 C  
ATOM     18  C2*   A A   1      -7.908   9.167  70.346  1.00  0.00    -0.133 C  
ATOM     19  H3*   A A   1      -9.044   8.425  72.633  1.00  0.00     0.000 HD 
ATOM     20  O3*   A A   1      -8.602   7.711  72.189  1.00  0.00    -0.110 OA 
ATOM     21  O2*   A A   1      -7.075   9.594  71.449  1.00  0.00    -0.324 OA 
BRANCH  15  22
ATOM     22  C5*   A A   1      -8.880   6.057  69.050  1.00  0.00    -0.121 C  
ATOM     23  O5*   A A   1     -10.020   6.866  68.778  1.00  0.00    -0.147 OA 
ATOM     24  H5*   A A   1     -10.591   6.435  68.154  1.00  0.00     0.000 HD 
ENDBRANCH  15  22
ENDBRANCH   8  13
TORSDOF 2
ENDMDL
MODEL      237
REMARK 921   NORMALIZED FREE ENERGY PREDICTED BY IDOCK:   -1.86 KCAL/MOL
REMARK 922        TOTAL FREE ENERGY PREDICTED BY IDOCK:   -2.56 KCAL/MOL
REMARK 923 INTER-LIGAND FREE ENERGY PREDICTED BY IDOCK:   -2.48 KCAL/MOL
REMARK 924 INTRA-LIGAND FREE ENERGY PREDICTED BY IDOCK:   -0.07 KCAL/MOL
REMARK 927      BINDING AFFINITY PREDICTED BY RF-SCORE:    0.00 PKD
ROOT
ATOM      1  N6    A A   1      -7.906   9.750  64.691  1.00  0.00    -0.129 NA 
ATOM      2  C6    A A   1      -8.544   8.903  65.586  1.00  0.00    -0.166 A  
ATOM      3  H61   A A   1      -8.374  10.533  64.235  1.00  0.00     0.000 HD 
ATOM      4  H62   A A   1      -7.500   9.169  63.956  1.00  0.00     0.000 HD 
ATOM      5  C5    A A   1      -7.897   7.822  66.214  1.00  0.00    -0.091 A  
ATOM      6  N7    A A   1      -6.611   7.338  66.124  1.00  0.00    -0.051 NA 
ATOM      7  C8    A A   1      -6.594   6.295  66.928  1.00  0.00    -0.059 A  
ATOM      8  N9    A A   1      -7.812   6.087  67.536  1.00  0.00    -0.098 NA 
ATOM      9  N1    A A   1      -9.852   9.106  65.846  1.00  0.00    -0.282 NA 
ATOM     10  C4    A A   1      -8.664   7.051  67.078  1.00  0.00    -0.123 A  
ATOM     11  C2    A A   1     -10.477   8.274  66.706  1.00  0.00    -0.243 A  
ATOM     12  N3    A A   1      -9.965   7.212  67.362  1.00  0.00    -0.158 NA 
ENDROOT
BRANCH   8  13
ATOM     13  C1*   A A   1      -8.059   4.988  68.431  1.00  0.00    -0.086 C  
ATOM     14  O4*   A A   1      -7.104   3.952  68.111  1.00  0.00    -0.051 OA 
ATOM     15  C4*   A A   1      -7.761   2.977  67.265  1.00  0.00    -0.074 C  
ATOM     16  H2*   A A   1     -10.539   3.322  69.822  1.00  0.00     0.000 HD 
ATOM     17  C3*   A A   1      -9.266   3.092  67.514  1.00  0.00    -0.193 C  
ATOM     18  C2*   A A   1      -9.420   4.278  68.473  1.00  0.00    -0.153 C  
ATOM     19  H3*   A A   1     -10.690   1.953  68.252  1.00  0.00     0.000 HD 
ATOM     20  O3*   A A   1      -9.755   1.882  68.098  1.00  0.00    -0.163 OA 
ATOM     21  O2*   A A   1      -9.697   3.762  69.796  1.00  0.00    -0.200 OA 
BRANCH  15  22
ATOM     22  C5*   A A   1      -7.408   3.242  65.794  1.00  0.00    -0.072 C  
ATOM     23  O5*   A A   1      -8.533   2.984  64.959  1.00  0.00    -0.094 OA 
ATOM     24  H5*   A A   1      -8.315   3.148  64.049  1.00  0.00     0.000 HD 
ENDBRANCH  15  22
ENDBRANCH   8  13
TORSDOF 2
ENDMDL
MODEL      238
REMARK 921   NORMALIZED FREE ENERGY PREDICTED BY IDOCK:   -1.66 KCAL/MOL
REMARK 922        TOTAL FREE ENERGY PREDICTED BY IDOCK:   -2.33 KCAL/MOL
REMARK 923 INTER-LIGAND FREE ENERGY PREDICTED BY IDOCK:   -2.71 KCAL/MOL
REMARK 924 INTRA-LIGAND FREE ENERGY PREDICTED BY IDOCK:    0.38 KCAL/MOL
REMARK 927      BINDING AFFINITY PREDICTED BY RF-SCORE:    0.00 PKD
ROOT
ATOM      1  N6    A A   1     -11.412   8.614  69.930  1.00  0.00    -0.449 NA 
ATOM      2  C6    A A   1     -10.880   7.365  69.642  1.00  0.00    -0.210 A  
ATOM      3  H61   A A   1     -11.917   8.818  70.793  1.00  0.00     0.000 HD 
ATOM      4  H62   A A   1     -12.021   8.873  69.153  1.00  0.00     0.000 HD 
ATOM      5  C5    A A   1     -10.185   7.083  68.451  1.00  0.00    -0.179 A  
ATOM      6  N7    A A   1      -9.881   7.858  67.354  1.00  0.00    -0.166 NA 
ATOM      7  C8    A A   1      -9.232   7.046  66.546  1.00  0.00    -0.164 A  
ATOM      8  N9    A A   1      -9.100   5.781  67.075  1.00  0.00    -0.114 NA 
ATOM      9  N1    A A   1     -11.061   6.365  70.530  1.00  0.00    -0.302 NA 
ATOM     10  C4    A A   1      -9.718   5.784  68.292  1.00  0.00    -0.129 A  
ATOM     11  C2    A A   1     -10.556   5.147  70.245  1.00  0.00    -0.160 A  
ATOM     12  N3    A A   1      -9.879   4.760  69.144  1.00  0.00    -0.188 NA 
ENDROOT
BRANCH   8  13
ATOM     13  C1*   A A   1      -8.461   4.704  66.368  1.00  0.00    -0.109 C  
ATOM     14  O4*   A A   1      -7.034   4.896  66.493  1.00  0.00    -0.064 OA 
ATOM     15  C4*   A A   1      -6.556   5.531  65.282  1.00  0.00    -0.040 C  
ATOM     16  H2*   A A   1      -8.742   2.925  63.608  1.00  0.00     0.000 HD 
ATOM     17  C3*   A A   1      -7.565   5.226  64.174  1.00  0.00    -0.071 C  
ATOM     18  C2*   A A   1      -8.703   4.472  64.870  1.00  0.00    -0.140 C  
ATOM     19  H3*   A A   1      -7.574   4.234  62.475  1.00  0.00     0.000 HD 
ATOM     20  O3*   A A   1      -6.948   4.423  63.164  1.00  0.00    -0.038 OA 
ATOM     21  O2*   A A   1      -8.592   3.068  64.535  1.00  0.00    -0.093 OA 
BRANCH  15  22
ATOM     22  C5*   A A   1      -6.406   7.042  65.512  1.00  0.00    -0.043 C  
ATOM     23  O5*   A A   1      -6.574   7.750  64.287  1.00  0.00    -0.055 OA 
ATOM     24  H5*   A A   1      -6.481   8.684  64.429  1.00  0.00     0.000 HD 
ENDBRANCH  15  22
ENDBRANCH   8  13
TORSDOF 2
ENDMDL
MODEL      239
REMARK 921   NORMALIZED FREE ENERGY PREDICTED BY IDOCK:   -1.09 KCAL/MOL
REMARK 922        TOTAL FREE ENERGY PREDICTED BY IDOCK:   -1.68 KCAL/MOL
REMARK 923 INTER-LIGAND FREE ENERGY PREDICTED BY IDOCK:   -1.80 KCAL/MOL
REMARK 924 INTRA-LIGAND FREE ENERGY PREDICTED BY IDOCK:    0.12 KCAL/MOL
REMARK 927      BINDING AFFINITY PREDICTED BY RF-SCORE:    0.00 PKD
ROOT
ATOM      1  N6    A A   1      -6.037   8.733  67.391  1.00  0.00    -0.051 NA 
ATOM      2  C6    A A   1      -6.696   8.646  68.609  1.00  0.00    -0.059 A  
ATOM      3  H61   A A   1      -5.025   8.833  67.311  1.00  0.00     0.000 HD 
ATOM      4  H62   A A   1      -6.460   9.501  66.869  1.00  0.00     0.000 HD 
ATOM      5  C5    A A   1      -8.092   8.509  68.718  1.00  0.00    -0.120 A  
ATOM      6  N7    A A   1      -9.091   8.447  67.771  1.00  0.00    -0.135 NA 
ATOM      7  C8    A A   1     -10.201   8.338  68.470  1.00  0.00    -0.208 A  
ATOM      8  N9    A A   1      -9.964   8.324  69.826  1.00  0.00    -0.188 NA 
ATOM      9  N1    A A   1      -5.969   8.724  69.743  1.00  0.00    -0.028 NA 
ATOM     10  C4    A A   1      -8.616   8.446  70.004  1.00  0.00    -0.131 A  
ATOM     11  C2    A A   1      -6.610   8.653  70.929  1.00  0.00    -0.049 A  
ATOM     12  N3    A A   1      -7.934   8.525  71.156  1.00  0.00    -0.110 NA 
ENDROOT
BRANCH   8  13
ATOM     13  C1*   A A   1     -11.019   8.250  70.801  1.00  0.00    -0.243 C  
ATOM     14  O4*   A A   1     -10.419   7.839  72.051  1.00  0.00    -0.207 OA 
ATOM     15  C4*   A A   1     -10.630   6.414  72.206  1.00  0.00    -0.214 C  
ATOM     16  H2*   A A   1     -14.155   7.288  71.118  1.00  0.00     0.000 HD 
ATOM     17  C3*   A A   1     -11.838   6.032  71.349  1.00  0.00     0.028 C  
ATOM     18  C2*   A A   1     -12.224   7.318  70.611  1.00  0.00    -0.145 C  
ATOM     19  H3*   A A   1     -13.651   5.333  71.656  1.00  0.00     0.000 HD 
ATOM     20  O3*   A A   1     -12.900   5.571  72.188  1.00  0.00     0.586 OA 
ATOM     21  O2*   A A   1     -13.409   7.864  71.237  1.00  0.00    -0.264 OA 
BRANCH  15  22
ATOM     22  C5*   A A   1      -9.366   5.653  71.776  1.00  0.00    -0.145 C  
ATOM     23  O5*   A A   1      -8.356   5.763  72.774  1.00  0.00    -0.119 OA 
ATOM     24  H5*   A A   1      -7.575   5.293  72.508  1.00  0.00     0.000 HD 
ENDBRANCH  15  22
ENDBRANCH   8  13
TORSDOF 2
ENDMDL
MODEL      240
REMARK 921   NORMALIZED FREE ENERGY PREDICTED BY IDOCK:   -0.82 KCAL/MOL
REMARK 922        TOTAL FREE ENERGY PREDICTED BY IDOCK:   -1.38 KCAL/MOL
REMARK 923 INTER-LIGAND FREE ENERGY PREDICTED BY IDOCK:   -2.18 KCAL/MOL
REMARK 924 INTRA-LIGAND FREE ENERGY PREDICTED BY IDOCK:    0.80 KCAL/MOL
REMARK 927      BINDING AFFINITY PREDICTED BY RF-SCORE:    0.00 PKD
ROOT
ATOM      1  N6    A A   1     -10.896   8.920  69.292  1.00  0.00    -0.395 NA 
ATOM      2  C6    A A   1     -10.323   8.263  70.372  1.00  0.00    -0.205 A  
ATOM      3  H61   A A   1     -11.678   9.567  69.386  1.00  0.00     0.000 HD 
ATOM      4  H62   A A   1     -11.168   8.208  68.613  1.00  0.00     0.000 HD 
ATOM      5  C5    A A   1      -9.243   7.369  70.243  1.00  0.00    -0.154 A  
ATOM      6  N7    A A   1      -8.539   6.925  69.145  1.00  0.00    -0.128 NA 
ATOM      7  C8    A A   1      -7.656   6.083  69.639  1.00  0.00    -0.089 A  
ATOM      8  N9    A A   1      -7.756   5.966  71.007  1.00  0.00    -0.099 NA 
ATOM      9  N1    A A   1     -10.840   8.468  71.601  1.00  0.00    -0.263 NA 
ATOM     10  C4    A A   1      -8.780   6.775  71.410  1.00  0.00    -0.131 A  
ATOM     11  C2    A A   1     -10.293   7.820  72.650  1.00  0.00    -0.292 A  
ATOM     12  N3    A A   1      -9.266   6.945  72.648  1.00  0.00    -0.135 NA 
ENDROOT
BRANCH   8  13
ATOM     13  C1*   A A   1      -6.926   5.079  71.777  1.00  0.00    -0.057 C  
ATOM     14  O4*   A A   1      -5.771   4.762  70.966  1.00  0.00    -0.014 OA 
ATOM     15  C4*   A A   1      -5.997   3.473  70.344  1.00  0.00    -0.018 C  
ATOM     16  H2*   A A   1      -7.132   2.509  73.831  1.00  0.00     0.000 HD 
ATOM     17  C3*   A A   1      -7.023   2.724  71.196  1.00  0.00    -0.032 C  
ATOM     18  C2*   A A   1      -7.446   3.724  72.277  1.00  0.00    -0.061 C  
ATOM     19  H3*   A A   1      -7.058   1.094  72.296  1.00  0.00     0.000 HD 
ATOM     20  O3*   A A   1      -6.421   1.560  71.767  1.00  0.00    -0.014 OA 
ATOM     21  O2*   A A   1      -6.809   3.348  73.521  1.00  0.00    -0.033 OA 
BRANCH  15  22
ATOM     22  C5*   A A   1      -6.492   3.671  68.904  1.00  0.00    -0.033 C  
ATOM     23  O5*   A A   1      -6.164   2.538  68.105  1.00  0.00    -0.027 OA 
ATOM     24  H5*   A A   1      -6.470   2.660  67.215  1.00  0.00     0.000 HD 
ENDBRANCH  15  22
ENDBRANCH   8  13
TORSDOF 2
ENDMDL
MODEL      241
REMARK 921   NORMALIZED FREE ENERGY PREDICTED BY IDOCK:   -0.39 KCAL/MOL
REMARK 922        TOTAL FREE ENERGY PREDICTED BY IDOCK:   -0.91 KCAL/MOL
REMARK 923 INTER-LIGAND FREE ENERGY PREDICTED BY IDOCK:   -1.93 KCAL/MOL
REMARK 924 INTRA-LIGAND FREE ENERGY PREDICTED BY IDOCK:    1.02 KCAL/MOL
REMARK 927      BINDING AFFINITY PREDICTED BY RF-SCORE:    0.00 PKD
ROOT
ATOM      1  N6    A A   1      -5.198  13.278  70.572  1.00  0.00    -0.114 NA 
ATOM      2  C6    A A   1      -6.166  12.711  69.755  1.00  0.00    -0.111 A  
ATOM      3  H61   A A   1      -4.502  12.728  71.075  1.00  0.00     0.000 HD 
ATOM      4  H62   A A   1      -5.680  13.860  71.257  1.00  0.00     0.000 HD 
ATOM      5  C5    A A   1      -7.127  13.470  69.061  1.00  0.00    -0.066 A  
ATOM      6  N7    A A   1      -7.370  14.824  69.008  1.00  0.00    -0.130 NA 
ATOM      7  C8    A A   1      -8.410  14.941  68.210  1.00  0.00    -0.148 A  
ATOM      8  N9    A A   1      -8.847  13.722  67.742  1.00  0.00    -0.177 NA 
ATOM      9  N1    A A   1      -6.208  11.367  69.642  1.00  0.00    -0.103 NA 
ATOM     10  C4    A A   1      -8.042  12.765  68.290  1.00  0.00    -0.154 A  
ATOM     11  C2    A A   1      -7.156  10.812  68.859  1.00  0.00    -0.082 A  
ATOM     12  N3    A A   1      -8.124  11.433  68.152  1.00  0.00    -0.130 NA 
ENDROOT
BRANCH   8  13
ATOM     13  C1*   A A   1      -9.992  13.581  66.882  1.00  0.00    -0.256 C  
ATOM     14  O4*   A A   1      -9.837  14.531  65.803  1.00  0.00    -0.316 OA 
ATOM     15  C4*   A A   1     -10.631  15.702  66.114  1.00  0.00    -0.320 C  
ATOM     16  H2*   A A   1     -13.252  13.113  67.010  1.00  0.00     0.000 HD 
ATOM     17  C3*   A A   1     -11.722  15.270  67.095  1.00  0.00    -0.053 C  
ATOM     18  C2*   A A   1     -11.419  13.800  67.404  1.00  0.00    -0.345 C  
ATOM     19  H3*   A A   1     -13.686  15.155  67.096  1.00  0.00     0.000 HD 
ATOM     20  O3*   A A   1     -13.008  15.422  66.487  1.00  0.00     1.635 OA 
ATOM     21  O2*   A A   1     -12.369  12.978  66.686  1.00  0.00    -0.381 OA 
BRANCH  15  22
ATOM     22  C5*   A A   1      -9.732  16.795  66.712  1.00  0.00    -0.264 C  
ATOM     23  O5*   A A   1      -9.261  17.666  65.688  1.00  0.00    -0.414 OA 
ATOM     24  H5*   A A   1      -8.706  18.342  66.057  1.00  0.00     0.000 HD 
ENDBRANCH  15  22
ENDBRANCH   8  13
TORSDOF 2
ENDMDL
MODEL      242
REMARK 921   NORMALIZED FREE ENERGY PREDICTED BY IDOCK:    4.12 KCAL/MOL
REMARK 922        TOTAL FREE ENERGY PREDICTED BY IDOCK:    4.13 KCAL/MOL
REMARK 923 INTER-LIGAND FREE ENERGY PREDICTED BY IDOCK:    4.55 KCAL/MOL
REMARK 924 INTRA-LIGAND FREE ENERGY PREDICTED BY IDOCK:   -0.42 KCAL/MOL
REMARK 927      BINDING AFFINITY PREDICTED BY RF-SCORE:    0.00 PKD
ROOT
ATOM      1  N6    A A   1     -10.316   4.878  66.577  1.00  0.00    -0.272 NA 
ATOM      2  C6    A A   1     -10.028   6.121  67.124  1.00  0.00    -0.154 A  
ATOM      3  H61   A A   1     -10.683   4.100  67.126  1.00  0.00     0.000 HD 
ATOM      4  H62   A A   1      -9.471   4.548  66.110  1.00  0.00     0.000 HD 
ATOM      5  C5    A A   1      -9.521   7.193  66.367  1.00  0.00    -0.123 A  
ATOM      6  N7    A A   1      -9.185   7.306  65.036  1.00  0.00     0.684 NA 
ATOM      7  C8    A A   1      -8.745   8.541  64.911  1.00  0.00    -0.054 A  
ATOM      8  N9    A A   1      -8.786   9.232  66.102  1.00  0.00    -0.143 NA 
ATOM      9  N1    A A   1     -10.218   6.304  68.447  1.00  0.00    -0.156 NA 
ATOM     10  C4    A A   1      -9.269   8.376  67.050  1.00  0.00    -0.151 A  
ATOM     11  C2    A A   1      -9.927   7.507  68.982  1.00  0.00    -0.175 A  
ATOM     12  N3    A A   1      -9.437   8.601  68.362  1.00  0.00    -0.137 NA 
ENDROOT
BRANCH   8  13
ATOM     13  C1*   A A   1      -8.324  10.588  66.233  1.00  0.00    -0.152 C  
ATOM     14  O4*   A A   1      -9.379  11.339  66.874  1.00  0.00    -0.173 OA 
ATOM     15  C4*   A A   1     -10.120  12.043  65.848  1.00  0.00    -0.236 C  
ATOM     16  H2*   A A   1      -6.650  12.897  64.581  1.00  0.00     0.000 HD 
ATOM     17  C3*   A A   1      -9.200  12.191  64.635  1.00  0.00     0.473 C  
ATOM     18  C2*   A A   1      -7.928  11.422  65.007  1.00  0.00     0.800 C  
ATOM     19  H3*   A A   1      -8.353  13.668  63.649  1.00  0.00     0.000 HD 
ATOM     20  O3*   A A   1      -8.925  13.575  64.402  1.00  0.00     1.856 OA 
ATOM     21  O2*   A A   1      -6.896  12.381  65.340  1.00  0.00     2.810 OA 
BRANCH  15  22
ATOM     22  C5*   A A   1     -11.395  11.261  65.499  1.00  0.00     0.096 C  
ATOM     23  O5*   A A   1     -11.669  11.353  64.105  1.00  0.00    -0.248 OA 
ATOM     24  H5*   A A   1     -12.457  10.870  63.889  1.00  0.00     0.000 HD 
ENDBRANCH  15  22
ENDBRANCH   8  13
TORSDOF 2
ENDMDL
MODEL      243
REMARK 921   NORMALIZED FREE ENERGY PREDICTED BY IDOCK:    5.34 KCAL/MOL
REMARK 922        TOTAL FREE ENERGY PREDICTED BY IDOCK:    5.49 KCAL/MOL
REMARK 923 INTER-LIGAND FREE ENERGY PREDICTED BY IDOCK:    5.57 KCAL/MOL
REMARK 924 INTRA-LIGAND FREE ENERGY PREDICTED BY IDOCK:   -0.08 KCAL/MOL
REMARK 927      BINDING AFFINITY PREDICTED BY RF-SCORE:    0.00 PKD
ROOT
ATOM      1  N6    A A   1      -8.788  13.613  71.033  1.00  0.00     5.672 NA 
ATOM      2  C6    A A   1      -8.736  13.438  69.657  1.00  0.00     1.708 A  
ATOM      3  H61   A A   1      -8.422  14.440  71.504  1.00  0.00     0.000 HD 
ATOM      4  H62   A A   1      -8.347  12.798  71.460  1.00  0.00     0.000 HD 
ATOM      5  C5    A A   1      -9.242  12.297  69.008  1.00  0.00     0.420 A  
ATOM      6  N7    A A   1      -9.844  11.154  69.486  1.00  0.00     0.129 NA 
ATOM      7  C8    A A   1     -10.083  10.433  68.411  1.00  0.00    -0.163 A  
ATOM      8  N9    A A   1      -9.664  11.061  67.259  1.00  0.00    -0.165 NA 
ATOM      9  N1    A A   1      -8.148  14.394  68.907  1.00  0.00    -0.128 NA 
ATOM     10  C4    A A   1      -9.110  12.253  67.626  1.00  0.00    -0.184 A  
ATOM     11  C2    A A   1      -8.085  14.220  67.571  1.00  0.00    -0.187 A  
ATOM     12  N3    A A   1      -8.529  13.175  66.842  1.00  0.00    -0.129 NA 
ENDROOT
BRANCH   8  13
ATOM     13  C1*   A A   1      -9.780  10.460  65.957  1.00  0.00    -0.211 C  
ATOM     14  O4*   A A   1      -9.771   9.026  66.144  1.00  0.00    -0.254 OA 
ATOM     15  C4*   A A   1      -8.431   8.545  65.880  1.00  0.00    -0.152 C  
ATOM     16  H2*   A A   1      -8.710  10.822  62.861  1.00  0.00     0.000 HD 
ATOM     17  C3*   A A   1      -7.740   9.575  64.984  1.00  0.00    -0.114 C  
ATOM     18  C2*   A A   1      -8.745  10.725  64.855  1.00  0.00    -0.126 C  
ATOM     19  H3*   A A   1      -7.019   9.631  63.155  1.00  0.00     0.000 HD 
ATOM     20  O3*   A A   1      -7.448   8.991  63.712  1.00  0.00    -0.102 OA 
ATOM     21  O2*   A A   1      -9.351  10.657  63.543  1.00  0.00    -0.234 OA 
BRANCH  15  22
ATOM     22  C5*   A A   1      -7.677   8.352  67.205  1.00  0.00    -0.097 C  
ATOM     23  O5*   A A   1      -8.255   7.287  67.954  1.00  0.00    -0.118 OA 
ATOM     24  H5*   A A   1      -7.790   7.167  68.773  1.00  0.00     0.000 HD 
ENDBRANCH  15  22
ENDBRANCH   8  13
TORSDOF 2
ENDMDL
MODEL      244
REMARK 921   NORMALIZED FREE ENERGY PREDICTED BY IDOCK:   14.90 KCAL/MOL
REMARK 922        TOTAL FREE ENERGY PREDICTED BY IDOCK:   16.17 KCAL/MOL
REMARK 923 INTER-LIGAND FREE ENERGY PREDICTED BY IDOCK:   16.41 KCAL/MOL
REMARK 924 INTRA-LIGAND FREE ENERGY PREDICTED BY IDOCK:   -0.23 KCAL/MOL
REMARK 927      BINDING AFFINITY PREDICTED BY RF-SCORE:    0.00 PKD
ROOT
ATOM      1  N6    A A   1     -10.264  19.518  71.005  1.00  0.00     0.583 NA 
ATOM      2  C6    A A   1     -10.419  18.892  69.776  1.00  0.00     1.056 A  
ATOM      3  H61   A A   1     -10.556  20.480  71.181  1.00  0.00     0.000 HD 
ATOM      4  H62   A A   1      -9.279  19.447  71.261  1.00  0.00     0.000 HD 
ATOM      5  C5    A A   1     -10.015  17.566  69.534  1.00  0.00     0.118 A  
ATOM      6  N7    A A   1      -9.409  16.624  70.336  1.00  0.00     1.812 NA 
ATOM      7  C8    A A   1      -9.259  15.575  69.557  1.00  0.00    -0.265 A  
ATOM      8  N9    A A   1      -9.745  15.795  68.287  1.00  0.00    -0.200 NA 
ATOM      9  N1    A A   1     -10.955  19.595  68.757  1.00  0.00     0.711 NA 
ATOM     10  C4    A A   1     -10.222  17.074  68.251  1.00  0.00    -0.326 A  
ATOM     11  C2    A A   1     -11.094  18.992  67.558  1.00  0.00    -0.100 A  
ATOM     12  N3    A A   1     -10.745  17.736  67.209  1.00  0.00    -0.298 NA 
ENDROOT
BRANCH   8  13
ATOM     13  C1*   A A   1      -9.663  14.812  67.239  1.00  0.00    -0.230 C  
ATOM     14  O4*   A A   1      -8.315  14.288  67.248  1.00  0.00    -0.191 OA 
ATOM     15  C4*   A A   1      -7.561  14.967  66.214  1.00  0.00     1.694 C  
ATOM     16  H2*   A A   1     -10.661  14.274  64.145  1.00  0.00     0.000 HD 
ATOM     17  C3*   A A   1      -8.562  15.501  65.189  1.00  0.00     3.110 C  
ATOM     18  C2*   A A   1      -9.941  15.176  65.774  1.00  0.00    -0.345 C  
ATOM     19  H3*   A A   1      -8.983  15.182  63.294  1.00  0.00     0.000 HD 
ATOM     20  O3*   A A   1      -8.362  14.850  63.931  1.00  0.00     9.833 OA 
ATOM     21  O2*   A A   1     -10.489  14.048  65.052  1.00  0.00    -0.373 OA 
BRANCH  15  22
ATOM     22  C5*   A A   1      -6.729  16.099  66.836  1.00  0.00    -0.065 C  
ATOM     23  O5*   A A   1      -6.021  15.626  67.978  1.00  0.00    -0.120 OA 
ATOM     24  H5*   A A   1      -5.507  16.325  68.362  1.00  0.00     0.000 HD 
ENDBRANCH  15  22
ENDBRANCH   8  13
TORSDOF 2
ENDMDL
MODEL      245
REMARK 921   NORMALIZED FREE ENERGY PREDICTED BY IDOCK:   22.75 KCAL/MOL
REMARK 922        TOTAL FREE ENERGY PREDICTED BY IDOCK:   24.94 KCAL/MOL
REMARK 923 INTER-LIGAND FREE ENERGY PREDICTED BY IDOCK:   25.39 KCAL/MOL
REMARK 924 INTRA-LIGAND FREE ENERGY PREDICTED BY IDOCK:   -0.45 KCAL/MOL
REMARK 927      BINDING AFFINITY PREDICTED BY RF-SCORE:    0.00 PKD
ROOT
ATOM      1  N6    A A   1      -9.420  19.427  72.045  1.00  0.00     3.505 NA 
ATOM      2  C6    A A   1      -9.817  18.344  71.275  1.00  0.00     4.635 A  
ATOM      3  H61   A A   1      -9.090  20.305  71.644  1.00  0.00     0.000 HD 
ATOM      4  H62   A A   1      -8.699  19.096  72.688  1.00  0.00     0.000 HD 
ATOM      5  C5    A A   1     -10.271  17.132  71.829  1.00  0.00     4.742 A  
ATOM      6  N7    A A   1     -10.420  16.712  73.132  1.00  0.00     4.923 NA 
ATOM      7  C8    A A   1     -10.866  15.478  73.032  1.00  0.00     1.698 A  
ATOM      8  N9    A A   1     -11.015  15.083  71.720  1.00  0.00    -0.006 NA 
ATOM      9  N1    A A   1      -9.738  18.443  69.931  1.00  0.00     0.730 NA 
ATOM     10  C4    A A   1     -10.625  16.129  70.935  1.00  0.00     0.479 A  
ATOM     11  C2    A A   1     -10.111  17.386  69.181  1.00  0.00    -0.242 A  
ATOM     12  N3    A A   1     -10.557  16.183  69.596  1.00  0.00    -0.291 NA 
ENDROOT
BRANCH   8  13
ATOM     13  C1*   A A   1     -11.453  13.764  71.348  1.00  0.00     1.269 C  
ATOM     14  O4*   A A   1     -12.365  13.914  70.237  1.00  0.00    -0.327 OA 
ATOM     15  C4*   A A   1     -13.718  13.855  70.753  1.00  0.00     0.366 C  
ATOM     16  H2*   A A   1     -12.356  10.890  72.684  1.00  0.00     0.000 HD 
ATOM     17  C3*   A A   1     -13.669  13.108  72.087  1.00  0.00    -0.495 C  
ATOM     18  C2*   A A   1     -12.181  12.850  72.343  1.00  0.00     1.440 C  
ATOM     19  H3*   A A   1     -14.372  11.420  72.812  1.00  0.00     0.000 HD 
ATOM     20  O3*   A A   1     -14.402  11.884  71.984  1.00  0.00     0.762 OA 
ATOM     21  O2*   A A   1     -11.905  11.456  72.068  1.00  0.00     1.239 OA 
BRANCH  15  22
ATOM     22  C5*   A A   1     -14.272  15.278  70.920  1.00  0.00    -0.021 C  
ATOM     23  O5*   A A   1     -13.958  16.071  69.780  1.00  0.00     0.980 OA 
ATOM     24  H5*   A A   1     -14.300  16.951  69.883  1.00  0.00     0.000 HD 
ENDBRANCH  15  22
ENDBRANCH   8  13
TORSDOF 2
ENDMDL
MODEL      246
REMARK 921   NORMALIZED FREE ENERGY PREDICTED BY IDOCK:   25.56 KCAL/MOL
REMARK 922        TOTAL FREE ENERGY PREDICTED BY IDOCK:   28.08 KCAL/MOL
REMARK 923 INTER-LIGAND FREE ENERGY PREDICTED BY IDOCK:   28.54 KCAL/MOL
REMARK 924 INTRA-LIGAND FREE ENERGY PREDICTED BY IDOCK:   -0.46 KCAL/MOL
REMARK 927      BINDING AFFINITY PREDICTED BY RF-SCORE:    0.00 PKD
ROOT
ATOM      1  N6    A A   1     -10.061   4.685  67.489  1.00  0.00    -0.119 NA 
ATOM      2  C6    A A   1     -10.403   5.345  68.661  1.00  0.00    -0.158 A  
ATOM      3  H61   A A   1     -10.382   3.743  67.267  1.00  0.00     0.000 HD 
ATOM      4  H62   A A   1      -9.042   4.681  67.429  1.00  0.00     0.000 HD 
ATOM      5  C5    A A   1      -9.959   6.645  68.968  1.00  0.00    -0.153 A  
ATOM      6  N7    A A   1      -9.143   7.525  68.292  1.00  0.00    -0.133 NA 
ATOM      7  C8    A A   1      -9.070   8.577  69.080  1.00  0.00    -0.146 A  
ATOM      8  N9    A A   1      -9.805   8.417  70.233  1.00  0.00    -0.179 NA 
ATOM      9  N1    A A   1     -11.176   4.703  69.562  1.00  0.00     2.437 NA 
ATOM     10  C4    A A   1     -10.372   7.176  70.183  1.00  0.00    -0.206 A  
ATOM     11  C2    A A   1     -11.499   5.338  70.707  1.00  0.00     0.972 A  
ATOM     12  N3    A A   1     -11.133   6.573  71.109  1.00  0.00    -0.268 NA 
ENDROOT
BRANCH   8  13
ATOM     13  C1*   A A   1      -9.856   9.412  71.270  1.00  0.00    -0.175 C  
ATOM     14  O4*   A A   1     -11.245   9.766  71.458  1.00  0.00    -0.360 OA 
ATOM     15  C4*   A A   1     -11.502  10.991  70.729  1.00  0.00     0.094 C  
ATOM     16  H2*   A A   1      -8.249  12.083  72.342  1.00  0.00     0.000 HD 
ATOM     17  C3*   A A   1     -10.164  11.711  70.554  1.00  0.00     3.131 C  
ATOM     18  C2*   A A   1      -9.118  10.752  71.134  1.00  0.00     4.937 C  
ATOM     19  H3*   A A   1      -9.354  13.400  71.155  1.00  0.00     0.000 HD 
ATOM     20  O3*   A A   1     -10.185  12.952  71.264  1.00  0.00     6.329 OA 
ATOM     21  O2*   A A   1      -8.706  11.254  72.426  1.00  0.00    12.983 OA 
BRANCH  15  22
ATOM     22  C5*   A A   1     -12.151  10.665  69.376  1.00  0.00    -0.178 C  
ATOM     23  O5*   A A   1     -11.639  11.521  68.360  1.00  0.00    -0.268 OA 
ATOM     24  H5*   A A   1     -12.040  11.320  67.523  1.00  0.00     0.000 HD 
ENDBRANCH  15  22
ENDBRANCH   8  13
TORSDOF 2
ENDMDL
MODEL      247
REMARK 921   NORMALIZED FREE ENERGY PREDICTED BY IDOCK:   43.88 KCAL/MOL
REMARK 922        TOTAL FREE ENERGY PREDICTED BY IDOCK:   48.53 KCAL/MOL
REMARK 923 INTER-LIGAND FREE ENERGY PREDICTED BY IDOCK:   32.76 KCAL/MOL
REMARK 924 INTRA-LIGAND FREE ENERGY PREDICTED BY IDOCK:   15.77 KCAL/MOL
REMARK 927      BINDING AFFINITY PREDICTED BY RF-SCORE:    0.00 PKD
ROOT
ATOM      1  N6    A A   1     -10.800  18.010  62.521  1.00  0.00    14.219 NA 
ATOM      2  C6    A A   1     -10.365  18.019  63.839  1.00  0.00     8.520 A  
ATOM      3  H61   A A   1     -10.359  18.561  61.785  1.00  0.00     0.000 HD 
ATOM      4  H62   A A   1     -11.793  18.247  62.526  1.00  0.00     0.000 HD 
ATOM      5  C5    A A   1     -10.974  17.259  64.855  1.00  0.00     0.347 A  
ATOM      6  N7    A A   1     -12.054  16.404  64.846  1.00  0.00     0.606 NA 
ATOM      7  C8    A A   1     -12.166  16.003  66.094  1.00  0.00     1.768 A  
ATOM      8  N9    A A   1     -11.204  16.557  66.909  1.00  0.00     0.167 NA 
ATOM      9  N1    A A   1      -9.327  18.816  64.170  1.00  0.00     7.448 NA 
ATOM     10  C4    A A   1     -10.438  17.377  66.131  1.00  0.00    -0.284 A  
ATOM     11  C2    A A   1      -8.911  18.836  65.453  1.00  0.00     1.441 A  
ATOM     12  N3    A A   1      -9.413  18.158  66.505  1.00  0.00    -0.301 NA 
ENDROOT
BRANCH   8  13
ATOM     13  C1*   A A   1     -11.138  16.303  68.323  1.00  0.00    -0.346 C  
ATOM     14  O4*   A A   1     -10.322  17.343  68.908  1.00  0.00    -0.335 OA 
ATOM     15  C4*   A A   1      -8.984  16.820  69.089  1.00  0.00    -0.115 C  
ATOM     16  H2*   A A   1     -10.846  13.820  70.471  1.00  0.00     0.000 HD 
ATOM     17  C3*   A A   1      -9.091  15.295  69.150  1.00  0.00    -0.236 C  
ATOM     18  C2*   A A   1     -10.567  14.990  68.876  1.00  0.00    -0.242 C  
ATOM     19  H3*   A A   1      -8.758  13.886  70.482  1.00  0.00     0.000 HD 
ATOM     20  O3*   A A   1      -8.692  14.833  70.444  1.00  0.00     0.796 OA 
ATOM     21  O2*   A A   1     -11.199  14.634  70.128  1.00  0.00    -0.246 OA 
BRANCH  15  22
ATOM     22  C5*   A A   1      -8.085  17.279  67.931  1.00  0.00    -0.210 C  
ATOM     23  O5*   A A   1      -8.876  17.755  66.846  1.00  0.00    -0.235 OA 
ATOM     24  H5*   A A   1      -8.321  18.038  66.130  1.00  0.00     0.000 HD 
ENDBRANCH  15  22
ENDBRANCH   8  13
TORSDOF 2
ENDMDL
